# DDEC6 charges by PACMAN v1.1 (https://github.com/mtap-research/PACMAN-charge/)
data_ja9b10501_si_010_FSR_pacman
_symmetry_space_group_name_H-M   'P 1'
_cell_length_a   18.17020000
_cell_length_b   18.17020000
_cell_length_c   37.84300000
_cell_angle_alpha   90.00000000
_cell_angle_beta   90.00000000
_cell_angle_gamma   90.00000000
_symmetry_Int_Tables_number   1
_chemical_formula_structural   Al16P4.4H148.4C219.6O84.4
_chemical_formula_sum   'Al16 P4.4 H148.4 C219.6 O84.4'
_cell_volume   12494.09986714
_cell_formula_units_Z   1
loop_
 _symmetry_equiv_pos_site_id
 _symmetry_equiv_pos_as_xyz
  1  'x, y, z'
loop_
 _atom_site_type_symbol
 _atom_site_label
 _atom_site_symmetry_multiplicity
 _atom_site_fract_x
 _atom_site_fract_y
 _atom_site_fract_z
 _atom_site_occupancy
 _atom_site_charge
Al  Al1  1  0.35890000  0.58878000  0.92207000  1.0 1.5576819296
Al  Al2  1  0.64110000  0.41122000  0.92207000  1.0 1.5576819296
Al  Al3  1  0.91122000  0.85890000  0.42207000  1.0 1.5576819296
Al  Al4  1  0.08878000  0.14110000  0.42207000  1.0 1.5576819296
Al  Al5  1  0.14110000  0.08878000  0.57793000  1.0 1.5576819296
Al  Al6  1  0.85890000  0.91122000  0.57793000  1.0 1.5576819296
Al  Al7  1  0.58878000  0.35890000  0.07793000  1.0 1.5576819296
Al  Al8  1  0.41122000  0.64110000  0.07793000  1.0 1.5576819296
Al  Al9  1  0.50000000  0.50000000  0.88791000  1.0 1.6341569539
Al  Al10  1  0.00000000  0.00000000  0.38791000  1.0 1.6341569539
Al  Al11  1  0.00000000  0.00000000  0.61209000  1.0 1.6341569539
Al  Al12  1  0.50000000  0.50000000  0.11209000  1.0 1.6341569539
Al  Al13  1  0.33183000  0.66817000  0.00000000  1.0 1.4475718851
Al  Al14  1  0.66817000  0.33183000  0.00000000  1.0 1.4475718851
Al  Al15  1  0.83183000  0.83183000  0.50000000  1.0 1.4475718851
Al  Al16  1  0.16817000  0.16817000  0.50000000  1.0 1.4475718851
P  P1  1  0.22660000  0.54080000  0.96670000  0.23 -0.1009460472
P  P2  1  0.77340000  0.45920000  0.96670000  0.23 -0.1009460472
P  P3  1  0.95920000  0.72660000  0.46670000  0.23 -0.1009460472
P  P4  1  0.04080000  0.27340000  0.46670000  0.23 -0.1085742773
P  P5  1  0.27340000  0.04080000  0.53330000  0.23 -0.1085742773
P  P6  1  0.72660000  0.95920000  0.53330000  0.23 -0.1009460472
P  P7  1  0.54080000  0.22660000  0.03330000  0.23 -0.1009460472
P  P8  1  0.45920000  0.77340000  0.03330000  0.23 -0.1085742773
P  P9  1  0.25560000  0.52550000  0.97788000  0.32 -0.1393584838
P  P10  1  0.74440000  0.47450000  0.97788000  0.32 -0.1393584838
P  P11  1  0.97450000  0.75560000  0.47788000  0.32 -0.1393584838
P  P12  1  0.02550000  0.24440000  0.47788000  0.32 -0.1393584838
P  P13  1  0.24440000  0.02550000  0.52212000  0.32 -0.1393584838
P  P14  1  0.75560000  0.97450000  0.52212000  0.32 -0.1393584838
P  P15  1  0.52550000  0.25560000  0.02212000  0.32 -0.1393584838
P  P16  1  0.47450000  0.74440000  0.02212000  0.32 -0.1393584838
H  H1  1  0.42966000  0.48495000  0.94152000  1.0 0.4678104747
H  H2  1  0.44071000  0.62417000  0.96959000  1.0 0.4547384199
H  H3  1  0.22239000  0.23119000  0.63571000  1.0 0.1174520747
H  H4  1  0.20810000  0.36770000  0.55178000  1.0 0.1498749495
H  H5  1  0.21152000  0.33196000  0.67386000  1.0 0.0987943683
H  H6  1  0.20100000  0.46750000  0.58950000  1.0 0.1087400468
H  H7  1  0.23330000  0.59133000  0.83120000  1.0 0.1366496332
H  H8  1  0.40684000  0.48236000  0.78915000  1.0 0.1174520747
H  H9  1  0.10547000  0.83401000  0.65367000  1.0 0.1087400468
H  H10  1  0.12339000  0.53268000  0.62744000  1.0 0.1174520747
H  H11  1  0.17632000  0.59367000  0.77587000  1.0 0.0987943683
H  H12  1  0.16246000  0.73197000  0.67988000  1.0 0.0987943683
H  H13  1  0.25616000  0.43430000  0.69953000  1.0 0.1087400468
H  H14  1  0.34425000  0.47478000  0.73550000  1.0 0.0987943683
H  H15  1  0.94706000  0.70044000  0.61460000  1.0 0.1174520747
H  H16  1  0.01179000  0.59927000  0.63549000  1.0 0.0987943683
H  H17  1  0.16459000  0.63393000  0.71957000  1.0 0.1087400468
H  H18  1  0.57034000  0.51505000  0.94152000  1.0 0.4678104747
H  H19  1  0.55929000  0.37583000  0.96959000  1.0 0.4547384199
H  H20  1  0.77761000  0.76881000  0.63571000  1.0 0.1174520747
H  H21  1  0.79190000  0.63230000  0.55178000  1.0 0.1498749495
H  H22  1  0.78848000  0.66804000  0.67386000  1.0 0.0987943683
H  H23  1  0.79900000  0.53250000  0.58950000  1.0 0.1087400468
H  H24  1  0.76670000  0.40867000  0.83120000  1.0 0.1366496332
H  H25  1  0.59316000  0.51764000  0.78915000  1.0 0.1174520747
H  H26  1  0.89453000  0.16599000  0.65367000  1.0 0.1087400468
H  H27  1  0.87661000  0.46732000  0.62744000  1.0 0.1174520747
H  H28  1  0.82368000  0.40633000  0.77587000  1.0 0.0987943683
H  H29  1  0.83754000  0.26803000  0.67988000  1.0 0.0987943683
H  H30  1  0.74384000  0.56570000  0.69953000  1.0 0.1087400468
H  H31  1  0.65575000  0.52522000  0.73550000  1.0 0.0987943683
H  H32  1  0.05294000  0.29956000  0.61460000  1.0 0.1174520747
H  H33  1  0.98821000  0.40073000  0.63549000  1.0 0.0987943683
H  H34  1  0.83541000  0.36607000  0.71957000  1.0 0.1087400468
H  H35  1  0.01505000  0.92966000  0.44152000  1.0 0.4678104747
H  H36  1  0.87583000  0.94071000  0.46959000  1.0 0.4552499469
H  H37  1  0.26881000  0.72239000  0.13571000  1.0 0.1174520747
H  H38  1  0.13230000  0.70810000  0.05178000  1.0 0.1498749495
H  H39  1  0.16804000  0.71152000  0.17386000  1.0 0.0987943683
H  H40  1  0.03250000  0.70100000  0.08950000  1.0 0.1087400468
H  H41  1  0.90867000  0.73330000  0.33120000  1.0 0.1366496332
H  H42  1  0.01764000  0.90684000  0.28915000  1.0 0.1174520747
H  H43  1  0.66599000  0.60547000  0.15367000  1.0 0.1087400468
H  H44  1  0.96732000  0.62339000  0.12744000  1.0 0.1174520747
H  H45  1  0.90633000  0.67632000  0.27587000  1.0 0.0987943683
H  H46  1  0.76803000  0.66246000  0.17988000  1.0 0.0987943683
H  H47  1  0.06570000  0.75616000  0.19953000  1.0 0.1087400468
H  H48  1  0.02522000  0.84425000  0.23550000  1.0 0.0987943683
H  H49  1  0.79956000  0.44706000  0.11460000  1.0 0.1174520747
H  H50  1  0.90073000  0.51179000  0.13549000  1.0 0.0987943683
H  H51  1  0.86607000  0.66459000  0.21957000  1.0 0.1087400468
H  H52  1  0.98495000  0.07034000  0.44152000  1.0 0.4678104747
H  H53  1  0.12417000  0.05929000  0.46959000  1.0 0.4552499469
H  H54  1  0.73119000  0.27761000  0.13571000  1.0 0.1174520747
H  H55  1  0.86770000  0.29190000  0.05178000  1.0 0.1498749495
H  H56  1  0.83196000  0.28848000  0.17386000  1.0 0.0987943683
H  H57  1  0.96750000  0.29900000  0.08950000  1.0 0.1087400468
H  H58  1  0.09133000  0.26670000  0.33120000  1.0 0.1366496332
H  H59  1  0.98236000  0.09316000  0.28915000  1.0 0.1174520747
H  H60  1  0.33401000  0.39453000  0.15367000  1.0 0.1087400468
H  H61  1  0.03268000  0.37661000  0.12744000  1.0 0.1174520747
H  H62  1  0.09367000  0.32368000  0.27587000  1.0 0.0987943683
H  H63  1  0.23197000  0.33754000  0.17988000  1.0 0.0987943683
H  H64  1  0.93430000  0.24384000  0.19953000  1.0 0.1087400468
H  H65  1  0.97478000  0.15575000  0.23550000  1.0 0.0987943683
H  H66  1  0.20044000  0.55294000  0.11460000  1.0 0.1174520747
H  H67  1  0.09927000  0.48821000  0.13549000  1.0 0.0987943683
H  H68  1  0.13393000  0.33541000  0.21957000  1.0 0.1087400468
H  H69  1  0.07034000  0.98495000  0.55848000  1.0 0.4678104747
H  H70  1  0.05929000  0.12417000  0.53041000  1.0 0.4552499469
H  H71  1  0.27761000  0.73119000  0.86429000  1.0 0.1174520747
H  H72  1  0.29190000  0.86770000  0.94822000  1.0 0.1498749495
H  H73  1  0.28848000  0.83196000  0.82614000  1.0 0.0987943683
H  H74  1  0.29900000  0.96750000  0.91050000  1.0 0.1087400468
H  H75  1  0.26670000  0.09133000  0.66880000  1.0 0.1366496332
H  H76  1  0.09316000  0.98236000  0.71085000  1.0 0.1174520747
H  H77  1  0.39453000  0.33401000  0.84633000  1.0 0.1087400468
H  H78  1  0.37661000  0.03268000  0.87256000  1.0 0.1174520747
H  H79  1  0.32368000  0.09367000  0.72413000  1.0 0.0987943683
H  H80  1  0.33754000  0.23197000  0.82012000  1.0 0.0987943683
H  H81  1  0.24384000  0.93430000  0.80047000  1.0 0.1087400468
H  H82  1  0.15575000  0.97478000  0.76450000  1.0 0.0987943683
H  H83  1  0.55294000  0.20044000  0.88540000  1.0 0.1174520747
H  H84  1  0.48821000  0.09927000  0.86451000  1.0 0.0987943683
H  H85  1  0.33541000  0.13393000  0.78043000  1.0 0.1087400468
H  H86  1  0.92966000  0.01505000  0.55848000  1.0 0.4678104747
H  H87  1  0.94071000  0.87583000  0.53041000  1.0 0.4552499469
H  H88  1  0.72239000  0.26881000  0.86429000  1.0 0.1174520747
H  H89  1  0.70810000  0.13230000  0.94822000  1.0 0.1498749495
H  H90  1  0.71152000  0.16804000  0.82614000  1.0 0.0987943683
H  H91  1  0.70100000  0.03250000  0.91050000  1.0 0.1087400468
H  H92  1  0.73330000  0.90867000  0.66880000  1.0 0.1366496332
H  H93  1  0.90684000  0.01764000  0.71085000  1.0 0.1174520747
H  H94  1  0.60547000  0.66599000  0.84633000  1.0 0.1087400468
H  H95  1  0.62339000  0.96732000  0.87256000  1.0 0.1174520747
H  H96  1  0.67632000  0.90633000  0.72413000  1.0 0.0987943683
H  H97  1  0.66246000  0.76803000  0.82012000  1.0 0.0987943683
H  H98  1  0.75616000  0.06570000  0.80047000  1.0 0.1087400468
H  H99  1  0.84425000  0.02522000  0.76450000  1.0 0.0987943683
H  H100  1  0.44706000  0.79956000  0.88540000  1.0 0.1174520747
H  H101  1  0.51179000  0.90073000  0.86451000  1.0 0.0987943683
H  H102  1  0.66459000  0.86607000  0.78043000  1.0 0.1087400468
H  H103  1  0.48495000  0.42966000  0.05848000  1.0 0.4678104747
H  H104  1  0.62417000  0.44071000  0.03041000  1.0 0.4547384199
H  H105  1  0.23119000  0.22239000  0.36429000  1.0 0.1174520747
H  H106  1  0.36770000  0.20810000  0.44822000  1.0 0.1498749495
H  H107  1  0.33196000  0.21152000  0.32614000  1.0 0.0987943683
H  H108  1  0.46750000  0.20100000  0.41050000  1.0 0.1087400468
H  H109  1  0.59133000  0.23330000  0.16880000  1.0 0.1366496332
H  H110  1  0.48236000  0.40684000  0.21085000  1.0 0.1174520747
H  H111  1  0.83401000  0.10547000  0.34633000  1.0 0.1087400468
H  H112  1  0.53268000  0.12339000  0.37256000  1.0 0.1174520747
H  H113  1  0.59367000  0.17632000  0.22413000  1.0 0.0987943683
H  H114  1  0.73197000  0.16246000  0.32012000  1.0 0.0987943683
H  H115  1  0.43430000  0.25616000  0.30047000  1.0 0.1087400468
H  H116  1  0.47478000  0.34425000  0.26450000  1.0 0.0987943683
H  H117  1  0.70044000  0.94706000  0.38540000  1.0 0.1174520747
H  H118  1  0.59927000  0.01179000  0.36451000  1.0 0.0987943683
H  H119  1  0.63393000  0.16459000  0.28043000  1.0 0.1087400468
H  H120  1  0.51505000  0.57034000  0.05848000  1.0 0.4678104747
H  H121  1  0.37583000  0.55929000  0.03041000  1.0 0.4547384199
H  H122  1  0.76881000  0.77761000  0.36429000  1.0 0.1174520747
H  H123  1  0.63230000  0.79190000  0.44822000  1.0 0.1498749495
H  H124  1  0.66804000  0.78848000  0.32614000  1.0 0.0987943683
H  H125  1  0.53250000  0.79900000  0.41050000  1.0 0.1087400468
H  H126  1  0.40867000  0.76670000  0.16880000  1.0 0.1366496332
H  H127  1  0.51764000  0.59316000  0.21085000  1.0 0.1174520747
H  H128  1  0.16599000  0.89453000  0.34633000  1.0 0.1087400468
H  H129  1  0.46732000  0.87661000  0.37256000  1.0 0.1174520747
H  H130  1  0.40633000  0.82368000  0.22413000  1.0 0.0987943683
H  H131  1  0.26803000  0.83754000  0.32012000  1.0 0.0987943683
H  H132  1  0.56570000  0.74384000  0.30047000  1.0 0.1087400468
H  H133  1  0.52522000  0.65575000  0.26450000  1.0 0.0987943683
H  H134  1  0.29956000  0.05294000  0.38540000  1.0 0.1174520747
H  H135  1  0.40073000  0.98821000  0.36451000  1.0 0.0987943683
H  H136  1  0.36607000  0.83541000  0.28043000  1.0 0.1087400468
H  H137  1  0.28902000  0.49630000  0.99351000  0.32 -0.0688402415
H  H138  1  0.19054000  0.44932000  0.98937000  0.32 0.1498749495
H  H139  1  0.71098000  0.50370000  0.99351000  0.32 -0.0688402415
H  H140  1  0.80946000  0.55068000  0.98937000  0.32 0.1498749495
H  H141  1  0.00370000  0.78902000  0.49351000  0.32 -0.0688402415
H  H142  1  0.05068000  0.69054000  0.48937000  0.32 0.1498749495
H  H143  1  0.99630000  0.21098000  0.49351000  0.32 -0.0688402415
H  H144  1  0.94932000  0.30946000  0.48937000  0.32 0.1498749495
H  H145  1  0.21098000  0.99630000  0.50649000  0.32 -0.0633453351
H  H146  1  0.30946000  0.94932000  0.51063000  0.32 0.1498749495
H  H147  1  0.78902000  0.00370000  0.50649000  0.32 -0.0688402415
H  H148  1  0.69054000  0.05068000  0.51063000  0.32 0.1498749495
H  H149  1  0.49630000  0.28902000  0.00649000  0.32 -0.0688402415
H  H150  1  0.44932000  0.19054000  0.01063000  0.32 0.1552612748
H  H151  1  0.50370000  0.71098000  0.00649000  0.32 -0.0688402415
H  H152  1  0.55068000  0.80946000  0.01063000  0.32 0.1498749495
H  H153  1  0.20877000  0.51046000  0.97395000  0.45 -0.0464138276
H  H154  1  0.79123000  0.48954000  0.97395000  0.45 -0.0464138276
H  H155  1  0.98954000  0.70877000  0.47395000  0.45 -0.044616792
H  H156  1  0.01046000  0.29123000  0.47395000  0.45 -0.0464138276
H  H157  1  0.29123000  0.01046000  0.52605000  0.45 -0.0464138276
H  H158  1  0.70877000  0.98954000  0.52605000  0.45 -0.0464138276
H  H159  1  0.51046000  0.20877000  0.02605000  0.45 -0.0464138276
H  H160  1  0.48954000  0.79123000  0.02605000  0.45 -0.0464138276
H  H161  1  0.18216000  0.55817000  0.95348000  0.23 -0.1292319909
H  H162  1  0.22158000  0.47608000  0.00907000  0.23 0.0196605582
H  H163  1  0.81784000  0.44183000  0.95348000  0.23 -0.1292319909
H  H164  1  0.77842000  0.52392000  0.00907000  0.23 0.0196605582
H  H165  1  0.94183000  0.68216000  0.45348000  0.23 -0.1292319909
H  H166  1  0.02392000  0.72158000  0.50907000  0.23 0.0196605582
H  H167  1  0.05817000  0.31784000  0.45348000  0.23 -0.1292319909
H  H168  1  0.97608000  0.27842000  0.50907000  0.23 0.0196605582
H  H169  1  0.31784000  0.05817000  0.54652000  0.23 -0.1292319909
H  H170  1  0.27842000  0.97608000  0.49093000  0.23 0.0196605582
H  H171  1  0.68216000  0.94183000  0.54652000  0.23 -0.1292319909
H  H172  1  0.72158000  0.02392000  0.49093000  0.23 0.0196605582
H  H173  1  0.55817000  0.18216000  0.04652000  0.23 -0.1292319909
H  H174  1  0.47608000  0.22158000  0.99093000  0.23 0.0196605582
H  H175  1  0.44183000  0.81784000  0.04652000  0.23 -0.1292319909
H  H176  1  0.52392000  0.77842000  0.99093000  0.23 0.0196605582
C  C1  1  0.36330000  0.53802000  0.85029000  1.0 0.6041370075
C  C2  1  0.21743000  0.28976000  0.59019000  1.0 0.0267386306
C  C3  1  0.21754000  0.27940000  0.62628000  1.0 -0.1009460472
C  C4  1  0.20956000  0.36032000  0.57663000  1.0 -0.0464138276
C  C5  1  0.21054000  0.33949000  0.64902000  1.0 -0.1671327041
C  C6  1  0.02111000  0.77743000  0.63058000  1.0 -0.0095731379
C  C7  1  0.21417000  0.22525000  0.56638000  1.0 0.537389588
C  C8  1  0.20390000  0.41914000  0.59894000  1.0 -0.1608230449
C  C9  1  0.98687000  0.84317000  0.61478000  1.0 0.5876134749
C  C10  1  0.20233000  0.40870000  0.63593000  1.0 0.0267386306
C  C11  1  0.19094000  0.47170000  0.65972000  1.0 0.0878161465
C  C12  1  0.25666000  0.56890000  0.81149000  1.0 -0.1009460472
C  C13  1  0.35900000  0.50295000  0.78693000  1.0 -0.1186205033
C  C14  1  0.25411000  0.53513000  0.75046000  1.0 0.0580971617
C  C15  1  0.08539000  0.78623000  0.65036000  1.0 -0.1085742773
C  C16  1  0.13706000  0.58997000  0.67210000  1.0 0.0810370919
C  C17  1  0.14668000  0.53236000  0.64991000  1.0 -0.210394415
C  C18  1  0.22225000  0.56937000  0.77866000  1.0 -0.1608230449
C  C19  1  0.32580000  0.53539000  0.81564000  1.0 -0.0298616412
C  C20  1  0.12040000  0.72524000  0.66532000  1.0 -0.1754593604
C  C21  1  0.22565000  0.47414000  0.69249000  1.0 -0.210394415
C  C22  1  0.09376000  0.65458000  0.65893000  1.0 0.0580971617
C  C23  1  0.32268000  0.50032000  0.75479000  1.0 -0.1671327041
C  C24  1  0.99257000  0.70735000  0.62651000  1.0 -0.0766866264
C  C25  1  0.21642000  0.53466000  0.71545000  1.0 0.0810370919
C  C26  1  0.03050000  0.64725000  0.63982000  1.0 -0.1608230449
C  C27  1  0.17151000  0.59256000  0.70458000  1.0 -0.210394415
C  C28  1  0.63670000  0.46198000  0.85029000  1.0 0.6041370075
C  C29  1  0.78257000  0.71024000  0.59019000  1.0 0.0267386306
C  C30  1  0.78246000  0.72060000  0.62628000  1.0 -0.1009460472
C  C31  1  0.79044000  0.63968000  0.57663000  1.0 -0.044616792
C  C32  1  0.78946000  0.66051000  0.64902000  1.0 -0.1671327041
C  C33  1  0.97889000  0.22257000  0.63058000  1.0 -0.0095731379
C  C34  1  0.78583000  0.77475000  0.56638000  1.0 0.537389588
C  C35  1  0.79610000  0.58086000  0.59894000  1.0 -0.1608230449
C  C36  1  0.01313000  0.15683000  0.61478000  1.0 0.5876134749
C  C37  1  0.79767000  0.59130000  0.63593000  1.0 0.0267386306
C  C38  1  0.80906000  0.52830000  0.65972000  1.0 0.0878161465
C  C39  1  0.74334000  0.43110000  0.81149000  1.0 -0.1009460472
C  C40  1  0.64100000  0.49705000  0.78693000  1.0 -0.1186205033
C  C41  1  0.74589000  0.46487000  0.75046000  1.0 0.0580971617
C  C42  1  0.91461000  0.21377000  0.65036000  1.0 -0.1085742773
C  C43  1  0.86294000  0.41003000  0.67210000  1.0 0.0810370919
C  C44  1  0.85332000  0.46764000  0.64991000  1.0 -0.210394415
C  C45  1  0.77775000  0.43063000  0.77866000  1.0 -0.1608230449
C  C46  1  0.67420000  0.46461000  0.81564000  1.0 -0.0298616412
C  C47  1  0.87960000  0.27476000  0.66532000  1.0 -0.1754593604
C  C48  1  0.77435000  0.52586000  0.69249000  1.0 -0.210394415
C  C49  1  0.90624000  0.34542000  0.65893000  1.0 0.0580971617
C  C50  1  0.67732000  0.49968000  0.75479000  1.0 -0.1671327041
C  C51  1  0.00743000  0.29265000  0.62651000  1.0 -0.0766866264
C  C52  1  0.78358000  0.46534000  0.71545000  1.0 0.0810370919
C  C53  1  0.96950000  0.35275000  0.63982000  1.0 -0.1608230449
C  C54  1  0.82849000  0.40744000  0.70458000  1.0 -0.210394415
C  C55  1  0.96198000  0.86330000  0.35029000  1.0 0.6041370075
C  C56  1  0.21024000  0.71743000  0.09019000  1.0 0.0196605582
C  C57  1  0.22060000  0.71754000  0.12628000  1.0 -0.1009460472
C  C58  1  0.13968000  0.70956000  0.07663000  1.0 -0.0464138276
C  C59  1  0.16051000  0.71054000  0.14902000  1.0 -0.1671327041
C  C60  1  0.72257000  0.52111000  0.13058000  1.0 -0.0095731379
C  C61  1  0.27475000  0.71417000  0.06638000  1.0 0.537389588
C  C62  1  0.08086000  0.70390000  0.09894000  1.0 -0.1608230449
C  C63  1  0.65683000  0.48687000  0.11478000  1.0 0.5876134749
C  C64  1  0.09130000  0.70233000  0.13593000  1.0 0.0267386306
C  C65  1  0.02830000  0.69094000  0.15972000  1.0 0.0878161465
C  C66  1  0.93110000  0.75666000  0.31149000  1.0 -0.1009460472
C  C67  1  0.99705000  0.85900000  0.28693000  1.0 -0.1186205033
C  C68  1  0.96487000  0.75411000  0.25046000  1.0 0.0580971617
C  C69  1  0.71377000  0.58539000  0.15036000  1.0 -0.1085742773
C  C70  1  0.91003000  0.63706000  0.17210000  1.0 0.0810370919
C  C71  1  0.96764000  0.64668000  0.14991000  1.0 -0.210394415
C  C72  1  0.93063000  0.72225000  0.27866000  1.0 -0.1608230449
C  C73  1  0.96461000  0.82580000  0.31564000  1.0 -0.0298616412
C  C74  1  0.77476000  0.62040000  0.16532000  1.0 -0.1754593604
C  C75  1  0.02586000  0.72565000  0.19249000  1.0 -0.210394415
C  C76  1  0.84542000  0.59376000  0.15893000  1.0 0.0580971617
C  C77  1  0.99968000  0.82268000  0.25479000  1.0 -0.1671327041
C  C78  1  0.79265000  0.49257000  0.12651000  1.0 -0.0766866264
C  C79  1  0.96534000  0.71642000  0.21545000  1.0 0.0810370919
C  C80  1  0.85275000  0.53050000  0.13982000  1.0 -0.1608230449
C  C81  1  0.90744000  0.67151000  0.20458000  1.0 -0.210394415
C  C82  1  0.03802000  0.13670000  0.35029000  1.0 0.6041370075
C  C83  1  0.78976000  0.28257000  0.09019000  1.0 0.0196605582
C  C84  1  0.77940000  0.28246000  0.12628000  1.0 -0.1009460472
C  C85  1  0.86032000  0.29044000  0.07663000  1.0 -0.044616792
C  C86  1  0.83949000  0.28946000  0.14902000  1.0 -0.1671327041
C  C87  1  0.27743000  0.47889000  0.13058000  1.0 -0.0095731379
C  C88  1  0.72525000  0.28583000  0.06638000  1.0 0.537389588
C  C89  1  0.91914000  0.29610000  0.09894000  1.0 -0.1608230449
C  C90  1  0.34317000  0.51313000  0.11478000  1.0 0.5876134749
C  C91  1  0.90870000  0.29767000  0.13593000  1.0 0.0267386306
C  C92  1  0.97170000  0.30906000  0.15972000  1.0 0.0878161465
C  C93  1  0.06890000  0.24334000  0.31149000  1.0 -0.1009460472
C  C94  1  0.00295000  0.14100000  0.28693000  1.0 -0.1186205033
C  C95  1  0.03513000  0.24589000  0.25046000  1.0 0.0580971617
C  C96  1  0.28623000  0.41461000  0.15036000  1.0 -0.1085742773
C  C97  1  0.08997000  0.36294000  0.17210000  1.0 0.0810370919
C  C98  1  0.03236000  0.35332000  0.14991000  1.0 -0.210394415
C  C99  1  0.06937000  0.27775000  0.27866000  1.0 -0.1608230449
C  C100  1  0.03539000  0.17420000  0.31564000  1.0 -0.0298616412
C  C101  1  0.22524000  0.37960000  0.16532000  1.0 -0.1754593604
C  C102  1  0.97414000  0.27435000  0.19249000  1.0 -0.210394415
C  C103  1  0.15458000  0.40624000  0.15893000  1.0 0.0580971617
C  C104  1  0.00032000  0.17732000  0.25479000  1.0 -0.1671327041
C  C105  1  0.20735000  0.50743000  0.12651000  1.0 -0.0766866264
C  C106  1  0.03466000  0.28358000  0.21545000  1.0 0.0810370919
C  C107  1  0.14725000  0.46950000  0.13982000  1.0 -0.1608230449
C  C108  1  0.09256000  0.32849000  0.20458000  1.0 -0.210394415
C  C109  1  0.13670000  0.03802000  0.64971000  1.0 0.6041370075
C  C110  1  0.28257000  0.78976000  0.90981000  1.0 0.0267386306
C  C111  1  0.28246000  0.77940000  0.87372000  1.0 -0.1009460472
C  C112  1  0.29044000  0.86032000  0.92337000  1.0 -0.0464138276
C  C113  1  0.28946000  0.83949000  0.85098000  1.0 -0.1671327041
C  C114  1  0.47889000  0.27743000  0.86942000  1.0 -0.0095731379
C  C115  1  0.28583000  0.72525000  0.93362000  1.0 0.537389588
C  C116  1  0.29610000  0.91914000  0.90106000  1.0 -0.1608230449
C  C117  1  0.51313000  0.34317000  0.88522000  1.0 0.5876134749
C  C118  1  0.29767000  0.90870000  0.86407000  1.0 0.0267386306
C  C119  1  0.30906000  0.97170000  0.84028000  1.0 0.0878161465
C  C120  1  0.24334000  0.06890000  0.68851000  1.0 -0.1009460472
C  C121  1  0.14100000  0.00295000  0.71307000  1.0 -0.1186205033
C  C122  1  0.24589000  0.03513000  0.74954000  1.0 0.0580971617
C  C123  1  0.41461000  0.28623000  0.84964000  1.0 -0.1085742773
C  C124  1  0.36294000  0.08997000  0.82790000  1.0 0.0810370919
C  C125  1  0.35332000  0.03236000  0.85009000  1.0 -0.210394415
C  C126  1  0.27775000  0.06937000  0.72134000  1.0 -0.1608230449
C  C127  1  0.17420000  0.03539000  0.68436000  1.0 -0.0298616412
C  C128  1  0.37960000  0.22524000  0.83468000  1.0 -0.1754593604
C  C129  1  0.27435000  0.97414000  0.80751000  1.0 -0.210394415
C  C130  1  0.40624000  0.15458000  0.84107000  1.0 0.0580971617
C  C131  1  0.17732000  0.00032000  0.74521000  1.0 -0.1671327041
C  C132  1  0.50743000  0.20735000  0.87349000  1.0 -0.0766866264
C  C133  1  0.28358000  0.03466000  0.78455000  1.0 0.0810370919
C  C134  1  0.46950000  0.14725000  0.86018000  1.0 -0.1608230449
C  C135  1  0.32849000  0.09256000  0.79542000  1.0 -0.210394415
C  C136  1  0.86330000  0.96198000  0.64971000  1.0 0.6041370075
C  C137  1  0.71743000  0.21024000  0.90981000  1.0 0.0267386306
C  C138  1  0.71754000  0.22060000  0.87372000  1.0 -0.1009460472
C  C139  1  0.70956000  0.13968000  0.92337000  1.0 -0.0464138276
C  C140  1  0.71054000  0.16051000  0.85098000  1.0 -0.1671327041
C  C141  1  0.52111000  0.72257000  0.86942000  1.0 -0.0095731379
C  C142  1  0.71417000  0.27475000  0.93362000  1.0 0.537389588
C  C143  1  0.70390000  0.08086000  0.90106000  1.0 -0.1608230449
C  C144  1  0.48687000  0.65683000  0.88522000  1.0 0.5876134749
C  C145  1  0.70233000  0.09130000  0.86407000  1.0 0.0267386306
C  C146  1  0.69094000  0.02830000  0.84028000  1.0 0.0878161465
C  C147  1  0.75666000  0.93110000  0.68851000  1.0 -0.1009460472
C  C148  1  0.85900000  0.99705000  0.71307000  1.0 -0.1186205033
C  C149  1  0.75411000  0.96487000  0.74954000  1.0 0.0580971617
C  C150  1  0.58539000  0.71377000  0.84964000  1.0 -0.1085742773
C  C151  1  0.63706000  0.91003000  0.82790000  1.0 0.0810370919
C  C152  1  0.64668000  0.96764000  0.85009000  1.0 -0.210394415
C  C153  1  0.72225000  0.93063000  0.72134000  1.0 -0.1608230449
C  C154  1  0.82580000  0.96461000  0.68436000  1.0 -0.0298616412
C  C155  1  0.62040000  0.77476000  0.83468000  1.0 -0.1754593604
C  C156  1  0.72565000  0.02586000  0.80751000  1.0 -0.210394415
C  C157  1  0.59376000  0.84542000  0.84107000  1.0 0.0580971617
C  C158  1  0.82268000  0.99968000  0.74521000  1.0 -0.1671327041
C  C159  1  0.49257000  0.79265000  0.87349000  1.0 -0.0766866264
C  C160  1  0.71642000  0.96534000  0.78455000  1.0 0.0810370919
C  C161  1  0.53050000  0.85275000  0.86018000  1.0 -0.1608230449
C  C162  1  0.67151000  0.90744000  0.79542000  1.0 -0.210394415
C  C163  1  0.53802000  0.36330000  0.14971000  1.0 0.6041370075
C  C164  1  0.28976000  0.21743000  0.40981000  1.0 0.0196605582
C  C165  1  0.27940000  0.21754000  0.37372000  1.0 -0.1009460472
C  C166  1  0.36032000  0.20956000  0.42337000  1.0 -0.0464138276
C  C167  1  0.33949000  0.21054000  0.35098000  1.0 -0.1671327041
C  C168  1  0.77743000  0.02111000  0.36942000  1.0 -0.0095731379
C  C169  1  0.22525000  0.21417000  0.43362000  1.0 0.537389588
C  C170  1  0.41914000  0.20390000  0.40106000  1.0 -0.1608230449
C  C171  1  0.84317000  0.98687000  0.38522000  1.0 0.5876134749
C  C172  1  0.40870000  0.20233000  0.36407000  1.0 0.0267386306
C  C173  1  0.47170000  0.19094000  0.34028000  1.0 0.0878161465
C  C174  1  0.56890000  0.25666000  0.18851000  1.0 -0.1009460472
C  C175  1  0.50295000  0.35900000  0.21307000  1.0 -0.1186205033
C  C176  1  0.53513000  0.25411000  0.24954000  1.0 0.0580971617
C  C177  1  0.78623000  0.08539000  0.34964000  1.0 -0.1085742773
C  C178  1  0.58997000  0.13706000  0.32790000  1.0 0.0810370919
C  C179  1  0.53236000  0.14668000  0.35009000  1.0 -0.210394415
C  C180  1  0.56937000  0.22225000  0.22134000  1.0 -0.1608230449
C  C181  1  0.53539000  0.32580000  0.18436000  1.0 -0.0298616412
C  C182  1  0.72524000  0.12040000  0.33468000  1.0 -0.1754593604
C  C183  1  0.47414000  0.22565000  0.30751000  1.0 -0.210394415
C  C184  1  0.65458000  0.09376000  0.34107000  1.0 0.0580971617
C  C185  1  0.50032000  0.32268000  0.24521000  1.0 -0.1671327041
C  C186  1  0.70735000  0.99257000  0.37349000  1.0 -0.0766866264
C  C187  1  0.53466000  0.21642000  0.28455000  1.0 0.0810370919
C  C188  1  0.64725000  0.03050000  0.36018000  1.0 -0.1608230449
C  C189  1  0.59256000  0.17151000  0.29542000  1.0 -0.210394415
C  C190  1  0.46198000  0.63670000  0.14971000  1.0 0.6041370075
C  C191  1  0.71024000  0.78257000  0.40981000  1.0 0.0267386306
C  C192  1  0.72060000  0.78246000  0.37372000  1.0 -0.1009460472
C  C193  1  0.63968000  0.79044000  0.42337000  1.0 -0.044616792
C  C194  1  0.66051000  0.78946000  0.35098000  1.0 -0.1671327041
C  C195  1  0.22257000  0.97889000  0.36942000  1.0 -0.0095731379
C  C196  1  0.77475000  0.78583000  0.43362000  1.0 0.537389588
C  C197  1  0.58086000  0.79610000  0.40106000  1.0 -0.1608230449
C  C198  1  0.15683000  0.01313000  0.38522000  1.0 0.5876134749
C  C199  1  0.59130000  0.79767000  0.36407000  1.0 0.0267386306
C  C200  1  0.52830000  0.80906000  0.34028000  1.0 0.0878161465
C  C201  1  0.43110000  0.74334000  0.18851000  1.0 -0.1009460472
C  C202  1  0.49705000  0.64100000  0.21307000  1.0 -0.1186205033
C  C203  1  0.46487000  0.74589000  0.24954000  1.0 0.0580971617
C  C204  1  0.21377000  0.91461000  0.34964000  1.0 -0.1085742773
C  C205  1  0.41003000  0.86294000  0.32790000  1.0 0.0810370919
C  C206  1  0.46764000  0.85332000  0.35009000  1.0 -0.210394415
C  C207  1  0.43063000  0.77775000  0.22134000  1.0 -0.1608230449
C  C208  1  0.46461000  0.67420000  0.18436000  1.0 -0.0298616412
C  C209  1  0.27476000  0.87960000  0.33468000  1.0 -0.1754593604
C  C210  1  0.52586000  0.77435000  0.30751000  1.0 -0.210394415
C  C211  1  0.34542000  0.90624000  0.34107000  1.0 0.0580971617
C  C212  1  0.49968000  0.67732000  0.24521000  1.0 -0.1671327041
C  C213  1  0.29265000  0.00743000  0.37349000  1.0 -0.0766866264
C  C214  1  0.46534000  0.78358000  0.28455000  1.0 0.0810370919
C  C215  1  0.35275000  0.96950000  0.36018000  1.0 -0.1608230449
C  C216  1  0.40744000  0.82849000  0.29542000  1.0 -0.210394415
C  C217  1  0.24900000  0.54250000  0.96950000  0.45 0.1498749495
C  C218  1  0.75100000  0.45750000  0.96950000  0.45 0.1498749495
C  C219  1  0.95750000  0.74900000  0.46950000  0.45 0.1498749495
C  C220  1  0.04250000  0.25100000  0.46950000  0.45 0.1498749495
C  C221  1  0.25100000  0.04250000  0.53050000  0.45 0.1498749495
C  C222  1  0.74900000  0.95750000  0.53050000  0.45 0.1498749495
C  C223  1  0.54250000  0.24900000  0.03050000  0.45 0.1498749495
C  C224  1  0.45750000  0.75100000  0.03050000  0.45 0.1498749495
O  O1  1  0.42938000  0.51725000  0.92178000  1.0 -0.8642122332
O  O2  1  0.32614000  0.55938000  0.87647000  1.0 -0.5039130446
O  O3  1  0.38937000  0.62646000  0.96495000  1.0 -0.6592073474
O  O4  1  0.43070000  0.51755000  0.85081000  1.0 -0.5903771554
O  O5  1  0.92413000  0.83926000  0.60219000  1.0 -0.489666593
O  O6  1  0.21319000  0.16236000  0.58092000  1.0 -0.489666593
O  O7  1  0.02635000  0.90126000  0.61547000  1.0 -0.5635509003
O  O8  1  0.28956000  0.52460000  0.94242000  1.0 -0.3984790106
O  O9  1  0.21009000  0.23605000  0.53337000  1.0 -0.4254083816
O  O10  1  0.25544000  0.59862000  0.99175000  1.0 -0.3608522635
O  O11  1  0.57062000  0.48275000  0.92178000  1.0 -0.8642122332
O  O12  1  0.67386000  0.44062000  0.87647000  1.0 -0.5039130446
O  O13  1  0.61063000  0.37354000  0.96495000  1.0 -0.6592073474
O  O14  1  0.56930000  0.48245000  0.85081000  1.0 -0.5903771554
O  O15  1  0.07587000  0.16074000  0.60219000  1.0 -0.489666593
O  O16  1  0.78681000  0.83764000  0.58092000  1.0 -0.48447125
O  O17  1  0.97365000  0.09874000  0.61547000  1.0 -0.5635509003
O  O18  1  0.71044000  0.47540000  0.94242000  1.0 -0.3984790106
O  O19  1  0.78991000  0.76395000  0.53337000  1.0 -0.4245583896
O  O20  1  0.74456000  0.40138000  0.99175000  1.0 -0.3608522635
O  O21  1  0.98275000  0.92938000  0.42178000  1.0 -0.8642122332
O  O22  1  0.94062000  0.82614000  0.37647000  1.0 -0.5039130446
O  O23  1  0.87354000  0.88937000  0.46495000  1.0 -0.6592073474
O  O24  1  0.98245000  0.93070000  0.35081000  1.0 -0.5903771554
O  O25  1  0.66074000  0.42413000  0.10219000  1.0 -0.489666593
O  O26  1  0.33764000  0.71319000  0.08092000  1.0 -0.489666593
O  O27  1  0.59874000  0.52635000  0.11547000  1.0 -0.5635509003
O  O28  1  0.97540000  0.78956000  0.44242000  1.0 -0.3984790106
O  O29  1  0.26395000  0.71009000  0.03337000  1.0 -0.4254083816
O  O30  1  0.90138000  0.75544000  0.49175000  1.0 -0.3608522635
O  O31  1  0.01725000  0.07062000  0.42178000  1.0 -0.8642122332
O  O32  1  0.05938000  0.17386000  0.37647000  1.0 -0.5039130446
O  O33  1  0.12646000  0.11063000  0.46495000  1.0 -0.6592073474
O  O34  1  0.01755000  0.06930000  0.35081000  1.0 -0.5903771554
O  O35  1  0.33926000  0.57587000  0.10219000  1.0 -0.489666593
O  O36  1  0.66236000  0.28681000  0.08092000  1.0 -0.489666593
O  O37  1  0.40126000  0.47365000  0.11547000  1.0 -0.5635509003
O  O38  1  0.02460000  0.21044000  0.44242000  1.0 -0.3984790106
O  O39  1  0.73605000  0.28991000  0.03337000  1.0 -0.4254083816
O  O40  1  0.09862000  0.24456000  0.49175000  1.0 -0.3608522635
O  O41  1  0.07062000  0.01725000  0.57822000  1.0 -0.8642122332
O  O42  1  0.17386000  0.05938000  0.62353000  1.0 -0.5039130446
O  O43  1  0.11063000  0.12646000  0.53505000  1.0 -0.6592073474
O  O44  1  0.06930000  0.01755000  0.64919000  1.0 -0.5903771554
O  O45  1  0.57587000  0.33926000  0.89781000  1.0 -0.489666593
O  O46  1  0.28681000  0.66236000  0.91908000  1.0 -0.489666593
O  O47  1  0.47365000  0.40126000  0.88453000  1.0 -0.5635509003
O  O48  1  0.21044000  0.02460000  0.55758000  1.0 -0.3984790106
O  O49  1  0.28991000  0.73605000  0.96663000  1.0 -0.4245583896
O  O50  1  0.24456000  0.09862000  0.50825000  1.0 -0.3608522635
O  O51  1  0.92938000  0.98275000  0.57822000  1.0 -0.8642122332
O  O52  1  0.82614000  0.94062000  0.62353000  1.0 -0.5039130446
O  O53  1  0.88937000  0.87354000  0.53505000  1.0 -0.6592073474
O  O54  1  0.93070000  0.98245000  0.64919000  1.0 -0.5903771554
O  O55  1  0.42413000  0.66074000  0.89781000  1.0 -0.489666593
O  O56  1  0.71319000  0.33764000  0.91908000  1.0 -0.489666593
O  O57  1  0.52635000  0.59874000  0.88453000  1.0 -0.5635509003
O  O58  1  0.78956000  0.97540000  0.55758000  1.0 -0.3984790106
O  O59  1  0.71009000  0.26395000  0.96663000  1.0 -0.4254083816
O  O60  1  0.75544000  0.90138000  0.50825000  1.0 -0.3608522635
O  O61  1  0.51725000  0.42938000  0.07822000  1.0 -0.8642122332
O  O62  1  0.55938000  0.32614000  0.12353000  1.0 -0.5039130446
O  O63  1  0.62646000  0.38937000  0.03505000  1.0 -0.6592073474
O  O64  1  0.51755000  0.43070000  0.14919000  1.0 -0.5903771554
O  O65  1  0.83926000  0.92413000  0.39781000  1.0 -0.489666593
O  O66  1  0.16236000  0.21319000  0.41908000  1.0 -0.489666593
O  O67  1  0.90126000  0.02635000  0.38453000  1.0 -0.5635509003
O  O68  1  0.52460000  0.28956000  0.05758000  1.0 -0.3984790106
O  O69  1  0.23605000  0.21009000  0.46663000  1.0 -0.4245583896
O  O70  1  0.59862000  0.25544000  0.00825000  1.0 -0.3608522635
O  O71  1  0.48275000  0.57062000  0.07822000  1.0 -0.8642122332
O  O72  1  0.44062000  0.67386000  0.12353000  1.0 -0.5039130446
O  O73  1  0.37354000  0.61063000  0.03505000  1.0 -0.6592073474
O  O74  1  0.48245000  0.56930000  0.14919000  1.0 -0.5903771554
O  O75  1  0.16074000  0.07587000  0.39781000  1.0 -0.489666593
O  O76  1  0.83764000  0.78681000  0.41908000  1.0 -0.48447125
O  O77  1  0.09874000  0.97365000  0.38453000  1.0 -0.5635509003
O  O78  1  0.47540000  0.71044000  0.05758000  1.0 -0.3984790106
O  O79  1  0.76395000  0.78991000  0.46663000  1.0 -0.4245583896
O  O80  1  0.40138000  0.74456000  0.00825000  1.0 -0.3608522635
O  O81  1  0.21100000  0.46940000  0.98770000  0.23 -0.0243915223
O  O82  1  0.78900000  0.53060000  0.98770000  0.23 -0.0298616412
O  O83  1  0.03060000  0.71100000  0.48770000  0.23 -0.0298616412
O  O84  1  0.96940000  0.28900000  0.48770000  0.23 -0.0243915223
O  O85  1  0.28900000  0.96940000  0.51230000  0.23 -0.0243915223
O  O86  1  0.71100000  0.03060000  0.51230000  0.23 -0.0298616412
O  O87  1  0.46940000  0.21100000  0.01230000  0.23 -0.0243915223
O  O88  1  0.53060000  0.78900000  0.01230000  0.23 -0.0298616412
O  O89  1  0.18610000  0.49030000  0.97940000  0.32 -0.1009460472
O  O90  1  0.81390000  0.50970000  0.97940000  0.32 -0.1009460472
O  O91  1  0.00970000  0.68610000  0.47940000  0.32 -0.1009460472
O  O92  1  0.99030000  0.31390000  0.47940000  0.32 -0.1009460472
O  O93  1  0.31390000  0.99030000  0.52060000  0.32 -0.1009460472
O  O94  1  0.68610000  0.00970000  0.52060000  0.32 -0.1009460472
O  O95  1  0.49030000  0.18610000  0.02060000  0.32 -0.1009460472
O  O96  1  0.50970000  0.81390000  0.02060000  0.32 -0.1009460472
