# DDEC6 charges by PACMAN v1.1 (https://github.com/mtap-research/PACMAN-charge/)
data_ja5b00365_si_002_3_FSR_pacman
_symmetry_space_group_name_H-M   'P 1'
_cell_length_a   29.93630000
_cell_length_b   29.93630000
_cell_length_c   29.93630000
_cell_angle_alpha   90.00000000
_cell_angle_beta   90.00000000
_cell_angle_gamma   90.00000000
_symmetry_Int_Tables_number   1
_chemical_formula_structural   Zn4H90C83O13
_chemical_formula_sum   'Zn24 H540.0 C498 O78'
_cell_volume   26828.37493363
_cell_formula_units_Z   6
loop_
 _symmetry_equiv_pos_site_id
 _symmetry_equiv_pos_as_xyz
  1  'x, y, z'
loop_
 _atom_site_type_symbol
 _atom_site_label
 _atom_site_symmetry_multiplicity
 _atom_site_fract_x
 _atom_site_fract_y
 _atom_site_fract_z
 _atom_site_occupancy
 _atom_site_charge
Zn  Zn1  1  0.32269000  0.00000000  0.44665000  1.0 0.9530395441
Zn  Zn2  1  0.44665000  0.32269000  0.00000000  1.0 0.9530395441
Zn  Zn3  1  0.00000000  0.44665000  0.32269000  1.0 0.9530395441
Zn  Zn4  1  0.00000000  0.55335000  0.32269000  1.0 0.9530395441
Zn  Zn5  1  0.44665000  0.67731000  0.00000000  1.0 0.9530395441
Zn  Zn6  1  0.00000000  0.44665000  0.67731000  1.0 0.9530395441
Zn  Zn7  1  0.55335000  0.67731000  0.00000000  1.0 0.9530395441
Zn  Zn8  1  0.55335000  0.32269000  0.00000000  1.0 0.9530395441
Zn  Zn9  1  0.00000000  0.55335000  0.67731000  1.0 0.9530395441
Zn  Zn10  1  0.67731000  0.00000000  0.44665000  1.0 0.9530395441
Zn  Zn11  1  0.32269000  0.00000000  0.55335000  1.0 0.9530395441
Zn  Zn12  1  0.67731000  0.00000000  0.55335000  1.0 0.9530395441
Zn  Zn13  1  0.24861000  0.05319000  0.50000000  1.0 0.9530395441
Zn  Zn14  1  0.50000000  0.24861000  0.05319000  1.0 0.9530395441
Zn  Zn15  1  0.05319000  0.50000000  0.24861000  1.0 0.9530395441
Zn  Zn16  1  0.94681000  0.50000000  0.24861000  1.0 0.9530395441
Zn  Zn17  1  0.50000000  0.75139000  0.94681000  1.0 0.9530395441
Zn  Zn18  1  0.94681000  0.50000000  0.75139000  1.0 0.9530395441
Zn  Zn19  1  0.50000000  0.75139000  0.05319000  1.0 0.9530395441
Zn  Zn20  1  0.50000000  0.24861000  0.94681000  1.0 0.9530395441
Zn  Zn21  1  0.05319000  0.50000000  0.75139000  1.0 0.9530395441
Zn  Zn22  1  0.75139000  0.94681000  0.50000000  1.0 0.9530395441
Zn  Zn23  1  0.24861000  0.94681000  0.50000000  1.0 0.9530395441
Zn  Zn24  1  0.75139000  0.05319000  0.50000000  1.0 0.9530395441
H  H1  1  0.46120000  0.00000000  0.43350000  1.0 0.1286723831
H  H2  1  0.43350000  0.46120000  0.00000000  1.0 0.1286723831
H  H3  1  0.00000000  0.43350000  0.46120000  1.0 0.1286723831
H  H4  1  0.00000000  0.56650000  0.46120000  1.0 0.1286723831
H  H5  1  0.43350000  0.53880000  0.00000000  1.0 0.1286723831
H  H6  1  0.00000000  0.43350000  0.53880000  1.0 0.1286723831
H  H7  1  0.56650000  0.53880000  0.00000000  1.0 0.1286723831
H  H8  1  0.56650000  0.46120000  0.00000000  1.0 0.1286723831
H  H9  1  0.00000000  0.56650000  0.53880000  1.0 0.1286723831
H  H10  1  0.53880000  0.00000000  0.43350000  1.0 0.1286723831
H  H11  1  0.46120000  0.00000000  0.56650000  1.0 0.1286723831
H  H12  1  0.53880000  0.00000000  0.56650000  1.0 0.1286723831
H  H13  1  0.23230000  0.15300000  0.40210000  1.0 0.1413459581
H  H14  1  0.40210000  0.23230000  0.15300000  1.0 0.1413459581
H  H15  1  0.15300000  0.40210000  0.23230000  1.0 0.1413459581
H  H16  1  0.84700000  0.59790000  0.23230000  1.0 0.1413459581
H  H17  1  0.40210000  0.76770000  0.84700000  1.0 0.1413459581
H  H18  1  0.84700000  0.40210000  0.76770000  1.0 0.1413459581
H  H19  1  0.59790000  0.76770000  0.15300000  1.0 0.1413459581
H  H20  1  0.59790000  0.23230000  0.84700000  1.0 0.1413459581
H  H21  1  0.15300000  0.59790000  0.76770000  1.0 0.1413459581
H  H22  1  0.76770000  0.84700000  0.40210000  1.0 0.1413459581
H  H23  1  0.23230000  0.84700000  0.59790000  1.0 0.1413459581
H  H24  1  0.76770000  0.15300000  0.59790000  1.0 0.1413459581
H  H25  1  0.76770000  0.84700000  0.59790000  1.0 0.1413459581
H  H26  1  0.59790000  0.76770000  0.84700000  1.0 0.1413459581
H  H27  1  0.84700000  0.59790000  0.76770000  1.0 0.1413459581
H  H28  1  0.15300000  0.40210000  0.76770000  1.0 0.1413459581
H  H29  1  0.59790000  0.23230000  0.15300000  1.0 0.1413459581
H  H30  1  0.15300000  0.59790000  0.23230000  1.0 0.1413459581
H  H31  1  0.40210000  0.23230000  0.84700000  1.0 0.1413459581
H  H32  1  0.40210000  0.76770000  0.15300000  1.0 0.1413459581
H  H33  1  0.84700000  0.40210000  0.23230000  1.0 0.1413459581
H  H34  1  0.23230000  0.15300000  0.59790000  1.0 0.1413459581
H  H35  1  0.76770000  0.15300000  0.40210000  1.0 0.1413459581
H  H36  1  0.23230000  0.84700000  0.40210000  1.0 0.1413459581
H  H37  1  0.33910000  0.09580000  0.34590000  1.0 0.1286723831
H  H38  1  0.34590000  0.33910000  0.09580000  1.0 0.1286723831
H  H39  1  0.09580000  0.34590000  0.33910000  1.0 0.1286723831
H  H40  1  0.90420000  0.65410000  0.33910000  1.0 0.1286723831
H  H41  1  0.34590000  0.66090000  0.90420000  1.0 0.1286723831
H  H42  1  0.90420000  0.34590000  0.66090000  1.0 0.1286723831
H  H43  1  0.65410000  0.66090000  0.09580000  1.0 0.1286723831
H  H44  1  0.65410000  0.33910000  0.90420000  1.0 0.1286723831
H  H45  1  0.09580000  0.65410000  0.66090000  1.0 0.1286723831
H  H46  1  0.66090000  0.90420000  0.34590000  1.0 0.1286723831
H  H47  1  0.33910000  0.90420000  0.65410000  1.0 0.1286723831
H  H48  1  0.66090000  0.09580000  0.65410000  1.0 0.1286723831
H  H49  1  0.66090000  0.90420000  0.65410000  1.0 0.1286723831
H  H50  1  0.65410000  0.66090000  0.90420000  1.0 0.1286723831
H  H51  1  0.90420000  0.65410000  0.66090000  1.0 0.1286723831
H  H52  1  0.09580000  0.34590000  0.66090000  1.0 0.1286723831
H  H53  1  0.65410000  0.33910000  0.09580000  1.0 0.1286723831
H  H54  1  0.09580000  0.65410000  0.33910000  1.0 0.1286723831
H  H55  1  0.34590000  0.33910000  0.90420000  1.0 0.1286723831
H  H56  1  0.34590000  0.66090000  0.09580000  1.0 0.1286723831
H  H57  1  0.90420000  0.34590000  0.33910000  1.0 0.1286723831
H  H58  1  0.33910000  0.09580000  0.65410000  1.0 0.1286723831
H  H59  1  0.66090000  0.09580000  0.34590000  1.0 0.1286723831
H  H60  1  0.33910000  0.90420000  0.34590000  1.0 0.1286723831
H  H61  1  0.34000000  0.14990000  0.29100000  1.0 0.1186318636
H  H62  1  0.29100000  0.34000000  0.14990000  1.0 0.1186318636
H  H63  1  0.14990000  0.29100000  0.34000000  1.0 0.1186318636
H  H64  1  0.85010000  0.70900000  0.34000000  1.0 0.1186318636
H  H65  1  0.29100000  0.66000000  0.85010000  1.0 0.1186318636
H  H66  1  0.85010000  0.29100000  0.66000000  1.0 0.1186318636
H  H67  1  0.70900000  0.66000000  0.14990000  1.0 0.1186318636
H  H68  1  0.70900000  0.34000000  0.85010000  1.0 0.1186318636
H  H69  1  0.14990000  0.70900000  0.66000000  1.0 0.1186318636
H  H70  1  0.66000000  0.85010000  0.29100000  1.0 0.1186318636
H  H71  1  0.34000000  0.85010000  0.70900000  1.0 0.1186318636
H  H72  1  0.66000000  0.14990000  0.70900000  1.0 0.1186318636
H  H73  1  0.66000000  0.85010000  0.70900000  1.0 0.1186318636
H  H74  1  0.70900000  0.66000000  0.85010000  1.0 0.1186318636
H  H75  1  0.85010000  0.70900000  0.66000000  1.0 0.1186318636
H  H76  1  0.14990000  0.29100000  0.66000000  1.0 0.1186318636
H  H77  1  0.70900000  0.34000000  0.14990000  1.0 0.1186318636
H  H78  1  0.14990000  0.70900000  0.34000000  1.0 0.1186318636
H  H79  1  0.29100000  0.34000000  0.85010000  1.0 0.1186318636
H  H80  1  0.29100000  0.66000000  0.14990000  1.0 0.1186318636
H  H81  1  0.85010000  0.29100000  0.34000000  1.0 0.1186318636
H  H82  1  0.34000000  0.14990000  0.70900000  1.0 0.1186318636
H  H83  1  0.66000000  0.14990000  0.29100000  1.0 0.1186318636
H  H84  1  0.34000000  0.85010000  0.29100000  1.0 0.1186318636
H  H85  1  0.20060000  0.27530000  0.37890000  1.0 0.1077314114
H  H86  1  0.37890000  0.20060000  0.27530000  1.0 0.1077314114
H  H87  1  0.27530000  0.37890000  0.20060000  1.0 0.1077314114
H  H88  1  0.72470000  0.62110000  0.20060000  1.0 0.1077314114
H  H89  1  0.37890000  0.79940000  0.72470000  1.0 0.1077314114
H  H90  1  0.72470000  0.37890000  0.79940000  1.0 0.1077314114
H  H91  1  0.62110000  0.79940000  0.27530000  1.0 0.1077314114
H  H92  1  0.62110000  0.20060000  0.72470000  1.0 0.1077314114
H  H93  1  0.27530000  0.62110000  0.79940000  1.0 0.1077314114
H  H94  1  0.79940000  0.72470000  0.37890000  1.0 0.1077314114
H  H95  1  0.20060000  0.72470000  0.62110000  1.0 0.1077314114
H  H96  1  0.79940000  0.27530000  0.62110000  1.0 0.1077314114
H  H97  1  0.79940000  0.72470000  0.62110000  1.0 0.1077314114
H  H98  1  0.62110000  0.79940000  0.72470000  1.0 0.1077314114
H  H99  1  0.72470000  0.62110000  0.79940000  1.0 0.1077314114
H  H100  1  0.27530000  0.37890000  0.79940000  1.0 0.1077314114
H  H101  1  0.62110000  0.20060000  0.27530000  1.0 0.1077314114
H  H102  1  0.27530000  0.62110000  0.20060000  1.0 0.1077314114
H  H103  1  0.37890000  0.20060000  0.72470000  1.0 0.1077314114
H  H104  1  0.37890000  0.79940000  0.27530000  1.0 0.1077314114
H  H105  1  0.72470000  0.37890000  0.20060000  1.0 0.1077314114
H  H106  1  0.20060000  0.27530000  0.62110000  1.0 0.1077314114
H  H107  1  0.79940000  0.27530000  0.37890000  1.0 0.1077314114
H  H108  1  0.20060000  0.72470000  0.37890000  1.0 0.1077314114
H  H109  1  0.21440000  0.23410000  0.40820000  1.0 0.1186318636
H  H110  1  0.40820000  0.21440000  0.23410000  1.0 0.1186318636
H  H111  1  0.23410000  0.40820000  0.21440000  1.0 0.1186318636
H  H112  1  0.76590000  0.59180000  0.21440000  1.0 0.1186318636
H  H113  1  0.40820000  0.78560000  0.76590000  1.0 0.1186318636
H  H114  1  0.76590000  0.40820000  0.78560000  1.0 0.1186318636
H  H115  1  0.59180000  0.78560000  0.23410000  1.0 0.1186318636
H  H116  1  0.59180000  0.21440000  0.76590000  1.0 0.1186318636
H  H117  1  0.23410000  0.59180000  0.78560000  1.0 0.1186318636
H  H118  1  0.78560000  0.76590000  0.40820000  1.0 0.1186318636
H  H119  1  0.21440000  0.76590000  0.59180000  1.0 0.1186318636
H  H120  1  0.78560000  0.23410000  0.59180000  1.0 0.1186318636
H  H121  1  0.78560000  0.76590000  0.59180000  1.0 0.1186318636
H  H122  1  0.59180000  0.78560000  0.76590000  1.0 0.1186318636
H  H123  1  0.76590000  0.59180000  0.78560000  1.0 0.1186318636
H  H124  1  0.23410000  0.40820000  0.78560000  1.0 0.1186318636
H  H125  1  0.59180000  0.21440000  0.23410000  1.0 0.1186318636
H  H126  1  0.23410000  0.59180000  0.21440000  1.0 0.1186318636
H  H127  1  0.40820000  0.21440000  0.76590000  1.0 0.1186318636
H  H128  1  0.40820000  0.78560000  0.23410000  1.0 0.1186318636
H  H129  1  0.76590000  0.40820000  0.21440000  1.0 0.1186318636
H  H130  1  0.21440000  0.23410000  0.59180000  1.0 0.1186318636
H  H131  1  0.78560000  0.23410000  0.40820000  1.0 0.1186318636
H  H132  1  0.21440000  0.76590000  0.40820000  1.0 0.1186318636
H  H133  1  0.19120000  0.14780000  0.29540000  1.0 0.098743594
H  H134  1  0.29540000  0.19120000  0.14780000  1.0 0.098743594
H  H135  1  0.14780000  0.29540000  0.19120000  1.0 0.098743594
H  H136  1  0.85220000  0.70460000  0.19120000  1.0 0.098743594
H  H137  1  0.29540000  0.80880000  0.85220000  1.0 0.098743594
H  H138  1  0.85220000  0.29540000  0.80880000  1.0 0.098743594
H  H139  1  0.70460000  0.80880000  0.14780000  1.0 0.098743594
H  H140  1  0.70460000  0.19120000  0.85220000  1.0 0.098743594
H  H141  1  0.14780000  0.70460000  0.80880000  1.0 0.098743594
H  H142  1  0.80880000  0.85220000  0.29540000  1.0 0.098743594
H  H143  1  0.19120000  0.85220000  0.70460000  1.0 0.098743594
H  H144  1  0.80880000  0.14780000  0.70460000  1.0 0.098743594
H  H145  1  0.80880000  0.85220000  0.70460000  1.0 0.098743594
H  H146  1  0.70460000  0.80880000  0.85220000  1.0 0.098743594
H  H147  1  0.85220000  0.70460000  0.80880000  1.0 0.098743594
H  H148  1  0.14780000  0.29540000  0.80880000  1.0 0.098743594
H  H149  1  0.70460000  0.19120000  0.14780000  1.0 0.098743594
H  H150  1  0.14780000  0.70460000  0.19120000  1.0 0.098743594
H  H151  1  0.29540000  0.19120000  0.85220000  1.0 0.098743594
H  H152  1  0.29540000  0.80880000  0.14780000  1.0 0.098743594
H  H153  1  0.85220000  0.29540000  0.19120000  1.0 0.098743594
H  H154  1  0.19120000  0.14780000  0.70460000  1.0 0.098743594
H  H155  1  0.80880000  0.14780000  0.29540000  1.0 0.098743594
H  H156  1  0.19120000  0.85220000  0.29540000  1.0 0.098743594
H  H157  1  0.17510000  0.18890000  0.26700000  1.0 0.0894552754
H  H158  1  0.26700000  0.17510000  0.18890000  1.0 0.0894552754
H  H159  1  0.18890000  0.26700000  0.17510000  1.0 0.0894552754
H  H160  1  0.81110000  0.73300000  0.17510000  1.0 0.0894552754
H  H161  1  0.26700000  0.82490000  0.81110000  1.0 0.0894552754
H  H162  1  0.81110000  0.26700000  0.82490000  1.0 0.0894552754
H  H163  1  0.73300000  0.82490000  0.18890000  1.0 0.0894552754
H  H164  1  0.73300000  0.17510000  0.81110000  1.0 0.0894552754
H  H165  1  0.18890000  0.73300000  0.82490000  1.0 0.0894552754
H  H166  1  0.82490000  0.81110000  0.26700000  1.0 0.0894552754
H  H167  1  0.17510000  0.81110000  0.73300000  1.0 0.0894552754
H  H168  1  0.82490000  0.18890000  0.73300000  1.0 0.0894552754
H  H169  1  0.82490000  0.81110000  0.73300000  1.0 0.0894552754
H  H170  1  0.73300000  0.82490000  0.81110000  1.0 0.0894552754
H  H171  1  0.81110000  0.73300000  0.82490000  1.0 0.0894552754
H  H172  1  0.18890000  0.26700000  0.82490000  1.0 0.0894552754
H  H173  1  0.73300000  0.17510000  0.18890000  1.0 0.0894552754
H  H174  1  0.18890000  0.73300000  0.17510000  1.0 0.0894552754
H  H175  1  0.26700000  0.17510000  0.81110000  1.0 0.0894552754
H  H176  1  0.26700000  0.82490000  0.18890000  1.0 0.0894552754
H  H177  1  0.81110000  0.26700000  0.17510000  1.0 0.0894552754
H  H178  1  0.17510000  0.18890000  0.73300000  1.0 0.0894552754
H  H179  1  0.82490000  0.18890000  0.26700000  1.0 0.0894552754
H  H180  1  0.17510000  0.81110000  0.26700000  1.0 0.0894552754
H  H181  1  0.16660000  0.18440000  0.36110000  1.0 0.1186318636
H  H182  1  0.36110000  0.16660000  0.18440000  1.0 0.1186318636
H  H183  1  0.18440000  0.36110000  0.16660000  1.0 0.1186318636
H  H184  1  0.81560000  0.63890000  0.16660000  1.0 0.1186318636
H  H185  1  0.36110000  0.83340000  0.81560000  1.0 0.1186318636
H  H186  1  0.81560000  0.36110000  0.83340000  1.0 0.1186318636
H  H187  1  0.63890000  0.83340000  0.18440000  1.0 0.1186318636
H  H188  1  0.63890000  0.16660000  0.81560000  1.0 0.1186318636
H  H189  1  0.18440000  0.63890000  0.83340000  1.0 0.1186318636
H  H190  1  0.83340000  0.81560000  0.36110000  1.0 0.1186318636
H  H191  1  0.16660000  0.81560000  0.63890000  1.0 0.1186318636
H  H192  1  0.83340000  0.18440000  0.63890000  1.0 0.1186318636
H  H193  1  0.83340000  0.81560000  0.63890000  1.0 0.1186318636
H  H194  1  0.63890000  0.83340000  0.81560000  1.0 0.1186318636
H  H195  1  0.81560000  0.63890000  0.83340000  1.0 0.1186318636
H  H196  1  0.18440000  0.36110000  0.83340000  1.0 0.1186318636
H  H197  1  0.63890000  0.16660000  0.18440000  1.0 0.1186318636
H  H198  1  0.18440000  0.63890000  0.16660000  1.0 0.1186318636
H  H199  1  0.36110000  0.16660000  0.81560000  1.0 0.1186318636
H  H200  1  0.36110000  0.83340000  0.18440000  1.0 0.1186318636
H  H201  1  0.81560000  0.36110000  0.16660000  1.0 0.1186318636
H  H202  1  0.16660000  0.18440000  0.63890000  1.0 0.1186318636
H  H203  1  0.83340000  0.18440000  0.36110000  1.0 0.1186318636
H  H204  1  0.16660000  0.81560000  0.36110000  1.0 0.1186318636
H  H205  1  0.15270000  0.22580000  0.33230000  1.0 0.1077314114
H  H206  1  0.33230000  0.15270000  0.22580000  1.0 0.1077314114
H  H207  1  0.22580000  0.33230000  0.15270000  1.0 0.1077314114
H  H208  1  0.77420000  0.66770000  0.15270000  1.0 0.1077314114
H  H209  1  0.33230000  0.84730000  0.77420000  1.0 0.1077314114
H  H210  1  0.77420000  0.33230000  0.84730000  1.0 0.1077314114
H  H211  1  0.66770000  0.84730000  0.22580000  1.0 0.1077314114
H  H212  1  0.66770000  0.15270000  0.77420000  1.0 0.1077314114
H  H213  1  0.22580000  0.66770000  0.84730000  1.0 0.1077314114
H  H214  1  0.84730000  0.77420000  0.33230000  1.0 0.1077314114
H  H215  1  0.15270000  0.77420000  0.66770000  1.0 0.1077314114
H  H216  1  0.84730000  0.22580000  0.66770000  1.0 0.1077314114
H  H217  1  0.84730000  0.77420000  0.66770000  1.0 0.1077314114
H  H218  1  0.66770000  0.84730000  0.77420000  1.0 0.1077314114
H  H219  1  0.77420000  0.66770000  0.84730000  1.0 0.1077314114
H  H220  1  0.22580000  0.33230000  0.84730000  1.0 0.1077314114
H  H221  1  0.66770000  0.15270000  0.22580000  1.0 0.1077314114
H  H222  1  0.22580000  0.66770000  0.15270000  1.0 0.1077314114
H  H223  1  0.33230000  0.15270000  0.77420000  1.0 0.1077314114
H  H224  1  0.33230000  0.84730000  0.22580000  1.0 0.1077314114
H  H225  1  0.77420000  0.33230000  0.15270000  1.0 0.1077314114
H  H226  1  0.15270000  0.22580000  0.66770000  1.0 0.1077314114
H  H227  1  0.84730000  0.22580000  0.33230000  1.0 0.1077314114
H  H228  1  0.15270000  0.77420000  0.33230000  1.0 0.1077314114
H  H229  1  0.11000000  0.06540000  0.50000000  1.0 0.1413459581
H  H230  1  0.50000000  0.11000000  0.06540000  1.0 0.1413459581
H  H231  1  0.06540000  0.50000000  0.11000000  1.0 0.1413459581
H  H232  1  0.93460000  0.50000000  0.11000000  1.0 0.1413459581
H  H233  1  0.50000000  0.89000000  0.93460000  1.0 0.1413459581
H  H234  1  0.93460000  0.50000000  0.89000000  1.0 0.1413459581
H  H235  1  0.50000000  0.89000000  0.06540000  1.0 0.1413459581
H  H236  1  0.50000000  0.11000000  0.93460000  1.0 0.1413459581
H  H237  1  0.06540000  0.50000000  0.89000000  1.0 0.1413459581
H  H238  1  0.89000000  0.93460000  0.50000000  1.0 0.1413459581
H  H239  1  0.11000000  0.93460000  0.50000000  1.0 0.1413459581
H  H240  1  0.89000000  0.06540000  0.50000000  1.0 0.1413459581
H  H241  1  0.27740000  0.28720000  0.36290000  1.0 0.098743594
H  H242  1  0.36290000  0.27740000  0.28720000  1.0 0.098743594
H  H243  1  0.28720000  0.36290000  0.27740000  1.0 0.098743594
H  H244  1  0.71280000  0.63710000  0.27740000  1.0 0.098743594
H  H245  1  0.36290000  0.72260000  0.71280000  1.0 0.098743594
H  H246  1  0.71280000  0.36290000  0.72260000  1.0 0.098743594
H  H247  1  0.63710000  0.72260000  0.28720000  1.0 0.098743594
H  H248  1  0.63710000  0.27740000  0.71280000  1.0 0.098743594
H  H249  1  0.28720000  0.63710000  0.72260000  1.0 0.098743594
H  H250  1  0.72260000  0.71280000  0.36290000  1.0 0.098743594
H  H251  1  0.27740000  0.71280000  0.63710000  1.0 0.098743594
H  H252  1  0.72260000  0.28720000  0.63710000  1.0 0.098743594
H  H253  1  0.72260000  0.71280000  0.63710000  1.0 0.098743594
H  H254  1  0.63710000  0.72260000  0.71280000  1.0 0.098743594
H  H255  1  0.71280000  0.63710000  0.72260000  1.0 0.098743594
H  H256  1  0.28720000  0.36290000  0.72260000  1.0 0.098743594
H  H257  1  0.63710000  0.27740000  0.28720000  1.0 0.098743594
H  H258  1  0.28720000  0.63710000  0.27740000  1.0 0.098743594
H  H259  1  0.36290000  0.27740000  0.71280000  1.0 0.098743594
H  H260  1  0.36290000  0.72260000  0.28720000  1.0 0.098743594
H  H261  1  0.71280000  0.36290000  0.27740000  1.0 0.098743594
H  H262  1  0.27740000  0.28720000  0.63710000  1.0 0.098743594
H  H263  1  0.72260000  0.28720000  0.36290000  1.0 0.098743594
H  H264  1  0.27740000  0.71280000  0.36290000  1.0 0.098743594
H  H265  1  0.28900000  0.24900000  0.39690000  1.0 0.098743594
H  H266  1  0.39690000  0.28900000  0.24900000  1.0 0.098743594
H  H267  1  0.24900000  0.39690000  0.28900000  1.0 0.098743594
H  H268  1  0.75100000  0.60310000  0.28900000  1.0 0.098743594
H  H269  1  0.39690000  0.71100000  0.75100000  1.0 0.098743594
H  H270  1  0.75100000  0.39690000  0.71100000  1.0 0.098743594
H  H271  1  0.60310000  0.71100000  0.24900000  1.0 0.098743594
H  H272  1  0.60310000  0.28900000  0.75100000  1.0 0.098743594
H  H273  1  0.24900000  0.60310000  0.71100000  1.0 0.098743594
H  H274  1  0.71100000  0.75100000  0.39690000  1.0 0.098743594
H  H275  1  0.28900000  0.75100000  0.60310000  1.0 0.098743594
H  H276  1  0.71100000  0.24900000  0.60310000  1.0 0.098743594
H  H277  1  0.71100000  0.75100000  0.60310000  1.0 0.098743594
H  H278  1  0.60310000  0.71100000  0.75100000  1.0 0.098743594
H  H279  1  0.75100000  0.60310000  0.71100000  1.0 0.098743594
H  H280  1  0.24900000  0.39690000  0.71100000  1.0 0.098743594
H  H281  1  0.60310000  0.28900000  0.24900000  1.0 0.098743594
H  H282  1  0.24900000  0.60310000  0.28900000  1.0 0.098743594
H  H283  1  0.39690000  0.28900000  0.75100000  1.0 0.098743594
H  H284  1  0.39690000  0.71100000  0.24900000  1.0 0.098743594
H  H285  1  0.75100000  0.39690000  0.28900000  1.0 0.098743594
H  H286  1  0.28900000  0.24900000  0.60310000  1.0 0.098743594
H  H287  1  0.71100000  0.24900000  0.39690000  1.0 0.098743594
H  H288  1  0.28900000  0.75100000  0.39690000  1.0 0.098743594
H  H289  1  0.03290000  0.06520000  0.50000000  1.0 0.1186318636
H  H290  1  0.50000000  0.03290000  0.06520000  1.0 0.1186318636
H  H291  1  0.06520000  0.50000000  0.03290000  1.0 0.1186318636
H  H292  1  0.93480000  0.50000000  0.03290000  1.0 0.1186318636
H  H293  1  0.50000000  0.96710000  0.93480000  1.0 0.1186318636
H  H294  1  0.93480000  0.50000000  0.96710000  1.0 0.1186318636
H  H295  1  0.50000000  0.96710000  0.06520000  1.0 0.1186318636
H  H296  1  0.50000000  0.03290000  0.93480000  1.0 0.1186318636
H  H297  1  0.06520000  0.50000000  0.96710000  1.0 0.1186318636
H  H298  1  0.96710000  0.93480000  0.50000000  1.0 0.1186318636
H  H299  1  0.03290000  0.93480000  0.50000000  1.0 0.1186318636
H  H300  1  0.96710000  0.06520000  0.50000000  1.0 0.1186318636
H  H301  1  0.24470000  0.33070000  0.42450000  1.0 0.0894552754
H  H302  1  0.42450000  0.24470000  0.33070000  1.0 0.0894552754
H  H303  1  0.33070000  0.42450000  0.24470000  1.0 0.0894552754
H  H304  1  0.66930000  0.57550000  0.24470000  1.0 0.0894552754
H  H305  1  0.42450000  0.75530000  0.66930000  1.0 0.0894552754
H  H306  1  0.66930000  0.42450000  0.75530000  1.0 0.0894552754
H  H307  1  0.57550000  0.75530000  0.33070000  1.0 0.0894552754
H  H308  1  0.57550000  0.24470000  0.66930000  1.0 0.0894552754
H  H309  1  0.33070000  0.57550000  0.75530000  1.0 0.0894552754
H  H310  1  0.75530000  0.66930000  0.42450000  1.0 0.0894552754
H  H311  1  0.24470000  0.66930000  0.57550000  1.0 0.0894552754
H  H312  1  0.75530000  0.33070000  0.57550000  1.0 0.0894552754
H  H313  1  0.75530000  0.66930000  0.57550000  1.0 0.0894552754
H  H314  1  0.57550000  0.75530000  0.66930000  1.0 0.0894552754
H  H315  1  0.66930000  0.57550000  0.75530000  1.0 0.0894552754
H  H316  1  0.33070000  0.42450000  0.75530000  1.0 0.0894552754
H  H317  1  0.57550000  0.24470000  0.33070000  1.0 0.0894552754
H  H318  1  0.33070000  0.57550000  0.24470000  1.0 0.0894552754
H  H319  1  0.42450000  0.24470000  0.66930000  1.0 0.0894552754
H  H320  1  0.42450000  0.75530000  0.33070000  1.0 0.0894552754
H  H321  1  0.66930000  0.42450000  0.24470000  1.0 0.0894552754
H  H322  1  0.24470000  0.33070000  0.57550000  1.0 0.0894552754
H  H323  1  0.75530000  0.33070000  0.42450000  1.0 0.0894552754
H  H324  1  0.24470000  0.66930000  0.42450000  1.0 0.0894552754
H  H325  1  0.26040000  0.29320000  0.45810000  1.0 0.0839366337
H  H326  1  0.45810000  0.26040000  0.29320000  1.0 0.0839366337
H  H327  1  0.29320000  0.45810000  0.26040000  1.0 0.0839366337
H  H328  1  0.70680000  0.54190000  0.26040000  1.0 0.0839366337
H  H329  1  0.45810000  0.73960000  0.70680000  1.0 0.0839366337
H  H330  1  0.70680000  0.45810000  0.73960000  1.0 0.0839366337
H  H331  1  0.54190000  0.73960000  0.29320000  1.0 0.0839366337
H  H332  1  0.54190000  0.26040000  0.70680000  1.0 0.0839366337
H  H333  1  0.29320000  0.54190000  0.73960000  1.0 0.0839366337
H  H334  1  0.73960000  0.70680000  0.45810000  1.0 0.0839366337
H  H335  1  0.26040000  0.70680000  0.54190000  1.0 0.0839366337
H  H336  1  0.73960000  0.29320000  0.54190000  1.0 0.0839366337
H  H337  1  0.73960000  0.70680000  0.54190000  1.0 0.0839366337
H  H338  1  0.54190000  0.73960000  0.70680000  1.0 0.0839366337
H  H339  1  0.70680000  0.54190000  0.73960000  1.0 0.0839366337
H  H340  1  0.29320000  0.45810000  0.73960000  1.0 0.0839366337
H  H341  1  0.54190000  0.26040000  0.29320000  1.0 0.0839366337
H  H342  1  0.29320000  0.54190000  0.26040000  1.0 0.0839366337
H  H343  1  0.45810000  0.26040000  0.70680000  1.0 0.0839366337
H  H344  1  0.45810000  0.73960000  0.29320000  1.0 0.0839366337
H  H345  1  0.70680000  0.45810000  0.26040000  1.0 0.0839366337
H  H346  1  0.26040000  0.29320000  0.54190000  1.0 0.0839366337
H  H347  1  0.73960000  0.29320000  0.45810000  1.0 0.0839366337
H  H348  1  0.26040000  0.70680000  0.45810000  1.0 0.0839366337
H  H349  1  0.31850000  0.34950000  0.45300000  1.0 0.098743594
H  H350  1  0.45300000  0.31850000  0.34950000  1.0 0.098743594
H  H351  1  0.34950000  0.45300000  0.31850000  1.0 0.098743594
H  H352  1  0.65050000  0.54700000  0.31850000  1.0 0.098743594
H  H353  1  0.45300000  0.68150000  0.65050000  1.0 0.098743594
H  H354  1  0.65050000  0.45300000  0.68150000  1.0 0.098743594
H  H355  1  0.54700000  0.68150000  0.34950000  1.0 0.098743594
H  H356  1  0.54700000  0.31850000  0.65050000  1.0 0.098743594
H  H357  1  0.34950000  0.54700000  0.68150000  1.0 0.098743594
H  H358  1  0.68150000  0.65050000  0.45300000  1.0 0.098743594
H  H359  1  0.31850000  0.65050000  0.54700000  1.0 0.098743594
H  H360  1  0.68150000  0.34950000  0.54700000  1.0 0.098743594
H  H361  1  0.68150000  0.65050000  0.54700000  1.0 0.098743594
H  H362  1  0.54700000  0.68150000  0.65050000  1.0 0.098743594
H  H363  1  0.65050000  0.54700000  0.68150000  1.0 0.098743594
H  H364  1  0.34950000  0.45300000  0.68150000  1.0 0.098743594
H  H365  1  0.54700000  0.31850000  0.34950000  1.0 0.098743594
H  H366  1  0.34950000  0.54700000  0.31850000  1.0 0.098743594
H  H367  1  0.45300000  0.31850000  0.65050000  1.0 0.098743594
H  H368  1  0.45300000  0.68150000  0.34950000  1.0 0.098743594
H  H369  1  0.65050000  0.45300000  0.31850000  1.0 0.098743594
H  H370  1  0.31850000  0.34950000  0.54700000  1.0 0.098743594
H  H371  1  0.68150000  0.34950000  0.45300000  1.0 0.098743594
H  H372  1  0.31850000  0.65050000  0.45300000  1.0 0.098743594
H  H373  1  0.32130000  0.34180000  0.40130000  1.0 0.1077314114
H  H374  1  0.40130000  0.32130000  0.34180000  1.0 0.1077314114
H  H375  1  0.34180000  0.40130000  0.32130000  1.0 0.1077314114
H  H376  1  0.65820000  0.59870000  0.32130000  1.0 0.1077314114
H  H377  1  0.40130000  0.67870000  0.65820000  1.0 0.1077314114
H  H378  1  0.65820000  0.40130000  0.67870000  1.0 0.1077314114
H  H379  1  0.59870000  0.67870000  0.34180000  1.0 0.1077314114
H  H380  1  0.59870000  0.32130000  0.65820000  1.0 0.1077314114
H  H381  1  0.34180000  0.59870000  0.67870000  1.0 0.1077314114
H  H382  1  0.67870000  0.65820000  0.40130000  1.0 0.1077314114
H  H383  1  0.32130000  0.65820000  0.59870000  1.0 0.1077314114
H  H384  1  0.67870000  0.34180000  0.59870000  1.0 0.1077314114
H  H385  1  0.67870000  0.65820000  0.59870000  1.0 0.1077314114
H  H386  1  0.59870000  0.67870000  0.65820000  1.0 0.1077314114
H  H387  1  0.65820000  0.59870000  0.67870000  1.0 0.1077314114
H  H388  1  0.34180000  0.40130000  0.67870000  1.0 0.1077314114
H  H389  1  0.59870000  0.32130000  0.34180000  1.0 0.1077314114
H  H390  1  0.34180000  0.59870000  0.32130000  1.0 0.1077314114
H  H391  1  0.40130000  0.32130000  0.65820000  1.0 0.1077314114
H  H392  1  0.40130000  0.67870000  0.34180000  1.0 0.1077314114
H  H393  1  0.65820000  0.40130000  0.32130000  1.0 0.1077314114
H  H394  1  0.32130000  0.34180000  0.59870000  1.0 0.1077314114
H  H395  1  0.67870000  0.34180000  0.40130000  1.0 0.1077314114
H  H396  1  0.32130000  0.65820000  0.40130000  1.0 0.1077314114
H  H397  1  0.33690000  0.30420000  0.43420000  1.0 0.1186318636
H  H398  1  0.43420000  0.33690000  0.30420000  1.0 0.1186318636
H  H399  1  0.30420000  0.43420000  0.33690000  1.0 0.1186318636
H  H400  1  0.69580000  0.56580000  0.33690000  1.0 0.1186318636
H  H401  1  0.43420000  0.66310000  0.69580000  1.0 0.1186318636
H  H402  1  0.69580000  0.43420000  0.66310000  1.0 0.1186318636
H  H403  1  0.56580000  0.66310000  0.30420000  1.0 0.1186318636
H  H404  1  0.56580000  0.33690000  0.69580000  1.0 0.1186318636
H  H405  1  0.30420000  0.56580000  0.66310000  1.0 0.1186318636
H  H406  1  0.66310000  0.69580000  0.43420000  1.0 0.1186318636
H  H407  1  0.33690000  0.69580000  0.56580000  1.0 0.1186318636
H  H408  1  0.66310000  0.30420000  0.56580000  1.0 0.1186318636
H  H409  1  0.66310000  0.69580000  0.56580000  1.0 0.1186318636
H  H410  1  0.56580000  0.66310000  0.69580000  1.0 0.1186318636
H  H411  1  0.69580000  0.56580000  0.66310000  1.0 0.1186318636
H  H412  1  0.30420000  0.43420000  0.66310000  1.0 0.1186318636
H  H413  1  0.56580000  0.33690000  0.30420000  1.0 0.1186318636
H  H414  1  0.30420000  0.56580000  0.33690000  1.0 0.1186318636
H  H415  1  0.43420000  0.33690000  0.69580000  1.0 0.1186318636
H  H416  1  0.43420000  0.66310000  0.30420000  1.0 0.1186318636
H  H417  1  0.69580000  0.43420000  0.33690000  1.0 0.1186318636
H  H418  1  0.33690000  0.30420000  0.56580000  1.0 0.1186318636
H  H419  1  0.66310000  0.30420000  0.43420000  1.0 0.1186318636
H  H420  1  0.33690000  0.69580000  0.43420000  1.0 0.1186318636
H  H421  1  0.10580000  0.14890000  0.32150000  0.368 -0.0170349063
H  H422  1  0.32150000  0.10580000  0.14890000  0.368 -0.0170349063
H  H423  1  0.14890000  0.32150000  0.10580000  0.368 -0.0170349063
H  H424  1  0.85110000  0.67850000  0.10580000  0.368 -0.0170349063
H  H425  1  0.32150000  0.89420000  0.85110000  0.368 -0.0170349063
H  H426  1  0.85110000  0.32150000  0.89420000  0.368 -0.0170349063
H  H427  1  0.67850000  0.89420000  0.14890000  0.368 -0.0170349063
H  H428  1  0.67850000  0.10580000  0.85110000  0.368 -0.0170349063
H  H429  1  0.14890000  0.67850000  0.89420000  0.368 -0.0170349063
H  H430  1  0.89420000  0.85110000  0.32150000  0.368 -0.0170349063
H  H431  1  0.10580000  0.85110000  0.67850000  0.368 -0.0170349063
H  H432  1  0.89420000  0.14890000  0.67850000  0.368 -0.0170349063
H  H433  1  0.89420000  0.85110000  0.67850000  0.368 -0.0170349063
H  H434  1  0.67850000  0.89420000  0.85110000  0.368 -0.0170349063
H  H435  1  0.85110000  0.67850000  0.89420000  0.368 -0.0170349063
H  H436  1  0.14890000  0.32150000  0.89420000  0.368 -0.0170349063
H  H437  1  0.67850000  0.10580000  0.14890000  0.368 -0.0170349063
H  H438  1  0.14890000  0.67850000  0.10580000  0.368 -0.0170349063
H  H439  1  0.32150000  0.10580000  0.85110000  0.368 -0.0170349063
H  H440  1  0.32150000  0.89420000  0.14890000  0.368 -0.0170349063
H  H441  1  0.85110000  0.32150000  0.10580000  0.368 -0.0170349063
H  H442  1  0.10580000  0.14890000  0.67850000  0.368 -0.0170349063
H  H443  1  0.89420000  0.14890000  0.32150000  0.368 -0.0170349063
H  H444  1  0.10580000  0.85110000  0.32150000  0.368 -0.0170349063
H  H445  1  0.11770000  0.12340000  0.27620000  0.368 0.0116718147
H  H446  1  0.27620000  0.11770000  0.12340000  0.368 0.0116718147
H  H447  1  0.12340000  0.27620000  0.11770000  0.368 0.0116718147
H  H448  1  0.87660000  0.72380000  0.11770000  0.368 0.0116718147
H  H449  1  0.27620000  0.88230000  0.87660000  0.368 0.0116718147
H  H450  1  0.87660000  0.27620000  0.88230000  0.368 0.0116718147
H  H451  1  0.72380000  0.88230000  0.12340000  0.368 0.0116718147
H  H452  1  0.72380000  0.11770000  0.87660000  0.368 0.0116718147
H  H453  1  0.12340000  0.72380000  0.88230000  0.368 0.0116718147
H  H454  1  0.88230000  0.87660000  0.27620000  0.368 0.0116718147
H  H455  1  0.11770000  0.87660000  0.72380000  0.368 0.0116718147
H  H456  1  0.88230000  0.12340000  0.72380000  0.368 0.0116718147
H  H457  1  0.88230000  0.87660000  0.72380000  0.368 0.0116718147
H  H458  1  0.72380000  0.88230000  0.87660000  0.368 0.0116718147
H  H459  1  0.87660000  0.72380000  0.88230000  0.368 0.0116718147
H  H460  1  0.12340000  0.27620000  0.88230000  0.368 0.0116718147
H  H461  1  0.72380000  0.11770000  0.12340000  0.368 0.0116718147
H  H462  1  0.12340000  0.72380000  0.11770000  0.368 0.0116718147
H  H463  1  0.27620000  0.11770000  0.87660000  0.368 0.0116718147
H  H464  1  0.27620000  0.88230000  0.12340000  0.368 0.0116718147
H  H465  1  0.87660000  0.27620000  0.11770000  0.368 0.0116718147
H  H466  1  0.11770000  0.12340000  0.72380000  0.368 0.0116718147
H  H467  1  0.88230000  0.12340000  0.27620000  0.368 0.0116718147
H  H468  1  0.11770000  0.87660000  0.27620000  0.368 0.0116718147
H  H469  1  0.10800000  0.22180000  0.28050000  0.368 0.098743594
H  H470  1  0.28050000  0.10800000  0.22180000  0.368 0.098743594
H  H471  1  0.22180000  0.28050000  0.10800000  0.368 0.098743594
H  H472  1  0.77820000  0.71950000  0.10800000  0.368 0.098743594
H  H473  1  0.28050000  0.89200000  0.77820000  0.368 0.098743594
H  H474  1  0.77820000  0.28050000  0.89200000  0.368 0.098743594
H  H475  1  0.71950000  0.89200000  0.22180000  0.368 0.098743594
H  H476  1  0.71950000  0.10800000  0.77820000  0.368 0.098743594
H  H477  1  0.22180000  0.71950000  0.89200000  0.368 0.098743594
H  H478  1  0.89200000  0.77820000  0.28050000  0.368 0.098743594
H  H479  1  0.10800000  0.77820000  0.71950000  0.368 0.098743594
H  H480  1  0.89200000  0.22180000  0.71950000  0.368 0.098743594
H  H481  1  0.89200000  0.77820000  0.71950000  0.368 0.098743594
H  H482  1  0.71950000  0.89200000  0.77820000  0.368 0.098743594
H  H483  1  0.77820000  0.71950000  0.89200000  0.368 0.098743594
H  H484  1  0.22180000  0.28050000  0.89200000  0.368 0.098743594
H  H485  1  0.71950000  0.10800000  0.22180000  0.368 0.098743594
H  H486  1  0.22180000  0.71950000  0.10800000  0.368 0.098743594
H  H487  1  0.28050000  0.10800000  0.77820000  0.368 0.098743594
H  H488  1  0.28050000  0.89200000  0.22180000  0.368 0.098743594
H  H489  1  0.77820000  0.28050000  0.10800000  0.368 0.098743594
H  H490  1  0.10800000  0.22180000  0.71950000  0.368 0.098743594
H  H491  1  0.89200000  0.22180000  0.28050000  0.368 0.098743594
H  H492  1  0.10800000  0.77820000  0.28050000  0.368 0.098743594
H  H493  1  0.07180000  0.19240000  0.25680000  0.368 0.1077314114
H  H494  1  0.25680000  0.07180000  0.19240000  0.368 0.1077314114
H  H495  1  0.19240000  0.25680000  0.07180000  0.368 0.1077314114
H  H496  1  0.80760000  0.74320000  0.07180000  0.368 0.1077314114
H  H497  1  0.25680000  0.92820000  0.80760000  0.368 0.1077314114
H  H498  1  0.80760000  0.25680000  0.92820000  0.368 0.1077314114
H  H499  1  0.74320000  0.92820000  0.19240000  0.368 0.1077314114
H  H500  1  0.74320000  0.07180000  0.80760000  0.368 0.1077314114
H  H501  1  0.19240000  0.74320000  0.92820000  0.368 0.1077314114
H  H502  1  0.92820000  0.80760000  0.25680000  0.368 0.1077314114
H  H503  1  0.07180000  0.80760000  0.74320000  0.368 0.1077314114
H  H504  1  0.92820000  0.19240000  0.74320000  0.368 0.1077314114
H  H505  1  0.92820000  0.80760000  0.74320000  0.368 0.1077314114
H  H506  1  0.74320000  0.92820000  0.80760000  0.368 0.1077314114
H  H507  1  0.80760000  0.74320000  0.92820000  0.368 0.1077314114
H  H508  1  0.19240000  0.25680000  0.92820000  0.368 0.1077314114
H  H509  1  0.74320000  0.07180000  0.19240000  0.368 0.1077314114
H  H510  1  0.19240000  0.74320000  0.07180000  0.368 0.1077314114
H  H511  1  0.25680000  0.07180000  0.80760000  0.368 0.1077314114
H  H512  1  0.25680000  0.92820000  0.19240000  0.368 0.1077314114
H  H513  1  0.80760000  0.25680000  0.07180000  0.368 0.1077314114
H  H514  1  0.07180000  0.19240000  0.74320000  0.368 0.1077314114
H  H515  1  0.92820000  0.19240000  0.25680000  0.368 0.1077314114
H  H516  1  0.07180000  0.80760000  0.25680000  0.368 0.1077314114
H  H517  1  0.11970000  0.19680000  0.23600000  0.368 0.0894552754
H  H518  1  0.23600000  0.11970000  0.19680000  0.368 0.0894552754
H  H519  1  0.19680000  0.23600000  0.11970000  0.368 0.0894552754
H  H520  1  0.80320000  0.76400000  0.11970000  0.368 0.0894552754
H  H521  1  0.23600000  0.88030000  0.80320000  0.368 0.0894552754
H  H522  1  0.80320000  0.23600000  0.88030000  0.368 0.0894552754
H  H523  1  0.76400000  0.88030000  0.19680000  0.368 0.0894552754
H  H524  1  0.76400000  0.11970000  0.80320000  0.368 0.0894552754
H  H525  1  0.19680000  0.76400000  0.88030000  0.368 0.0894552754
H  H526  1  0.88030000  0.80320000  0.23600000  0.368 0.0894552754
H  H527  1  0.11970000  0.80320000  0.76400000  0.368 0.0894552754
H  H528  1  0.88030000  0.19680000  0.76400000  0.368 0.0894552754
H  H529  1  0.88030000  0.80320000  0.76400000  0.368 0.0894552754
H  H530  1  0.76400000  0.88030000  0.80320000  0.368 0.0894552754
H  H531  1  0.80320000  0.76400000  0.88030000  0.368 0.0894552754
H  H532  1  0.19680000  0.23600000  0.88030000  0.368 0.0894552754
H  H533  1  0.76400000  0.11970000  0.19680000  0.368 0.0894552754
H  H534  1  0.19680000  0.76400000  0.11970000  0.368 0.0894552754
H  H535  1  0.23600000  0.11970000  0.80320000  0.368 0.0894552754
H  H536  1  0.23600000  0.88030000  0.19680000  0.368 0.0894552754
H  H537  1  0.80320000  0.23600000  0.11970000  0.368 0.0894552754
H  H538  1  0.11970000  0.19680000  0.76400000  0.368 0.0894552754
H  H539  1  0.88030000  0.19680000  0.23600000  0.368 0.0894552754
H  H540  1  0.11970000  0.80320000  0.23600000  0.368 0.0894552754
H  H541  1  0.11430000  0.12930000  0.31550000  0.632 -0.0255530112
H  H542  1  0.31550000  0.11430000  0.12930000  0.632 -0.0255530112
H  H543  1  0.12930000  0.31550000  0.11430000  0.632 -0.0255530112
H  H544  1  0.87070000  0.68450000  0.11430000  0.632 -0.0255530112
H  H545  1  0.31550000  0.88570000  0.87070000  0.632 -0.0255530112
H  H546  1  0.87070000  0.31550000  0.88570000  0.632 -0.0255530112
H  H547  1  0.68450000  0.88570000  0.12930000  0.632 -0.0255530112
H  H548  1  0.68450000  0.11430000  0.87070000  0.632 -0.0255530112
H  H549  1  0.12930000  0.68450000  0.88570000  0.632 -0.0255530112
H  H550  1  0.88570000  0.87070000  0.31550000  0.632 -0.0255530112
H  H551  1  0.11430000  0.87070000  0.68450000  0.632 -0.0255530112
H  H552  1  0.88570000  0.12930000  0.68450000  0.632 -0.0255530112
H  H553  1  0.88570000  0.87070000  0.68450000  0.632 -0.0255530112
H  H554  1  0.68450000  0.88570000  0.87070000  0.632 -0.0255530112
H  H555  1  0.87070000  0.68450000  0.88570000  0.632 -0.0255530112
H  H556  1  0.12930000  0.31550000  0.88570000  0.632 -0.0255530112
H  H557  1  0.68450000  0.11430000  0.12930000  0.632 -0.0255530112
H  H558  1  0.12930000  0.68450000  0.11430000  0.632 -0.0255530112
H  H559  1  0.31550000  0.11430000  0.87070000  0.632 -0.0255530112
H  H560  1  0.31550000  0.88570000  0.12930000  0.632 -0.0255530112
H  H561  1  0.87070000  0.31550000  0.11430000  0.632 -0.0255530112
H  H562  1  0.11430000  0.12930000  0.68450000  0.632 -0.0255530112
H  H563  1  0.88570000  0.12930000  0.31550000  0.632 -0.0255530112
H  H564  1  0.11430000  0.87070000  0.31550000  0.632 -0.0255530112
H  H565  1  0.09660000  0.17400000  0.29260000  0.632 0.022909585
H  H566  1  0.29260000  0.09660000  0.17400000  0.632 0.022909585
H  H567  1  0.17400000  0.29260000  0.09660000  0.632 0.022909585
H  H568  1  0.82600000  0.70740000  0.09660000  0.632 0.0116718147
H  H569  1  0.29260000  0.90340000  0.82600000  0.632 0.0116718147
H  H570  1  0.82600000  0.29260000  0.90340000  0.632 0.0116718147
H  H571  1  0.70740000  0.90340000  0.17400000  0.632 0.0116718147
H  H572  1  0.70740000  0.09660000  0.82600000  0.632 0.0116718147
H  H573  1  0.17400000  0.70740000  0.90340000  0.632 0.0116718147
H  H574  1  0.90340000  0.82600000  0.29260000  0.632 0.0116718147
H  H575  1  0.09660000  0.82600000  0.70740000  0.632 0.0116718147
H  H576  1  0.90340000  0.17400000  0.70740000  0.632 0.0116718147
H  H577  1  0.90340000  0.82600000  0.70740000  0.632 0.0116718147
H  H578  1  0.70740000  0.90340000  0.82600000  0.632 0.0116718147
H  H579  1  0.82600000  0.70740000  0.90340000  0.632 0.0116718147
H  H580  1  0.17400000  0.29260000  0.90340000  0.632 0.0116718147
H  H581  1  0.70740000  0.09660000  0.17400000  0.632 0.0116718147
H  H582  1  0.17400000  0.70740000  0.09660000  0.632 0.022909585
H  H583  1  0.29260000  0.09660000  0.82600000  0.632 0.0116718147
H  H584  1  0.29260000  0.90340000  0.17400000  0.632 0.0116718147
H  H585  1  0.82600000  0.29260000  0.09660000  0.632 0.0116718147
H  H586  1  0.09660000  0.17400000  0.70740000  0.632 0.0116718147
H  H587  1  0.90340000  0.17400000  0.29260000  0.632 0.0116718147
H  H588  1  0.09660000  0.82600000  0.29260000  0.632 0.0116718147
H  H589  1  0.13390000  0.15300000  0.22290000  0.632 0.0894552754
H  H590  1  0.22290000  0.13390000  0.15300000  0.632 0.0894552754
H  H591  1  0.15300000  0.22290000  0.13390000  0.632 0.0894552754
H  H592  1  0.84700000  0.77710000  0.13390000  0.632 0.0894552754
H  H593  1  0.22290000  0.86610000  0.84700000  0.632 0.0894552754
H  H594  1  0.84700000  0.22290000  0.86610000  0.632 0.0894552754
H  H595  1  0.77710000  0.86610000  0.15300000  0.632 0.0894552754
H  H596  1  0.77710000  0.13390000  0.84700000  0.632 0.0894552754
H  H597  1  0.15300000  0.77710000  0.86610000  0.632 0.0894552754
H  H598  1  0.86610000  0.84700000  0.22290000  0.632 0.0894552754
H  H599  1  0.13390000  0.84700000  0.77710000  0.632 0.0894552754
H  H600  1  0.86610000  0.15300000  0.77710000  0.632 0.0894552754
H  H601  1  0.86610000  0.84700000  0.77710000  0.632 0.0894552754
H  H602  1  0.77710000  0.86610000  0.84700000  0.632 0.0894552754
H  H603  1  0.84700000  0.77710000  0.86610000  0.632 0.0894552754
H  H604  1  0.15300000  0.22290000  0.86610000  0.632 0.0894552754
H  H605  1  0.77710000  0.13390000  0.15300000  0.632 0.0894552754
H  H606  1  0.15300000  0.77710000  0.13390000  0.632 0.0894552754
H  H607  1  0.22290000  0.13390000  0.84700000  0.632 0.0894552754
H  H608  1  0.22290000  0.86610000  0.15300000  0.632 0.0894552754
H  H609  1  0.84700000  0.22290000  0.13390000  0.632 0.0894552754
H  H610  1  0.13390000  0.15300000  0.77710000  0.632 0.0894552754
H  H611  1  0.86610000  0.15300000  0.22290000  0.632 0.0894552754
H  H612  1  0.13390000  0.84700000  0.22290000  0.632 0.0894552754
H  H613  1  0.10150000  0.11370000  0.23500000  0.632 0.0733400581
H  H614  1  0.23500000  0.10150000  0.11370000  0.632 0.0733400581
H  H615  1  0.11370000  0.23500000  0.10150000  0.632 0.0733400581
H  H616  1  0.88630000  0.76500000  0.10150000  0.632 0.0733400581
H  H617  1  0.23500000  0.89850000  0.88630000  0.632 0.0733400581
H  H618  1  0.88630000  0.23500000  0.89850000  0.632 0.0733400581
H  H619  1  0.76500000  0.89850000  0.11370000  0.632 0.0733400581
H  H620  1  0.76500000  0.10150000  0.88630000  0.632 0.0733400581
H  H621  1  0.11370000  0.76500000  0.89850000  0.632 0.0733400581
H  H622  1  0.89850000  0.88630000  0.23500000  0.632 0.0733400581
H  H623  1  0.10150000  0.88630000  0.76500000  0.632 0.0733400581
H  H624  1  0.89850000  0.11370000  0.76500000  0.632 0.0733400581
H  H625  1  0.89850000  0.88630000  0.76500000  0.632 0.0733400581
H  H626  1  0.76500000  0.89850000  0.88630000  0.632 0.0733400581
H  H627  1  0.88630000  0.76500000  0.89850000  0.632 0.0733400581
H  H628  1  0.11370000  0.23500000  0.89850000  0.632 0.0733400581
H  H629  1  0.76500000  0.10150000  0.11370000  0.632 0.0733400581
H  H630  1  0.11370000  0.76500000  0.10150000  0.632 0.0733400581
H  H631  1  0.23500000  0.10150000  0.88630000  0.632 0.0733400581
H  H632  1  0.23500000  0.89850000  0.11370000  0.632 0.0733400581
H  H633  1  0.88630000  0.23500000  0.10150000  0.632 0.0733400581
H  H634  1  0.10150000  0.11370000  0.76500000  0.632 0.0733400581
H  H635  1  0.89850000  0.11370000  0.23500000  0.632 0.0733400581
H  H636  1  0.10150000  0.88630000  0.23500000  0.632 0.0733400581
H  H637  1  0.15270000  0.10960000  0.24540000  0.632 0.1077314114
H  H638  1  0.24540000  0.15270000  0.10960000  0.632 0.1077314114
H  H639  1  0.10960000  0.24540000  0.15270000  0.632 0.1077314114
H  H640  1  0.89040000  0.75460000  0.15270000  0.632 0.1077314114
H  H641  1  0.24540000  0.84730000  0.89040000  0.632 0.1077314114
H  H642  1  0.89040000  0.24540000  0.84730000  0.632 0.1077314114
H  H643  1  0.75460000  0.84730000  0.10960000  0.632 0.1077314114
H  H644  1  0.75460000  0.15270000  0.89040000  0.632 0.1077314114
H  H645  1  0.10960000  0.75460000  0.84730000  0.632 0.1077314114
H  H646  1  0.84730000  0.89040000  0.24540000  0.632 0.1077314114
H  H647  1  0.15270000  0.89040000  0.75460000  0.632 0.1077314114
H  H648  1  0.84730000  0.10960000  0.75460000  0.632 0.1077314114
H  H649  1  0.84730000  0.89040000  0.75460000  0.632 0.1077314114
H  H650  1  0.75460000  0.84730000  0.89040000  0.632 0.1077314114
H  H651  1  0.89040000  0.75460000  0.84730000  0.632 0.1077314114
H  H652  1  0.10960000  0.24540000  0.84730000  0.632 0.1077314114
H  H653  1  0.75460000  0.15270000  0.10960000  0.632 0.1077314114
H  H654  1  0.10960000  0.75460000  0.15270000  0.632 0.1077314114
H  H655  1  0.24540000  0.15270000  0.89040000  0.632 0.1077314114
H  H656  1  0.24540000  0.84730000  0.10960000  0.632 0.1077314114
H  H657  1  0.89040000  0.24540000  0.15270000  0.632 0.1077314114
H  H658  1  0.15270000  0.10960000  0.75460000  0.632 0.1077314114
H  H659  1  0.84730000  0.10960000  0.24540000  0.632 0.1077314114
H  H660  1  0.15270000  0.89040000  0.24540000  0.632 0.1077314114
C  C1  1  0.40390000  0.00000000  0.50000000  1.0 0.6080859202
C  C2  1  0.50000000  0.40390000  0.00000000  1.0 0.6080859202
C  C3  1  0.00000000  0.50000000  0.40390000  1.0 0.6080859202
C  C4  1  0.50000000  0.59610000  0.00000000  1.0 0.6080859202
C  C5  1  0.00000000  0.50000000  0.59610000  1.0 0.6080859202
C  C6  1  0.59610000  0.00000000  0.50000000  1.0 0.6080859202
C  C7  1  0.16771000  0.00000000  0.50000000  1.0 0.6080859202
C  C8  1  0.50000000  0.16771000  0.00000000  1.0 0.6080859202
C  C9  1  0.00000000  0.50000000  0.16771000  1.0 0.6080859202
C  C10  1  0.50000000  0.83229000  0.00000000  1.0 0.6080859202
C  C11  1  0.00000000  0.50000000  0.83229000  1.0 0.6080859202
C  C12  1  0.83229000  0.00000000  0.50000000  1.0 0.6080859202
C  C13  1  0.28578000  0.08393000  0.41535000  1.0 0.6004812467
C  C14  1  0.41535000  0.28578000  0.08393000  1.0 0.6004812467
C  C15  1  0.08393000  0.41535000  0.28578000  1.0 0.6004812467
C  C16  1  0.91607000  0.58465000  0.28578000  1.0 0.6004812467
C  C17  1  0.41535000  0.71422000  0.91607000  1.0 0.6004812467
C  C18  1  0.91607000  0.41535000  0.71422000  1.0 0.6004812467
C  C19  1  0.58465000  0.71422000  0.08393000  1.0 0.6004812467
C  C20  1  0.58465000  0.28578000  0.91607000  1.0 0.6004812467
C  C21  1  0.08393000  0.58465000  0.71422000  1.0 0.6004812467
C  C22  1  0.71422000  0.91607000  0.41535000  1.0 0.6004812467
C  C23  1  0.28578000  0.91607000  0.58465000  1.0 0.6004812467
C  C24  1  0.71422000  0.08393000  0.58465000  1.0 0.6004812467
C  C25  1  0.71422000  0.91607000  0.58465000  1.0 0.6004812467
C  C26  1  0.58465000  0.71422000  0.91607000  1.0 0.6004812467
C  C27  1  0.91607000  0.58465000  0.71422000  1.0 0.6004812467
C  C28  1  0.08393000  0.41535000  0.71422000  1.0 0.6004812467
C  C29  1  0.58465000  0.28578000  0.08393000  1.0 0.6004812467
C  C30  1  0.08393000  0.58465000  0.28578000  1.0 0.6004812467
C  C31  1  0.41535000  0.28578000  0.91607000  1.0 0.6004812467
C  C32  1  0.41535000  0.71422000  0.08393000  1.0 0.6004812467
C  C33  1  0.91607000  0.41535000  0.28578000  1.0 0.6004812467
C  C34  1  0.28578000  0.08393000  0.58465000  1.0 0.6004812467
C  C35  1  0.71422000  0.08393000  0.41535000  1.0 0.6004812467
C  C36  1  0.28578000  0.91607000  0.41535000  1.0 0.6004812467
C  C37  1  0.45394000  0.00000000  0.50000000  1.0 -0.0398793359
C  C38  1  0.50000000  0.45394000  0.00000000  1.0 -0.0398793359
C  C39  1  0.00000000  0.50000000  0.45394000  1.0 -0.0398793359
C  C40  1  0.50000000  0.54606000  0.00000000  1.0 -0.0398793359
C  C41  1  0.00000000  0.50000000  0.54606000  1.0 -0.0398793359
C  C42  1  0.54606000  0.00000000  0.50000000  1.0 -0.0398793359
C  C43  1  0.47672000  0.00000000  0.46039000  1.0 -0.0823253346
C  C44  1  0.46039000  0.47672000  0.00000000  1.0 -0.0823253346
C  C45  1  0.00000000  0.46039000  0.47672000  1.0 -0.0823253346
C  C46  1  0.00000000  0.53961000  0.47672000  1.0 -0.0823253346
C  C47  1  0.46039000  0.52328000  0.00000000  1.0 -0.0823253346
C  C48  1  0.00000000  0.46039000  0.52328000  1.0 -0.0823253346
C  C49  1  0.53961000  0.52328000  0.00000000  1.0 -0.0823253346
C  C50  1  0.53961000  0.47672000  0.00000000  1.0 -0.0823253346
C  C51  1  0.00000000  0.53961000  0.52328000  1.0 -0.0823253346
C  C52  1  0.52328000  0.00000000  0.46039000  1.0 -0.0823253346
C  C53  1  0.47672000  0.00000000  0.53961000  1.0 -0.0823253346
C  C54  1  0.52328000  0.00000000  0.53961000  1.0 -0.0823253346
C  C55  1  0.28611000  0.18371000  0.31286000  1.0 0.0583992573
C  C56  1  0.31286000  0.28611000  0.18371000  1.0 0.0583992573
C  C57  1  0.18371000  0.31286000  0.28611000  1.0 0.0583992573
C  C58  1  0.81629000  0.68714000  0.28611000  1.0 0.0583992573
C  C59  1  0.31286000  0.71389000  0.81629000  1.0 0.0583992573
C  C60  1  0.81629000  0.31286000  0.71389000  1.0 0.0583992573
C  C61  1  0.68714000  0.71389000  0.18371000  1.0 0.0583992573
C  C62  1  0.68714000  0.28611000  0.81629000  1.0 0.0583992573
C  C63  1  0.18371000  0.68714000  0.71389000  1.0 0.0583992573
C  C64  1  0.71389000  0.81629000  0.31286000  1.0 0.0583992573
C  C65  1  0.28611000  0.81629000  0.68714000  1.0 0.0583992573
C  C66  1  0.71389000  0.18371000  0.68714000  1.0 0.0583992573
C  C67  1  0.71389000  0.81629000  0.68714000  1.0 0.0583992573
C  C68  1  0.68714000  0.71389000  0.81629000  1.0 0.0583992573
C  C69  1  0.81629000  0.68714000  0.71389000  1.0 0.0583992573
C  C70  1  0.18371000  0.31286000  0.71389000  1.0 0.0583992573
C  C71  1  0.68714000  0.28611000  0.18371000  1.0 0.0583992573
C  C72  1  0.18371000  0.68714000  0.28611000  1.0 0.0583992573
C  C73  1  0.31286000  0.28611000  0.81629000  1.0 0.0583992573
C  C74  1  0.31286000  0.71389000  0.18371000  1.0 0.0583992573
C  C75  1  0.81629000  0.31286000  0.28611000  1.0 0.0583992573
C  C76  1  0.28611000  0.18371000  0.68714000  1.0 0.0583992573
C  C77  1  0.71389000  0.18371000  0.31286000  1.0 0.0583992573
C  C78  1  0.28611000  0.81629000  0.31286000  1.0 0.0583992573
C  C79  1  0.25388000  0.18434000  0.34606000  1.0 0.0116718147
C  C80  1  0.34606000  0.25388000  0.18434000  1.0 0.0116718147
C  C81  1  0.18434000  0.34606000  0.25388000  1.0 0.0116718147
C  C82  1  0.81566000  0.65394000  0.25388000  1.0 0.0116718147
C  C83  1  0.34606000  0.74612000  0.81566000  1.0 0.0116718147
C  C84  1  0.81566000  0.34606000  0.74612000  1.0 0.0116718147
C  C85  1  0.65394000  0.74612000  0.18434000  1.0 0.0116718147
C  C86  1  0.65394000  0.25388000  0.81566000  1.0 0.0116718147
C  C87  1  0.18434000  0.65394000  0.74612000  1.0 0.0116718147
C  C88  1  0.74612000  0.81566000  0.34606000  1.0 0.0116718147
C  C89  1  0.25388000  0.81566000  0.65394000  1.0 0.0116718147
C  C90  1  0.74612000  0.18434000  0.65394000  1.0 0.0116718147
C  C91  1  0.74612000  0.81566000  0.65394000  1.0 0.0116718147
C  C92  1  0.65394000  0.74612000  0.81566000  1.0 0.0116718147
C  C93  1  0.81566000  0.65394000  0.74612000  1.0 0.0116718147
C  C94  1  0.18434000  0.34606000  0.74612000  1.0 0.0116718147
C  C95  1  0.65394000  0.25388000  0.18434000  1.0 0.0116718147
C  C96  1  0.18434000  0.65394000  0.25388000  1.0 0.0116718147
C  C97  1  0.34606000  0.25388000  0.81566000  1.0 0.0116718147
C  C98  1  0.34606000  0.74612000  0.18434000  1.0 0.0116718147
C  C99  1  0.81566000  0.34606000  0.25388000  1.0 0.0116718147
C  C100  1  0.25388000  0.18434000  0.65394000  1.0 0.0116718147
C  C101  1  0.74612000  0.18434000  0.34606000  1.0 0.0116718147
C  C102  1  0.25388000  0.81566000  0.34606000  1.0 0.0116718147
C  C103  1  0.25382000  0.15209000  0.37965000  1.0 -0.1339179553
C  C104  1  0.37965000  0.25382000  0.15209000  1.0 -0.1339179553
C  C105  1  0.15209000  0.37965000  0.25382000  1.0 -0.1339179553
C  C106  1  0.84791000  0.62035000  0.25382000  1.0 -0.1339179553
C  C107  1  0.37965000  0.74618000  0.84791000  1.0 -0.1339179553
C  C108  1  0.84791000  0.37965000  0.74618000  1.0 -0.1339179553
C  C109  1  0.62035000  0.74618000  0.15209000  1.0 -0.1339179553
C  C110  1  0.62035000  0.25382000  0.84791000  1.0 -0.1339179553
C  C111  1  0.15209000  0.62035000  0.74618000  1.0 -0.1339179553
C  C112  1  0.74618000  0.84791000  0.37965000  1.0 -0.1339179553
C  C113  1  0.25382000  0.84791000  0.62035000  1.0 -0.1339179553
C  C114  1  0.74618000  0.15209000  0.62035000  1.0 -0.1339179553
C  C115  1  0.74618000  0.84791000  0.62035000  1.0 -0.1339179553
C  C116  1  0.62035000  0.74618000  0.84791000  1.0 -0.1339179553
C  C117  1  0.84791000  0.62035000  0.74618000  1.0 -0.1339179553
C  C118  1  0.15209000  0.37965000  0.74618000  1.0 -0.1339179553
C  C119  1  0.62035000  0.25382000  0.15209000  1.0 -0.1339179553
C  C120  1  0.15209000  0.62035000  0.25382000  1.0 -0.1339179553
C  C121  1  0.37965000  0.25382000  0.84791000  1.0 -0.1339179553
C  C122  1  0.37965000  0.74618000  0.15209000  1.0 -0.1339179553
C  C123  1  0.84791000  0.37965000  0.25382000  1.0 -0.1339179553
C  C124  1  0.25382000  0.15209000  0.62035000  1.0 -0.1339179553
C  C125  1  0.74618000  0.15209000  0.37965000  1.0 -0.1339179553
C  C126  1  0.25382000  0.84791000  0.37965000  1.0 -0.1339179553
C  C127  1  0.28557000  0.11897000  0.37953000  1.0 -0.0170349063
C  C128  1  0.37953000  0.28557000  0.11897000  1.0 -0.0170349063
C  C129  1  0.11897000  0.37953000  0.28557000  1.0 -0.0170349063
C  C130  1  0.88103000  0.62047000  0.28557000  1.0 -0.0170349063
C  C131  1  0.37953000  0.71443000  0.88103000  1.0 -0.0170349063
C  C132  1  0.88103000  0.37953000  0.71443000  1.0 -0.0170349063
C  C133  1  0.62047000  0.71443000  0.11897000  1.0 -0.0170349063
C  C134  1  0.62047000  0.28557000  0.88103000  1.0 -0.0170349063
C  C135  1  0.11897000  0.62047000  0.71443000  1.0 -0.0170349063
C  C136  1  0.71443000  0.88103000  0.37953000  1.0 -0.0170349063
C  C137  1  0.28557000  0.88103000  0.62047000  1.0 -0.0170349063
C  C138  1  0.71443000  0.11897000  0.62047000  1.0 -0.0170349063
C  C139  1  0.71443000  0.88103000  0.62047000  1.0 -0.0170349063
C  C140  1  0.62047000  0.71443000  0.88103000  1.0 -0.0170349063
C  C141  1  0.88103000  0.62047000  0.71443000  1.0 -0.0170349063
C  C142  1  0.11897000  0.37953000  0.71443000  1.0 -0.0170349063
C  C143  1  0.62047000  0.28557000  0.11897000  1.0 -0.0170349063
C  C144  1  0.11897000  0.62047000  0.28557000  1.0 -0.0170349063
C  C145  1  0.37953000  0.28557000  0.88103000  1.0 -0.0170349063
C  C146  1  0.37953000  0.71443000  0.11897000  1.0 -0.0170349063
C  C147  1  0.88103000  0.37953000  0.28557000  1.0 -0.0170349063
C  C148  1  0.28557000  0.11897000  0.62047000  1.0 -0.0170349063
C  C149  1  0.71443000  0.11897000  0.37953000  1.0 -0.0170349063
C  C150  1  0.28557000  0.88103000  0.37953000  1.0 -0.0170349063
C  C151  1  0.31764000  0.11826000  0.34609000  1.0 -0.0999641688
C  C152  1  0.34609000  0.31764000  0.11826000  1.0 -0.0999641688
C  C153  1  0.11826000  0.34609000  0.31764000  1.0 -0.0999641688
C  C154  1  0.88174000  0.65391000  0.31764000  1.0 -0.0999641688
C  C155  1  0.34609000  0.68236000  0.88174000  1.0 -0.0999641688
C  C156  1  0.88174000  0.34609000  0.68236000  1.0 -0.0999641688
C  C157  1  0.65391000  0.68236000  0.11826000  1.0 -0.0999641688
C  C158  1  0.65391000  0.31764000  0.88174000  1.0 -0.0999641688
C  C159  1  0.11826000  0.65391000  0.68236000  1.0 -0.0999641688
C  C160  1  0.68236000  0.88174000  0.34609000  1.0 -0.0999641688
C  C161  1  0.31764000  0.88174000  0.65391000  1.0 -0.0999641688
C  C162  1  0.68236000  0.11826000  0.65391000  1.0 -0.0999641688
C  C163  1  0.68236000  0.88174000  0.65391000  1.0 -0.0999641688
C  C164  1  0.65391000  0.68236000  0.88174000  1.0 -0.0999641688
C  C165  1  0.88174000  0.65391000  0.68236000  1.0 -0.0999641688
C  C166  1  0.11826000  0.34609000  0.68236000  1.0 -0.0999641688
C  C167  1  0.65391000  0.31764000  0.11826000  1.0 -0.0999641688
C  C168  1  0.11826000  0.65391000  0.31764000  1.0 -0.0999641688
C  C169  1  0.34609000  0.31764000  0.88174000  1.0 -0.0999641688
C  C170  1  0.34609000  0.68236000  0.11826000  1.0 -0.0999641688
C  C171  1  0.88174000  0.34609000  0.31764000  1.0 -0.0999641688
C  C172  1  0.31764000  0.11826000  0.65391000  1.0 -0.0999641688
C  C173  1  0.68236000  0.11826000  0.34609000  1.0 -0.0999641688
C  C174  1  0.31764000  0.88174000  0.34609000  1.0 -0.0999641688
C  C175  1  0.27714000  0.22247000  0.28233000  1.0 -0.0499131272
C  C176  1  0.28233000  0.27714000  0.22247000  1.0 -0.0499131272
C  C177  1  0.22247000  0.28233000  0.27714000  1.0 -0.0499131272
C  C178  1  0.77753000  0.71767000  0.27714000  1.0 -0.0499131272
C  C179  1  0.28233000  0.72286000  0.77753000  1.0 -0.0499131272
C  C180  1  0.77753000  0.28233000  0.72286000  1.0 -0.0499131272
C  C181  1  0.71767000  0.72286000  0.22247000  1.0 -0.0499131272
C  C182  1  0.71767000  0.27714000  0.77753000  1.0 -0.0499131272
C  C183  1  0.22247000  0.71767000  0.72286000  1.0 -0.0499131272
C  C184  1  0.72286000  0.77753000  0.28233000  1.0 -0.0499131272
C  C185  1  0.27714000  0.77753000  0.71767000  1.0 -0.0499131272
C  C186  1  0.72286000  0.22247000  0.71767000  1.0 -0.0499131272
C  C187  1  0.72286000  0.77753000  0.71767000  1.0 -0.0499131272
C  C188  1  0.71767000  0.72286000  0.77753000  1.0 -0.0499131272
C  C189  1  0.77753000  0.71767000  0.72286000  1.0 -0.0499131272
C  C190  1  0.22247000  0.28233000  0.72286000  1.0 -0.0499131272
C  C191  1  0.71767000  0.27714000  0.22247000  1.0 -0.0499131272
C  C192  1  0.22247000  0.71767000  0.27714000  1.0 -0.0499131272
C  C193  1  0.28233000  0.27714000  0.77753000  1.0 -0.0499131272
C  C194  1  0.28233000  0.72286000  0.22247000  1.0 -0.0499131272
C  C195  1  0.77753000  0.28233000  0.27714000  1.0 -0.0499131272
C  C196  1  0.27714000  0.22247000  0.71767000  1.0 -0.0499131272
C  C197  1  0.72286000  0.22247000  0.28233000  1.0 -0.0499131272
C  C198  1  0.27714000  0.77753000  0.28233000  1.0 -0.0499131272
C  C199  1  0.22095000  0.22176000  0.34087000  1.0 0.1186318636
C  C200  1  0.34087000  0.22095000  0.22176000  1.0 0.1186318636
C  C201  1  0.22176000  0.34087000  0.22095000  1.0 0.1186318636
C  C202  1  0.77824000  0.65913000  0.22095000  1.0 0.1186318636
C  C203  1  0.34087000  0.77905000  0.77824000  1.0 0.1186318636
C  C204  1  0.77824000  0.34087000  0.77905000  1.0 0.1186318636
C  C205  1  0.65913000  0.77905000  0.22176000  1.0 0.1186318636
C  C206  1  0.65913000  0.22095000  0.77824000  1.0 0.1186318636
C  C207  1  0.22176000  0.65913000  0.77905000  1.0 0.1186318636
C  C208  1  0.77905000  0.77824000  0.34087000  1.0 0.1186318636
C  C209  1  0.22095000  0.77824000  0.65913000  1.0 0.1186318636
C  C210  1  0.77905000  0.22176000  0.65913000  1.0 0.1186318636
C  C211  1  0.77905000  0.77824000  0.65913000  1.0 0.1186318636
C  C212  1  0.65913000  0.77905000  0.77824000  1.0 0.1186318636
C  C213  1  0.77824000  0.65913000  0.77905000  1.0 0.1186318636
C  C214  1  0.22176000  0.34087000  0.77905000  1.0 0.1186318636
C  C215  1  0.65913000  0.22095000  0.22176000  1.0 0.1186318636
C  C216  1  0.22176000  0.65913000  0.22095000  1.0 0.1186318636
C  C217  1  0.34087000  0.22095000  0.77824000  1.0 0.1186318636
C  C218  1  0.34087000  0.77905000  0.22176000  1.0 0.1186318636
C  C219  1  0.77824000  0.34087000  0.22095000  1.0 0.1186318636
C  C220  1  0.22095000  0.22176000  0.65913000  1.0 0.1186318636
C  C221  1  0.77905000  0.22176000  0.34087000  1.0 0.1186318636
C  C222  1  0.22095000  0.77824000  0.34087000  1.0 0.1186318636
C  C223  1  0.23880000  0.24436000  0.29870000  1.0 -0.0398793359
C  C224  1  0.29870000  0.23880000  0.24436000  1.0 -0.0398793359
C  C225  1  0.24436000  0.29870000  0.23880000  1.0 -0.0398793359
C  C226  1  0.75564000  0.70130000  0.23880000  1.0 -0.0398793359
C  C227  1  0.29870000  0.76120000  0.75564000  1.0 -0.0398793359
C  C228  1  0.75564000  0.29870000  0.76120000  1.0 -0.0398793359
C  C229  1  0.70130000  0.76120000  0.24436000  1.0 -0.0398793359
C  C230  1  0.70130000  0.23880000  0.75564000  1.0 -0.0398793359
C  C231  1  0.24436000  0.70130000  0.76120000  1.0 -0.0398793359
C  C232  1  0.76120000  0.75564000  0.29870000  1.0 -0.0398793359
C  C233  1  0.23880000  0.75564000  0.70130000  1.0 -0.0398793359
C  C234  1  0.76120000  0.24436000  0.70130000  1.0 -0.0398793359
C  C235  1  0.76120000  0.75564000  0.70130000  1.0 -0.0398793359
C  C236  1  0.70130000  0.76120000  0.75564000  1.0 -0.0398793359
C  C237  1  0.75564000  0.70130000  0.76120000  1.0 -0.0398793359
C  C238  1  0.24436000  0.29870000  0.76120000  1.0 -0.0398793359
C  C239  1  0.70130000  0.23880000  0.24436000  1.0 -0.0398793359
C  C240  1  0.24436000  0.70130000  0.23880000  1.0 -0.0398793359
C  C241  1  0.29870000  0.23880000  0.75564000  1.0 -0.0398793359
C  C242  1  0.29870000  0.76120000  0.24436000  1.0 -0.0398793359
C  C243  1  0.75564000  0.29870000  0.23880000  1.0 -0.0398793359
C  C244  1  0.23880000  0.24436000  0.70130000  1.0 -0.0398793359
C  C245  1  0.76120000  0.24436000  0.29870000  1.0 -0.0398793359
C  C246  1  0.23880000  0.75564000  0.29870000  1.0 -0.0398793359
C  C247  1  0.31812000  0.15053000  0.31305000  1.0 -0.1406937641
C  C248  1  0.31305000  0.31812000  0.15053000  1.0 -0.1406937641
C  C249  1  0.15053000  0.31305000  0.31812000  1.0 -0.1406937641
C  C250  1  0.84947000  0.68695000  0.31812000  1.0 -0.1406937641
C  C251  1  0.31305000  0.68188000  0.84947000  1.0 -0.1406937641
C  C252  1  0.84947000  0.31305000  0.68188000  1.0 -0.1406937641
C  C253  1  0.68695000  0.68188000  0.15053000  1.0 -0.1406937641
C  C254  1  0.68695000  0.31812000  0.84947000  1.0 -0.1406937641
C  C255  1  0.15053000  0.68695000  0.68188000  1.0 -0.1406937641
C  C256  1  0.68188000  0.84947000  0.31305000  1.0 -0.1406937641
C  C257  1  0.31812000  0.84947000  0.68695000  1.0 -0.1406937641
C  C258  1  0.68188000  0.15053000  0.68695000  1.0 -0.1406937641
C  C259  1  0.68188000  0.84947000  0.68695000  1.0 -0.1406937641
C  C260  1  0.68695000  0.68188000  0.84947000  1.0 -0.1406937641
C  C261  1  0.84947000  0.68695000  0.68188000  1.0 -0.1406937641
C  C262  1  0.15053000  0.31305000  0.68188000  1.0 -0.1406937641
C  C263  1  0.68695000  0.31812000  0.15053000  1.0 -0.1406937641
C  C264  1  0.15053000  0.68695000  0.31812000  1.0 -0.1406937641
C  C265  1  0.31305000  0.31812000  0.84947000  1.0 -0.1406937641
C  C266  1  0.31305000  0.68188000  0.15053000  1.0 -0.1406937641
C  C267  1  0.84947000  0.31305000  0.31812000  1.0 -0.1406937641
C  C268  1  0.31812000  0.15053000  0.68695000  1.0 -0.1406937641
C  C269  1  0.68188000  0.15053000  0.31305000  1.0 -0.1406937641
C  C270  1  0.31812000  0.84947000  0.31305000  1.0 -0.1406937641
C  C271  1  0.11791000  0.00000000  0.50000000  1.0 -0.0631784352
C  C272  1  0.50000000  0.11791000  0.00000000  1.0 -0.0631784352
C  C273  1  0.00000000  0.50000000  0.11791000  1.0 -0.0631784352
C  C274  1  0.50000000  0.88209000  0.00000000  1.0 -0.0631784352
C  C275  1  0.00000000  0.50000000  0.88209000  1.0 -0.0631784352
C  C276  1  0.88209000  0.00000000  0.50000000  1.0 -0.0631784352
C  C277  1  0.22253000  0.25167000  0.38219000  1.0 -0.2400382077
C  C278  1  0.38219000  0.22253000  0.25167000  1.0 -0.2400382077
C  C279  1  0.25167000  0.38219000  0.22253000  1.0 -0.2400382077
C  C280  1  0.74833000  0.61781000  0.22253000  1.0 -0.2400382077
C  C281  1  0.38219000  0.77747000  0.74833000  1.0 -0.2400382077
C  C282  1  0.74833000  0.38219000  0.77747000  1.0 -0.2400382077
C  C283  1  0.61781000  0.77747000  0.25167000  1.0 -0.2400382077
C  C284  1  0.61781000  0.22253000  0.74833000  1.0 -0.2400382077
C  C285  1  0.25167000  0.61781000  0.77747000  1.0 -0.2400382077
C  C286  1  0.77747000  0.74833000  0.38219000  1.0 -0.2400382077
C  C287  1  0.22253000  0.74833000  0.61781000  1.0 -0.2400382077
C  C288  1  0.77747000  0.25167000  0.61781000  1.0 -0.2400382077
C  C289  1  0.77747000  0.74833000  0.61781000  1.0 -0.2400382077
C  C290  1  0.61781000  0.77747000  0.74833000  1.0 -0.2400382077
C  C291  1  0.74833000  0.61781000  0.77747000  1.0 -0.2400382077
C  C292  1  0.25167000  0.38219000  0.77747000  1.0 -0.2400382077
C  C293  1  0.61781000  0.22253000  0.25167000  1.0 -0.2400382077
C  C294  1  0.25167000  0.61781000  0.22253000  1.0 -0.2400382077
C  C295  1  0.38219000  0.22253000  0.74833000  1.0 -0.2400382077
C  C296  1  0.38219000  0.77747000  0.25167000  1.0 -0.2400382077
C  C297  1  0.74833000  0.38219000  0.22253000  1.0 -0.2400382077
C  C298  1  0.22253000  0.25167000  0.61781000  1.0 -0.2400382077
C  C299  1  0.77747000  0.25167000  0.38219000  1.0 -0.2400382077
C  C300  1  0.22253000  0.74833000  0.38219000  1.0 -0.2400382077
C  C301  1  0.16946000  0.17180000  0.29390000  1.0 -0.2108810075
C  C302  1  0.29390000  0.16946000  0.17180000  1.0 -0.2108810075
C  C303  1  0.17180000  0.29390000  0.16946000  1.0 -0.2108810075
C  C304  1  0.82820000  0.70610000  0.16946000  1.0 -0.2108810075
C  C305  1  0.29390000  0.83054000  0.82820000  1.0 -0.2108810075
C  C306  1  0.82820000  0.29390000  0.83054000  1.0 -0.2108810075
C  C307  1  0.70610000  0.83054000  0.17180000  1.0 -0.2108810075
C  C308  1  0.70610000  0.16946000  0.82820000  1.0 -0.2108810075
C  C309  1  0.17180000  0.70610000  0.83054000  1.0 -0.2108810075
C  C310  1  0.83054000  0.82820000  0.29390000  1.0 -0.2108810075
C  C311  1  0.16946000  0.82820000  0.70610000  1.0 -0.2108810075
C  C312  1  0.83054000  0.17180000  0.70610000  1.0 -0.2108810075
C  C313  1  0.83054000  0.82820000  0.70610000  1.0 -0.2108810075
C  C314  1  0.70610000  0.83054000  0.82820000  1.0 -0.2108810075
C  C315  1  0.82820000  0.70610000  0.83054000  1.0 -0.2108810075
C  C316  1  0.17180000  0.29390000  0.83054000  1.0 -0.2108810075
C  C317  1  0.70610000  0.16946000  0.17180000  1.0 -0.2108810075
C  C318  1  0.17180000  0.70610000  0.16946000  1.0 -0.2108810075
C  C319  1  0.29390000  0.16946000  0.82820000  1.0 -0.2108810075
C  C320  1  0.29390000  0.83054000  0.17180000  1.0 -0.2108810075
C  C321  1  0.82820000  0.29390000  0.16946000  1.0 -0.2108810075
C  C322  1  0.16946000  0.17180000  0.70610000  1.0 -0.2108810075
C  C323  1  0.83054000  0.17180000  0.29390000  1.0 -0.2108810075
C  C324  1  0.16946000  0.82820000  0.29390000  1.0 -0.2108810075
C  C325  1  0.17411000  0.20165000  0.33468000  1.0 -0.2283196849
C  C326  1  0.33468000  0.17411000  0.20165000  1.0 -0.2283196849
C  C327  1  0.20165000  0.33468000  0.17411000  1.0 -0.2283196849
C  C328  1  0.79835000  0.66532000  0.17411000  1.0 -0.2283196849
C  C329  1  0.33468000  0.82589000  0.79835000  1.0 -0.2283196849
C  C330  1  0.79835000  0.33468000  0.82589000  1.0 -0.2283196849
C  C331  1  0.66532000  0.82589000  0.20165000  1.0 -0.2283196849
C  C332  1  0.66532000  0.17411000  0.79835000  1.0 -0.2283196849
C  C333  1  0.20165000  0.66532000  0.82589000  1.0 -0.2283196849
C  C334  1  0.82589000  0.79835000  0.33468000  1.0 -0.2283196849
C  C335  1  0.17411000  0.79835000  0.66532000  1.0 -0.2283196849
C  C336  1  0.82589000  0.20165000  0.66532000  1.0 -0.2283196849
C  C337  1  0.82589000  0.79835000  0.66532000  1.0 -0.2283196849
C  C338  1  0.66532000  0.82589000  0.79835000  1.0 -0.2283196849
C  C339  1  0.79835000  0.66532000  0.82589000  1.0 -0.2283196849
C  C340  1  0.20165000  0.33468000  0.82589000  1.0 -0.2283196849
C  C341  1  0.66532000  0.17411000  0.20165000  1.0 -0.2283196849
C  C342  1  0.20165000  0.66532000  0.17411000  1.0 -0.2283196849
C  C343  1  0.33468000  0.17411000  0.79835000  1.0 -0.2283196849
C  C344  1  0.33468000  0.82589000  0.20165000  1.0 -0.2283196849
C  C345  1  0.79835000  0.33468000  0.17411000  1.0 -0.2283196849
C  C346  1  0.17411000  0.20165000  0.66532000  1.0 -0.2283196849
C  C347  1  0.82589000  0.20165000  0.33468000  1.0 -0.2283196849
C  C348  1  0.17411000  0.79835000  0.33468000  1.0 -0.2283196849
C  C349  1  0.09478000  0.03831000  0.50000000  1.0 -0.0899852715
C  C350  1  0.50000000  0.09478000  0.03831000  1.0 -0.0899852715
C  C351  1  0.03831000  0.50000000  0.09478000  1.0 -0.0899852715
C  C352  1  0.96169000  0.50000000  0.09478000  1.0 -0.0899852715
C  C353  1  0.50000000  0.90522000  0.96169000  1.0 -0.0899852715
C  C354  1  0.96169000  0.50000000  0.90522000  1.0 -0.0899852715
C  C355  1  0.50000000  0.90522000  0.03831000  1.0 -0.0899852715
C  C356  1  0.50000000  0.09478000  0.96169000  1.0 -0.0899852715
C  C357  1  0.03831000  0.50000000  0.90522000  1.0 -0.0899852715
C  C358  1  0.90522000  0.96169000  0.50000000  1.0 -0.0899852715
C  C359  1  0.09478000  0.96169000  0.50000000  1.0 -0.0899852715
C  C360  1  0.90522000  0.03831000  0.50000000  1.0 -0.0899852715
C  C361  1  0.26760000  0.27237000  0.39000000  1.0 -0.1710886367
C  C362  1  0.39000000  0.26760000  0.27237000  1.0 -0.1710886367
C  C363  1  0.27237000  0.39000000  0.26760000  1.0 -0.1710886367
C  C364  1  0.72763000  0.61000000  0.26760000  1.0 -0.1710886367
C  C365  1  0.39000000  0.73240000  0.72763000  1.0 -0.1710886367
C  C366  1  0.72763000  0.39000000  0.73240000  1.0 -0.1710886367
C  C367  1  0.61000000  0.73240000  0.27237000  1.0 -0.1710886367
C  C368  1  0.61000000  0.26760000  0.72763000  1.0 -0.1710886367
C  C369  1  0.27237000  0.61000000  0.73240000  1.0 -0.1710886367
C  C370  1  0.73240000  0.72763000  0.39000000  1.0 -0.1710886367
C  C371  1  0.26760000  0.72763000  0.61000000  1.0 -0.1710886367
C  C372  1  0.73240000  0.27237000  0.61000000  1.0 -0.1710886367
C  C373  1  0.73240000  0.72763000  0.61000000  1.0 -0.1710886367
C  C374  1  0.61000000  0.73240000  0.72763000  1.0 -0.1710886367
C  C375  1  0.72763000  0.61000000  0.73240000  1.0 -0.1710886367
C  C376  1  0.27237000  0.39000000  0.73240000  1.0 -0.1710886367
C  C377  1  0.61000000  0.26760000  0.27237000  1.0 -0.1710886367
C  C378  1  0.27237000  0.61000000  0.26760000  1.0 -0.1710886367
C  C379  1  0.39000000  0.26760000  0.72763000  1.0 -0.1710886367
C  C380  1  0.39000000  0.73240000  0.27237000  1.0 -0.1710886367
C  C381  1  0.72763000  0.39000000  0.26760000  1.0 -0.1710886367
C  C382  1  0.26760000  0.27237000  0.61000000  1.0 -0.1710886367
C  C383  1  0.73240000  0.27237000  0.39000000  1.0 -0.1710886367
C  C384  1  0.26760000  0.72763000  0.39000000  1.0 -0.1710886367
C  C385  1  0.02487000  0.00000000  0.50000000  1.0 0.0839366337
C  C386  1  0.50000000  0.02487000  0.00000000  1.0 0.0839366337
C  C387  1  0.00000000  0.50000000  0.02487000  1.0 0.0839366337
C  C388  1  0.50000000  0.97513000  0.00000000  1.0 0.0839366337
C  C389  1  0.00000000  0.50000000  0.97513000  1.0 0.0839366337
C  C390  1  0.97513000  0.00000000  0.50000000  1.0 0.0839366337
C  C391  1  0.04811000  0.03814000  0.50000000  1.0 -0.153103466
C  C392  1  0.50000000  0.04811000  0.03814000  1.0 -0.153103466
C  C393  1  0.03814000  0.50000000  0.04811000  1.0 -0.153103466
C  C394  1  0.96186000  0.50000000  0.04811000  1.0 -0.153103466
C  C395  1  0.50000000  0.95189000  0.96186000  1.0 -0.153103466
C  C396  1  0.96186000  0.50000000  0.95189000  1.0 -0.153103466
C  C397  1  0.50000000  0.95189000  0.03814000  1.0 -0.153103466
C  C398  1  0.50000000  0.04811000  0.96186000  1.0 -0.153103466
C  C399  1  0.03814000  0.50000000  0.95189000  1.0 -0.153103466
C  C400  1  0.95189000  0.96186000  0.50000000  1.0 -0.153103466
C  C401  1  0.04811000  0.96186000  0.50000000  1.0 -0.153103466
C  C402  1  0.95189000  0.03814000  0.50000000  1.0 -0.153103466
C  C403  1  0.26680000  0.30770000  0.42990000  1.0 -0.0999641688
C  C404  1  0.42990000  0.26680000  0.30770000  1.0 -0.0999641688
C  C405  1  0.30770000  0.42990000  0.26680000  1.0 -0.0999641688
C  C406  1  0.69230000  0.57010000  0.26680000  1.0 -0.0999641688
C  C407  1  0.42990000  0.73320000  0.69230000  1.0 -0.0999641688
C  C408  1  0.69230000  0.42990000  0.73320000  1.0 -0.0999641688
C  C409  1  0.57010000  0.73320000  0.30770000  1.0 -0.0999641688
C  C410  1  0.57010000  0.26680000  0.69230000  1.0 -0.0999641688
C  C411  1  0.30770000  0.57010000  0.73320000  1.0 -0.0999641688
C  C412  1  0.73320000  0.69230000  0.42990000  1.0 -0.0999641688
C  C413  1  0.26680000  0.69230000  0.57010000  1.0 -0.0999641688
C  C414  1  0.73320000  0.30770000  0.57010000  1.0 -0.0999641688
C  C415  1  0.73320000  0.69230000  0.57010000  1.0 -0.0999641688
C  C416  1  0.57010000  0.73320000  0.69230000  1.0 -0.0999641688
C  C417  1  0.69230000  0.57010000  0.73320000  1.0 -0.0999641688
C  C418  1  0.30770000  0.42990000  0.73320000  1.0 -0.0999641688
C  C419  1  0.57010000  0.26680000  0.30770000  1.0 -0.0999641688
C  C420  1  0.30770000  0.57010000  0.26680000  1.0 -0.0999641688
C  C421  1  0.42990000  0.26680000  0.69230000  1.0 -0.0999641688
C  C422  1  0.42990000  0.73320000  0.30770000  1.0 -0.0999641688
C  C423  1  0.69230000  0.42990000  0.26680000  1.0 -0.0999641688
C  C424  1  0.26680000  0.30770000  0.57010000  1.0 -0.0999641688
C  C425  1  0.73320000  0.30770000  0.42990000  1.0 -0.0999641688
C  C426  1  0.26680000  0.69230000  0.42990000  1.0 -0.0999641688
C  C427  1  0.31570000  0.32780000  0.42950000  1.0 -0.3716839976
C  C428  1  0.42950000  0.31570000  0.32780000  1.0 -0.3716839976
C  C429  1  0.32780000  0.42950000  0.31570000  1.0 -0.3716839976
C  C430  1  0.67220000  0.57050000  0.31570000  1.0 -0.3716839976
C  C431  1  0.42950000  0.68430000  0.67220000  1.0 -0.3716839976
C  C432  1  0.67220000  0.42950000  0.68430000  1.0 -0.3716839976
C  C433  1  0.57050000  0.68430000  0.32780000  1.0 -0.3716839976
C  C434  1  0.57050000  0.31570000  0.67220000  1.0 -0.3716839976
C  C435  1  0.32780000  0.57050000  0.68430000  1.0 -0.3716839976
C  C436  1  0.68430000  0.67220000  0.42950000  1.0 -0.3716839976
C  C437  1  0.31570000  0.67220000  0.57050000  1.0 -0.3716839976
C  C438  1  0.68430000  0.32780000  0.57050000  1.0 -0.3716839976
C  C439  1  0.68430000  0.67220000  0.57050000  1.0 -0.3716839976
C  C440  1  0.57050000  0.68430000  0.67220000  1.0 -0.3716839976
C  C441  1  0.67220000  0.57050000  0.68430000  1.0 -0.3716839976
C  C442  1  0.32780000  0.42950000  0.68430000  1.0 -0.3716839976
C  C443  1  0.57050000  0.31570000  0.32780000  1.0 -0.3716839976
C  C444  1  0.32780000  0.57050000  0.31570000  1.0 -0.3716839976
C  C445  1  0.42950000  0.31570000  0.67220000  1.0 -0.3716839976
C  C446  1  0.42950000  0.68430000  0.32780000  1.0 -0.3716839976
C  C447  1  0.67220000  0.42950000  0.31570000  1.0 -0.3716839976
C  C448  1  0.31570000  0.32780000  0.57050000  1.0 -0.3716839976
C  C449  1  0.68430000  0.32780000  0.42950000  1.0 -0.3716839976
C  C450  1  0.31570000  0.67220000  0.42950000  1.0 -0.3716839976
C  C451  1  0.11980000  0.15130000  0.29240000  1.0 0.0253961041
C  C452  1  0.29240000  0.11980000  0.15130000  1.0 0.0253961041
C  C453  1  0.15130000  0.29240000  0.11980000  1.0 0.0253961041
C  C454  1  0.84870000  0.70760000  0.11980000  1.0 0.022909585
C  C455  1  0.29240000  0.88020000  0.84870000  1.0 0.022909585
C  C456  1  0.84870000  0.29240000  0.88020000  1.0 0.022909585
C  C457  1  0.70760000  0.88020000  0.15130000  1.0 0.022909585
C  C458  1  0.70760000  0.11980000  0.84870000  1.0 0.022909585
C  C459  1  0.15130000  0.70760000  0.88020000  1.0 0.022909585
C  C460  1  0.88020000  0.84870000  0.29240000  1.0 0.022909585
C  C461  1  0.11980000  0.84870000  0.70760000  1.0 0.022909585
C  C462  1  0.88020000  0.15130000  0.70760000  1.0 0.022909585
C  C463  1  0.88020000  0.84870000  0.70760000  1.0 0.022909585
C  C464  1  0.70760000  0.88020000  0.84870000  1.0 0.022909585
C  C465  1  0.84870000  0.70760000  0.88020000  1.0 0.022909585
C  C466  1  0.15130000  0.29240000  0.88020000  1.0 0.022909585
C  C467  1  0.70760000  0.11980000  0.15130000  1.0 0.022909585
C  C468  1  0.15130000  0.70760000  0.11980000  1.0 0.022909585
C  C469  1  0.29240000  0.11980000  0.84870000  1.0 0.0253961041
C  C470  1  0.29240000  0.88020000  0.15130000  1.0 0.022909585
C  C471  1  0.84870000  0.29240000  0.11980000  1.0 0.022909585
C  C472  1  0.11980000  0.15130000  0.70760000  1.0 0.0253961041
C  C473  1  0.88020000  0.15130000  0.29240000  1.0 0.022909585
C  C474  1  0.11980000  0.84870000  0.29240000  1.0 0.022909585
C  C475  1  0.10310000  0.19520000  0.26340000  0.368 -0.3716839976
C  C476  1  0.26340000  0.10310000  0.19520000  0.368 -0.3716839976
C  C477  1  0.19520000  0.26340000  0.10310000  0.368 -0.3716839976
C  C478  1  0.80480000  0.73660000  0.10310000  0.368 -0.3716839976
C  C479  1  0.26340000  0.89690000  0.80480000  0.368 -0.3716839976
C  C480  1  0.80480000  0.26340000  0.89690000  0.368 -0.3716839976
C  C481  1  0.73660000  0.89690000  0.19520000  0.368 -0.3716839976
C  C482  1  0.73660000  0.10310000  0.80480000  0.368 -0.3716839976
C  C483  1  0.19520000  0.73660000  0.89690000  0.368 -0.3716839976
C  C484  1  0.89690000  0.80480000  0.26340000  0.368 -0.3716839976
C  C485  1  0.10310000  0.80480000  0.73660000  0.368 -0.3716839976
C  C486  1  0.89690000  0.19520000  0.73660000  0.368 -0.3716839976
C  C487  1  0.89690000  0.80480000  0.73660000  0.368 -0.3716839976
C  C488  1  0.73660000  0.89690000  0.80480000  0.368 -0.3716839976
C  C489  1  0.80480000  0.73660000  0.89690000  0.368 -0.3716839976
C  C490  1  0.19520000  0.26340000  0.89690000  0.368 -0.3716839976
C  C491  1  0.73660000  0.10310000  0.19520000  0.368 -0.3716839976
C  C492  1  0.19520000  0.73660000  0.10310000  0.368 -0.3716839976
C  C493  1  0.26340000  0.10310000  0.80480000  0.368 -0.3716839976
C  C494  1  0.26340000  0.89690000  0.19520000  0.368 -0.3716839976
C  C495  1  0.80480000  0.26340000  0.10310000  0.368 -0.3716839976
C  C496  1  0.10310000  0.19520000  0.73660000  0.368 -0.3716839976
C  C497  1  0.89690000  0.19520000  0.26340000  0.368 -0.3716839976
C  C498  1  0.10310000  0.80480000  0.26340000  0.368 -0.3716839976
C  C499  1  0.12780000  0.12970000  0.24410000  0.632 -0.3525781063
C  C500  1  0.24410000  0.12780000  0.12970000  0.632 -0.3525781063
C  C501  1  0.12970000  0.24410000  0.12780000  0.632 -0.3525781063
C  C502  1  0.87030000  0.75590000  0.12780000  0.632 -0.3525781063
C  C503  1  0.24410000  0.87220000  0.87030000  0.632 -0.3525781063
C  C504  1  0.87030000  0.24410000  0.87220000  0.632 -0.3525781063
C  C505  1  0.75590000  0.87220000  0.12970000  0.632 -0.3525781063
C  C506  1  0.75590000  0.12780000  0.87030000  0.632 -0.3525781063
C  C507  1  0.12970000  0.75590000  0.87220000  0.632 -0.3525781063
C  C508  1  0.87220000  0.87030000  0.24410000  0.632 -0.3525781063
C  C509  1  0.12780000  0.87030000  0.75590000  0.632 -0.3525781063
C  C510  1  0.87220000  0.12970000  0.75590000  0.632 -0.3525781063
C  C511  1  0.87220000  0.87030000  0.75590000  0.632 -0.3525781063
C  C512  1  0.75590000  0.87220000  0.87030000  0.632 -0.3525781063
C  C513  1  0.87030000  0.75590000  0.87220000  0.632 -0.3525781063
C  C514  1  0.12970000  0.24410000  0.87220000  0.632 -0.3525781063
C  C515  1  0.75590000  0.12780000  0.12970000  0.632 -0.3525781063
C  C516  1  0.12970000  0.75590000  0.12780000  0.632 -0.3525781063
C  C517  1  0.24410000  0.12780000  0.87030000  0.632 -0.3525781063
C  C518  1  0.24410000  0.87220000  0.12970000  0.632 -0.3525781063
C  C519  1  0.87030000  0.24410000  0.12780000  0.632 -0.3525781063
C  C520  1  0.12780000  0.12970000  0.75590000  0.632 -0.3525781063
C  C521  1  0.87220000  0.12970000  0.24410000  0.632 -0.3525781063
C  C522  1  0.12780000  0.87030000  0.24410000  0.632 -0.3525781063
O  O1  1  0.28565000  0.00000000  0.50000000  1.0 -1.033395375
O  O2  1  0.50000000  0.28565000  0.00000000  1.0 -1.033395375
O  O3  1  0.00000000  0.50000000  0.28565000  1.0 -1.033395375
O  O4  1  0.50000000  0.71435000  0.00000000  1.0 -1.033395375
O  O5  1  0.00000000  0.50000000  0.71435000  1.0 -1.033395375
O  O6  1  0.71435000  0.00000000  0.50000000  1.0 -1.033395375
O  O7  1  0.25907000  0.08899000  0.44723000  1.0 -0.539101581
O  O8  1  0.44723000  0.25907000  0.08899000  1.0 -0.539101581
O  O9  1  0.08899000  0.44723000  0.25907000  1.0 -0.539101581
O  O10  1  0.91101000  0.55277000  0.25907000  1.0 -0.539101581
O  O11  1  0.44723000  0.74093000  0.91101000  1.0 -0.539101581
O  O12  1  0.91101000  0.44723000  0.74093000  1.0 -0.539101581
O  O13  1  0.55277000  0.74093000  0.08899000  1.0 -0.539101581
O  O14  1  0.55277000  0.25907000  0.91101000  1.0 -0.539101581
O  O15  1  0.08899000  0.55277000  0.74093000  1.0 -0.539101581
O  O16  1  0.74093000  0.91101000  0.44723000  1.0 -0.539101581
O  O17  1  0.25907000  0.91101000  0.55277000  1.0 -0.539101581
O  O18  1  0.74093000  0.08899000  0.55277000  1.0 -0.539101581
O  O19  1  0.74093000  0.91101000  0.55277000  1.0 -0.539101581
O  O20  1  0.55277000  0.74093000  0.91101000  1.0 -0.539101581
O  O21  1  0.91101000  0.55277000  0.74093000  1.0 -0.539101581
O  O22  1  0.08899000  0.44723000  0.74093000  1.0 -0.539101581
O  O23  1  0.55277000  0.25907000  0.08899000  1.0 -0.539101581
O  O24  1  0.08899000  0.55277000  0.25907000  1.0 -0.539101581
O  O25  1  0.44723000  0.25907000  0.91101000  1.0 -0.539101581
O  O26  1  0.44723000  0.74093000  0.08899000  1.0 -0.539101581
O  O27  1  0.91101000  0.44723000  0.25907000  1.0 -0.539101581
O  O28  1  0.25907000  0.08899000  0.55277000  1.0 -0.539101581
O  O29  1  0.74093000  0.08899000  0.44723000  1.0 -0.539101581
O  O30  1  0.25907000  0.91101000  0.44723000  1.0 -0.539101581
O  O31  1  0.31223000  0.05238000  0.41069000  1.0 -0.5263902274
O  O32  1  0.41069000  0.31223000  0.05238000  1.0 -0.5263902274
O  O33  1  0.05238000  0.41069000  0.31223000  1.0 -0.5263902274
O  O34  1  0.94762000  0.58931000  0.31223000  1.0 -0.5263902274
O  O35  1  0.41069000  0.68777000  0.94762000  1.0 -0.5263902274
O  O36  1  0.94762000  0.41069000  0.68777000  1.0 -0.5263902274
O  O37  1  0.58931000  0.68777000  0.05238000  1.0 -0.5263902274
O  O38  1  0.58931000  0.31223000  0.94762000  1.0 -0.5263902274
O  O39  1  0.05238000  0.58931000  0.68777000  1.0 -0.5263902274
O  O40  1  0.68777000  0.94762000  0.41069000  1.0 -0.5263902274
O  O41  1  0.31223000  0.94762000  0.58931000  1.0 -0.5263902274
O  O42  1  0.68777000  0.05238000  0.58931000  1.0 -0.5263902274
O  O43  1  0.68777000  0.94762000  0.58931000  1.0 -0.5263902274
O  O44  1  0.58931000  0.68777000  0.94762000  1.0 -0.5263902274
O  O45  1  0.94762000  0.58931000  0.68777000  1.0 -0.5263902274
O  O46  1  0.05238000  0.41069000  0.68777000  1.0 -0.5263902274
O  O47  1  0.58931000  0.31223000  0.05238000  1.0 -0.5263902274
O  O48  1  0.05238000  0.58931000  0.31223000  1.0 -0.5263902274
O  O49  1  0.41069000  0.31223000  0.94762000  1.0 -0.5263902274
O  O50  1  0.41069000  0.68777000  0.05238000  1.0 -0.5263902274
O  O51  1  0.94762000  0.41069000  0.31223000  1.0 -0.5263902274
O  O52  1  0.31223000  0.05238000  0.58931000  1.0 -0.5263902274
O  O53  1  0.68777000  0.05238000  0.41069000  1.0 -0.5263902274
O  O54  1  0.31223000  0.94762000  0.41069000  1.0 -0.5263902274
O  O55  1  0.38504000  0.00000000  0.46296000  1.0 -0.5201383104
O  O56  1  0.46296000  0.38504000  0.00000000  1.0 -0.5201383104
O  O57  1  0.00000000  0.46296000  0.38504000  1.0 -0.5201383104
O  O58  1  0.00000000  0.53704000  0.38504000  1.0 -0.5201383104
O  O59  1  0.46296000  0.61496000  0.00000000  1.0 -0.5201383104
O  O60  1  0.00000000  0.46296000  0.61496000  1.0 -0.5201383104
O  O61  1  0.53704000  0.61496000  0.00000000  1.0 -0.5201383104
O  O62  1  0.53704000  0.38504000  0.00000000  1.0 -0.5201383104
O  O63  1  0.00000000  0.53704000  0.61496000  1.0 -0.5201383104
O  O64  1  0.61496000  0.00000000  0.46296000  1.0 -0.5201383104
O  O65  1  0.38504000  0.00000000  0.53704000  1.0 -0.5201383104
O  O66  1  0.61496000  0.00000000  0.53704000  1.0 -0.5201383104
O  O67  1  0.18637000  0.03712000  0.50000000  1.0 -0.5201383104
O  O68  1  0.50000000  0.18637000  0.03712000  1.0 -0.5201383104
O  O69  1  0.03712000  0.50000000  0.18637000  1.0 -0.5201383104
O  O70  1  0.96288000  0.50000000  0.18637000  1.0 -0.5201383104
O  O71  1  0.50000000  0.81363000  0.96288000  1.0 -0.5148504031
O  O72  1  0.96288000  0.50000000  0.81363000  1.0 -0.5201383104
O  O73  1  0.50000000  0.81363000  0.03712000  1.0 -0.5148504031
O  O74  1  0.50000000  0.18637000  0.96288000  1.0 -0.5201383104
O  O75  1  0.03712000  0.50000000  0.81363000  1.0 -0.5201383104
O  O76  1  0.81363000  0.96288000  0.50000000  1.0 -0.5201383104
O  O77  1  0.18637000  0.96288000  0.50000000  1.0 -0.5201383104
O  O78  1  0.81363000  0.03712000  0.50000000  1.0 -0.5201383104
