# DDEC6 charges by PACMAN v1.1 (https://github.com/mtap-research/PACMAN-charge/)
data_c6cc00589f2_2_FSR_pacman
_symmetry_space_group_name_H-M   'P 1'
_cell_length_a   17.02930000
_cell_length_b   17.02930000
_cell_length_c   17.02930000
_cell_angle_alpha   90.00000000
_cell_angle_beta   90.00000000
_cell_angle_gamma   90.00000000
_symmetry_Int_Tables_number   1
_chemical_formula_structural   ZnH6(CN2)4
_chemical_formula_sum   'Zn12 H72 C48 N96'
_cell_volume   4938.44690814
_cell_formula_units_Z   12
loop_
 _symmetry_equiv_pos_site_id
 _symmetry_equiv_pos_as_xyz
  1  'x, y, z'
loop_
 _atom_site_type_symbol
 _atom_site_label
 _atom_site_symmetry_multiplicity
 _atom_site_fract_x
 _atom_site_fract_y
 _atom_site_fract_z
 _atom_site_occupancy
 _atom_site_charge
Zn  Zn1  1  0.00000000  0.50000000  0.25000000  1.0 0.5831747853
Zn  Zn2  1  0.00000000  0.50000000  0.75000000  1.0 0.5831747853
Zn  Zn3  1  0.25000000  0.00000000  0.50000000  1.0 0.5831747853
Zn  Zn4  1  0.75000000  0.00000000  0.50000000  1.0 0.5831747853
Zn  Zn5  1  0.50000000  0.25000000  0.00000000  1.0 0.5831747853
Zn  Zn6  1  0.50000000  0.75000000  0.00000000  1.0 0.5831747853
Zn  Zn7  1  0.50000000  0.00000000  0.25000000  1.0 0.5831747853
Zn  Zn8  1  0.50000000  0.00000000  0.75000000  1.0 0.5831747853
Zn  Zn9  1  0.00000000  0.25000000  0.50000000  1.0 0.5831747853
Zn  Zn10  1  0.00000000  0.75000000  0.50000000  1.0 0.5831747853
Zn  Zn11  1  0.25000000  0.50000000  0.00000000  1.0 0.5831747853
Zn  Zn12  1  0.75000000  0.50000000  0.00000000  1.0 0.5831747853
H  H1  1  0.88050000  0.43980000  0.36470000  0.5 0.0726935916
H  H2  1  0.11950000  0.56020000  0.36470000  0.5 0.0726935916
H  H3  1  0.11950000  0.43980000  0.63530000  0.5 0.0726935916
H  H4  1  0.88050000  0.56020000  0.63530000  0.5 0.0726935916
H  H5  1  0.36470000  0.88050000  0.43980000  0.5 0.0726935916
H  H6  1  0.36470000  0.11950000  0.56020000  0.5 0.0726935916
H  H7  1  0.63530000  0.11950000  0.43980000  0.5 0.0726935916
H  H8  1  0.63530000  0.88050000  0.56020000  0.5 0.0726935916
H  H9  1  0.43980000  0.36470000  0.88050000  0.5 0.0726935916
H  H10  1  0.56020000  0.36470000  0.11950000  0.5 0.0726935916
H  H11  1  0.43980000  0.63530000  0.11950000  0.5 0.0726935916
H  H12  1  0.56020000  0.63530000  0.88050000  0.5 0.0726935916
H  H13  1  0.43980000  0.88050000  0.36470000  0.5 0.0726935916
H  H14  1  0.56020000  0.11950000  0.36470000  0.5 0.0726935916
H  H15  1  0.43980000  0.11950000  0.63530000  0.5 0.0726935916
H  H16  1  0.56020000  0.88050000  0.63530000  0.5 0.0726935916
H  H17  1  0.88050000  0.36470000  0.43980000  0.5 0.0726935916
H  H18  1  0.11950000  0.36470000  0.56020000  0.5 0.0726935916
H  H19  1  0.11950000  0.63530000  0.43980000  0.5 0.0726935916
H  H20  1  0.88050000  0.63530000  0.56020000  0.5 0.0726935916
H  H21  1  0.36470000  0.43980000  0.88050000  0.5 0.0726935916
H  H22  1  0.36470000  0.56020000  0.11950000  0.5 0.0726935916
H  H23  1  0.63530000  0.43980000  0.11950000  0.5 0.0726935916
H  H24  1  0.63530000  0.56020000  0.88050000  0.5 0.0726935916
H  H25  1  0.38050000  0.93980000  0.86470000  0.5 0.0726935916
H  H26  1  0.61950000  0.06020000  0.86470000  0.5 0.0726935916
H  H27  1  0.61950000  0.93980000  0.13530000  0.5 0.0726935916
H  H28  1  0.38050000  0.06020000  0.13530000  0.5 0.0726935916
H  H29  1  0.86470000  0.38050000  0.93980000  0.5 0.0726935916
H  H30  1  0.86470000  0.61950000  0.06020000  0.5 0.0726935916
H  H31  1  0.13530000  0.61950000  0.93980000  0.5 0.0726935916
H  H32  1  0.13530000  0.38050000  0.06020000  0.5 0.0726935916
H  H33  1  0.93980000  0.86470000  0.38050000  0.5 0.0726935916
H  H34  1  0.06020000  0.86470000  0.61950000  0.5 0.0726935916
H  H35  1  0.93980000  0.13530000  0.61950000  0.5 0.0726935916
H  H36  1  0.06020000  0.13530000  0.38050000  0.5 0.0726935916
H  H37  1  0.93980000  0.38050000  0.86470000  0.5 0.0726935916
H  H38  1  0.06020000  0.61950000  0.86470000  0.5 0.0726935916
H  H39  1  0.93980000  0.61950000  0.13530000  0.5 0.0726935916
H  H40  1  0.06020000  0.38050000  0.13530000  0.5 0.0726935916
H  H41  1  0.38050000  0.86470000  0.93980000  0.5 0.0726935916
H  H42  1  0.61950000  0.86470000  0.06020000  0.5 0.0726935916
H  H43  1  0.61950000  0.13530000  0.93980000  0.5 0.0726935916
H  H44  1  0.38050000  0.13530000  0.06020000  0.5 0.0726935916
H  H45  1  0.86470000  0.93980000  0.38050000  0.5 0.0726935916
H  H46  1  0.86470000  0.06020000  0.61950000  0.5 0.0726935916
H  H47  1  0.13530000  0.93980000  0.61950000  0.5 0.0726935916
H  H48  1  0.13530000  0.06020000  0.38050000  0.5 0.0726935916
H  H49  1  0.86370000  0.35300000  0.39010000  0.5 0.0779571027
H  H50  1  0.13630000  0.64700000  0.39010000  0.5 0.0779571027
H  H51  1  0.13630000  0.35300000  0.60990000  0.5 0.0779571027
H  H52  1  0.86370000  0.64700000  0.60990000  0.5 0.0779571027
H  H53  1  0.39010000  0.86370000  0.35300000  0.5 0.0779571027
H  H54  1  0.39010000  0.13630000  0.64700000  0.5 0.0779571027
H  H55  1  0.60990000  0.13630000  0.35300000  0.5 0.0779571027
H  H56  1  0.60990000  0.86370000  0.64700000  0.5 0.0779571027
H  H57  1  0.35300000  0.39010000  0.86370000  0.5 0.0779571027
H  H58  1  0.64700000  0.39010000  0.13630000  0.5 0.0779571027
H  H59  1  0.35300000  0.60990000  0.13630000  0.5 0.0779571027
H  H60  1  0.64700000  0.60990000  0.86370000  0.5 0.0779571027
H  H61  1  0.35300000  0.86370000  0.39010000  0.5 0.0779571027
H  H62  1  0.64700000  0.13630000  0.39010000  0.5 0.0779571027
H  H63  1  0.35300000  0.13630000  0.60990000  0.5 0.0779571027
H  H64  1  0.64700000  0.86370000  0.60990000  0.5 0.0779571027
H  H65  1  0.86370000  0.39010000  0.35300000  0.5 0.0779571027
H  H66  1  0.13630000  0.39010000  0.64700000  0.5 0.0779571027
H  H67  1  0.13630000  0.60990000  0.35300000  0.5 0.0779571027
H  H68  1  0.86370000  0.60990000  0.64700000  0.5 0.0779571027
H  H69  1  0.39010000  0.35300000  0.86370000  0.5 0.0779571027
H  H70  1  0.39010000  0.64700000  0.13630000  0.5 0.0779571027
H  H71  1  0.60990000  0.35300000  0.13630000  0.5 0.0779571027
H  H72  1  0.60990000  0.64700000  0.86370000  0.5 0.0779571027
H  H73  1  0.36370000  0.85300000  0.89010000  0.5 0.0779571027
H  H74  1  0.63630000  0.14700000  0.89010000  0.5 0.0779571027
H  H75  1  0.63630000  0.85300000  0.10990000  0.5 0.0779571027
H  H76  1  0.36370000  0.14700000  0.10990000  0.5 0.0779571027
H  H77  1  0.89010000  0.36370000  0.85300000  0.5 0.0779571027
H  H78  1  0.89010000  0.63630000  0.14700000  0.5 0.0779571027
H  H79  1  0.10990000  0.63630000  0.85300000  0.5 0.0779571027
H  H80  1  0.10990000  0.36370000  0.14700000  0.5 0.0779571027
H  H81  1  0.85300000  0.89010000  0.36370000  0.5 0.0779571027
H  H82  1  0.14700000  0.89010000  0.63630000  0.5 0.0779571027
H  H83  1  0.85300000  0.10990000  0.63630000  0.5 0.0779571027
H  H84  1  0.14700000  0.10990000  0.36370000  0.5 0.0779571027
H  H85  1  0.85300000  0.36370000  0.89010000  0.5 0.0779571027
H  H86  1  0.14700000  0.63630000  0.89010000  0.5 0.0779571027
H  H87  1  0.85300000  0.63630000  0.10990000  0.5 0.0779571027
H  H88  1  0.14700000  0.36370000  0.10990000  0.5 0.0779571027
H  H89  1  0.36370000  0.89010000  0.85300000  0.5 0.0779571027
H  H90  1  0.63630000  0.89010000  0.14700000  0.5 0.0779571027
H  H91  1  0.63630000  0.10990000  0.85300000  0.5 0.0779571027
H  H92  1  0.36370000  0.10990000  0.14700000  0.5 0.0779571027
H  H93  1  0.89010000  0.85300000  0.36370000  0.5 0.0779571027
H  H94  1  0.89010000  0.14700000  0.63630000  0.5 0.0779571027
H  H95  1  0.10990000  0.85300000  0.63630000  0.5 0.0779571027
H  H96  1  0.10990000  0.14700000  0.36370000  0.5 0.0779571027
H  H97  1  0.89690000  0.41330000  0.45130000  0.5 0.0779571027
H  H98  1  0.10310000  0.58670000  0.45130000  0.5 0.0779571027
H  H99  1  0.10310000  0.41330000  0.54870000  0.5 0.0779571027
H  H100  1  0.89690000  0.58670000  0.54870000  0.5 0.0779571027
H  H101  1  0.45130000  0.89690000  0.41330000  0.5 0.0779571027
H  H102  1  0.45130000  0.10310000  0.58670000  0.5 0.0779571027
H  H103  1  0.54870000  0.10310000  0.41330000  0.5 0.0779571027
H  H104  1  0.54870000  0.89690000  0.58670000  0.5 0.0779571027
H  H105  1  0.41330000  0.45130000  0.89690000  0.5 0.0779571027
H  H106  1  0.58670000  0.45130000  0.10310000  0.5 0.0779571027
H  H107  1  0.41330000  0.54870000  0.10310000  0.5 0.0779571027
H  H108  1  0.58670000  0.54870000  0.89690000  0.5 0.0779571027
H  H109  1  0.41330000  0.89690000  0.45130000  0.5 0.0779571027
H  H110  1  0.58670000  0.10310000  0.45130000  0.5 0.0779571027
H  H111  1  0.41330000  0.10310000  0.54870000  0.5 0.0779571027
H  H112  1  0.58670000  0.89690000  0.54870000  0.5 0.0779571027
H  H113  1  0.89690000  0.45130000  0.41330000  0.5 0.0779571027
H  H114  1  0.10310000  0.45130000  0.58670000  0.5 0.0779571027
H  H115  1  0.10310000  0.54870000  0.41330000  0.5 0.0779571027
H  H116  1  0.89690000  0.54870000  0.58670000  0.5 0.0779571027
H  H117  1  0.45130000  0.41330000  0.89690000  0.5 0.0779571027
H  H118  1  0.45130000  0.58670000  0.10310000  0.5 0.0779571027
H  H119  1  0.54870000  0.41330000  0.10310000  0.5 0.0779571027
H  H120  1  0.54870000  0.58670000  0.89690000  0.5 0.0779571027
H  H121  1  0.39690000  0.91330000  0.95130000  0.5 0.0779571027
H  H122  1  0.60310000  0.08670000  0.95130000  0.5 0.0779571027
H  H123  1  0.60310000  0.91330000  0.04870000  0.5 0.0779571027
H  H124  1  0.39690000  0.08670000  0.04870000  0.5 0.0779571027
H  H125  1  0.95130000  0.39690000  0.91330000  0.5 0.0779571027
H  H126  1  0.95130000  0.60310000  0.08670000  0.5 0.0779571027
H  H127  1  0.04870000  0.60310000  0.91330000  0.5 0.0779571027
H  H128  1  0.04870000  0.39690000  0.08670000  0.5 0.0779571027
H  H129  1  0.91330000  0.95130000  0.39690000  0.5 0.0779571027
H  H130  1  0.08670000  0.95130000  0.60310000  0.5 0.0779571027
H  H131  1  0.91330000  0.04870000  0.60310000  0.5 0.0779571027
H  H132  1  0.08670000  0.04870000  0.39690000  0.5 0.0779571027
H  H133  1  0.91330000  0.39690000  0.95130000  0.5 0.0779571027
H  H134  1  0.08670000  0.60310000  0.95130000  0.5 0.0779571027
H  H135  1  0.91330000  0.60310000  0.04870000  0.5 0.0779571027
H  H136  1  0.08670000  0.39690000  0.04870000  0.5 0.0779571027
H  H137  1  0.39690000  0.95130000  0.91330000  0.5 0.0779571027
H  H138  1  0.60310000  0.95130000  0.08670000  0.5 0.0779571027
H  H139  1  0.60310000  0.04870000  0.91330000  0.5 0.0779571027
H  H140  1  0.39690000  0.04870000  0.08670000  0.5 0.0779571027
H  H141  1  0.95130000  0.91330000  0.39690000  0.5 0.0779571027
H  H142  1  0.95130000  0.08670000  0.60310000  0.5 0.0779571027
H  H143  1  0.04870000  0.91330000  0.60310000  0.5 0.0779571027
H  H144  1  0.04870000  0.08670000  0.39690000  0.5 0.0779571027
C  C1  1  0.97900000  0.37510000  0.37510000  1.0 0.2119862894
C  C2  1  0.02100000  0.62490000  0.37510000  1.0 0.2119862894
C  C3  1  0.02100000  0.37510000  0.62490000  1.0 0.2119862894
C  C4  1  0.97900000  0.62490000  0.62490000  1.0 0.2119862894
C  C5  1  0.37510000  0.97900000  0.37510000  1.0 0.2119862894
C  C6  1  0.37510000  0.02100000  0.62490000  1.0 0.2119862894
C  C7  1  0.62490000  0.02100000  0.37510000  1.0 0.2119862894
C  C8  1  0.62490000  0.97900000  0.62490000  1.0 0.2119862894
C  C9  1  0.37510000  0.37510000  0.97900000  1.0 0.2119862894
C  C10  1  0.62490000  0.37510000  0.02100000  1.0 0.2119862894
C  C11  1  0.37510000  0.62490000  0.02100000  1.0 0.2119862894
C  C12  1  0.62490000  0.62490000  0.97900000  1.0 0.2119862894
C  C13  1  0.47900000  0.87510000  0.87510000  1.0 0.2119862894
C  C14  1  0.52100000  0.12490000  0.87510000  1.0 0.2119862894
C  C15  1  0.52100000  0.87510000  0.12490000  1.0 0.2119862894
C  C16  1  0.47900000  0.12490000  0.12490000  1.0 0.2119862894
C  C17  1  0.87510000  0.47900000  0.87510000  1.0 0.2119862894
C  C18  1  0.87510000  0.52100000  0.12490000  1.0 0.2119862894
C  C19  1  0.12490000  0.52100000  0.87510000  1.0 0.2119862894
C  C20  1  0.12490000  0.47900000  0.12490000  1.0 0.2119862894
C  C21  1  0.87510000  0.87510000  0.47900000  1.0 0.2119862894
C  C22  1  0.12490000  0.87510000  0.52100000  1.0 0.2119862894
C  C23  1  0.87510000  0.12490000  0.52100000  1.0 0.2119862894
C  C24  1  0.12490000  0.12490000  0.47900000  1.0 0.2119862894
C  C25  1  0.89790000  0.39720000  0.39720000  1.0 -0.3766500124
C  C26  1  0.10210000  0.60280000  0.39720000  1.0 -0.3766500124
C  C27  1  0.10210000  0.39720000  0.60280000  1.0 -0.3766500124
C  C28  1  0.89790000  0.60280000  0.60280000  1.0 -0.3766500124
C  C29  1  0.39720000  0.89790000  0.39720000  1.0 -0.3766500124
C  C30  1  0.39720000  0.10210000  0.60280000  1.0 -0.3766500124
C  C31  1  0.60280000  0.10210000  0.39720000  1.0 -0.3766500124
C  C32  1  0.60280000  0.89790000  0.60280000  1.0 -0.3766500124
C  C33  1  0.39720000  0.39720000  0.89790000  1.0 -0.3766500124
C  C34  1  0.60280000  0.39720000  0.10210000  1.0 -0.3766500124
C  C35  1  0.39720000  0.60280000  0.10210000  1.0 -0.3766500124
C  C36  1  0.60280000  0.60280000  0.89790000  1.0 -0.3766500124
C  C37  1  0.39790000  0.89720000  0.89720000  1.0 -0.3766500124
C  C38  1  0.60210000  0.10280000  0.89720000  1.0 -0.3766500124
C  C39  1  0.60210000  0.89720000  0.10280000  1.0 -0.3766500124
C  C40  1  0.39790000  0.10280000  0.10280000  1.0 -0.3744980193
C  C41  1  0.89720000  0.39790000  0.89720000  1.0 -0.3766500124
C  C42  1  0.89720000  0.60210000  0.10280000  1.0 -0.3766500124
C  C43  1  0.10280000  0.60210000  0.89720000  1.0 -0.3766500124
C  C44  1  0.10280000  0.39790000  0.10280000  1.0 -0.3744980193
C  C45  1  0.89720000  0.89720000  0.39790000  1.0 -0.3766500124
C  C46  1  0.10280000  0.89720000  0.60210000  1.0 -0.3766500124
C  C47  1  0.89720000  0.10280000  0.60210000  1.0 -0.3766500124
C  C48  1  0.10280000  0.10280000  0.39790000  1.0 -0.3744980193
N  N1  1  0.01990000  0.40840000  0.31890000  1.0 -0.2582712953
N  N2  1  0.98010000  0.59160000  0.31890000  1.0 -0.2582712953
N  N3  1  0.98010000  0.40840000  0.68110000  1.0 -0.2582712953
N  N4  1  0.01990000  0.59160000  0.68110000  1.0 -0.2582712953
N  N5  1  0.31890000  0.01990000  0.40840000  1.0 -0.2582712953
N  N6  1  0.31890000  0.98010000  0.59160000  1.0 -0.2582712953
N  N7  1  0.68110000  0.98010000  0.40840000  1.0 -0.2582712953
N  N8  1  0.68110000  0.01990000  0.59160000  1.0 -0.2582712953
N  N9  1  0.40840000  0.31890000  0.01990000  1.0 -0.2582712953
N  N10  1  0.59160000  0.31890000  0.98010000  1.0 -0.2582712953
N  N11  1  0.40840000  0.68110000  0.98010000  1.0 -0.2582712953
N  N12  1  0.59160000  0.68110000  0.01990000  1.0 -0.2582712953
N  N13  1  0.40840000  0.01990000  0.31890000  1.0 -0.2582712953
N  N14  1  0.59160000  0.98010000  0.31890000  1.0 -0.2582712953
N  N15  1  0.40840000  0.98010000  0.68110000  1.0 -0.2582712953
N  N16  1  0.59160000  0.01990000  0.68110000  1.0 -0.2582712953
N  N17  1  0.01990000  0.31890000  0.40840000  1.0 -0.2582712953
N  N18  1  0.98010000  0.31890000  0.59160000  1.0 -0.2582712953
N  N19  1  0.98010000  0.68110000  0.40840000  1.0 -0.2582712953
N  N20  1  0.01990000  0.68110000  0.59160000  1.0 -0.2582712953
N  N21  1  0.31890000  0.40840000  0.01990000  1.0 -0.2582712953
N  N22  1  0.31890000  0.59160000  0.98010000  1.0 -0.2582712953
N  N23  1  0.68110000  0.40840000  0.98010000  1.0 -0.2582712953
N  N24  1  0.68110000  0.59160000  0.01990000  1.0 -0.2582712953
N  N25  1  0.51990000  0.90840000  0.81890000  1.0 -0.2582712953
N  N26  1  0.48010000  0.09160000  0.81890000  1.0 -0.2582712953
N  N27  1  0.48010000  0.90840000  0.18110000  1.0 -0.2582712953
N  N28  1  0.51990000  0.09160000  0.18110000  1.0 -0.2582712953
N  N29  1  0.81890000  0.51990000  0.90840000  1.0 -0.2582712953
N  N30  1  0.81890000  0.48010000  0.09160000  1.0 -0.2582712953
N  N31  1  0.18110000  0.48010000  0.90840000  1.0 -0.2582712953
N  N32  1  0.18110000  0.51990000  0.09160000  1.0 -0.2582712953
N  N33  1  0.90840000  0.81890000  0.51990000  1.0 -0.2582712953
N  N34  1  0.09160000  0.81890000  0.48010000  1.0 -0.2582712953
N  N35  1  0.90840000  0.18110000  0.48010000  1.0 -0.2582712953
N  N36  1  0.09160000  0.18110000  0.51990000  1.0 -0.2582712953
N  N37  1  0.90840000  0.51990000  0.81890000  1.0 -0.2582712953
N  N38  1  0.09160000  0.48010000  0.81890000  1.0 -0.2582712953
N  N39  1  0.90840000  0.48010000  0.18110000  1.0 -0.2582712953
N  N40  1  0.09160000  0.51990000  0.18110000  1.0 -0.2582712953
N  N41  1  0.51990000  0.81890000  0.90840000  1.0 -0.2582712953
N  N42  1  0.48010000  0.81890000  0.09160000  1.0 -0.2582712953
N  N43  1  0.48010000  0.18110000  0.90840000  1.0 -0.2582712953
N  N44  1  0.51990000  0.18110000  0.09160000  1.0 -0.2582712953
N  N45  1  0.81890000  0.90840000  0.51990000  1.0 -0.2582712953
N  N46  1  0.81890000  0.09160000  0.48010000  1.0 -0.2582712953
N  N47  1  0.18110000  0.90840000  0.48010000  1.0 -0.2582712953
N  N48  1  0.18110000  0.09160000  0.51990000  1.0 -0.2582712953
N  N49  1  0.09000000  0.37080000  0.31870000  1.0 -0.0338571992
N  N50  1  0.91000000  0.62920000  0.31870000  1.0 -0.0338571992
N  N51  1  0.91000000  0.37080000  0.68130000  1.0 -0.0338571992
N  N52  1  0.09000000  0.62920000  0.68130000  1.0 -0.0338571992
N  N53  1  0.31870000  0.09000000  0.37080000  1.0 -0.0338571992
N  N54  1  0.31870000  0.91000000  0.62920000  1.0 -0.0338571992
N  N55  1  0.68130000  0.91000000  0.37080000  1.0 -0.0338571992
N  N56  1  0.68130000  0.09000000  0.62920000  1.0 -0.0338571992
N  N57  1  0.37080000  0.31870000  0.09000000  1.0 -0.0338571992
N  N58  1  0.62920000  0.31870000  0.91000000  1.0 -0.035067391
N  N59  1  0.37080000  0.68130000  0.91000000  1.0 -0.035067391
N  N60  1  0.62920000  0.68130000  0.09000000  1.0 -0.0338571992
N  N61  1  0.37080000  0.09000000  0.31870000  1.0 -0.0338571992
N  N62  1  0.62920000  0.91000000  0.31870000  1.0 -0.0338571992
N  N63  1  0.37080000  0.91000000  0.68130000  1.0 -0.0338571992
N  N64  1  0.62920000  0.09000000  0.68130000  1.0 -0.0338571992
N  N65  1  0.09000000  0.31870000  0.37080000  1.0 -0.0338571992
N  N66  1  0.91000000  0.31870000  0.62920000  1.0 -0.0338571992
N  N67  1  0.91000000  0.68130000  0.37080000  1.0 -0.0338571992
N  N68  1  0.09000000  0.68130000  0.62920000  1.0 -0.0338571992
N  N69  1  0.31870000  0.37080000  0.09000000  1.0 -0.0338571992
N  N70  1  0.31870000  0.62920000  0.91000000  1.0 -0.0338571992
N  N71  1  0.68130000  0.37080000  0.91000000  1.0 -0.035067391
N  N72  1  0.68130000  0.62920000  0.09000000  1.0 -0.0338571992
N  N73  1  0.59000000  0.87080000  0.81870000  1.0 -0.0338571992
N  N74  1  0.41000000  0.12920000  0.81870000  1.0 -0.0338571992
N  N75  1  0.41000000  0.87080000  0.18130000  1.0 -0.0338571992
N  N76  1  0.59000000  0.12920000  0.18130000  1.0 -0.0338571992
N  N77  1  0.81870000  0.59000000  0.87080000  1.0 -0.0338571992
N  N78  1  0.81870000  0.41000000  0.12920000  1.0 -0.0338571992
N  N79  1  0.18130000  0.41000000  0.87080000  1.0 -0.0338571992
N  N80  1  0.18130000  0.59000000  0.12920000  1.0 -0.0338571992
N  N81  1  0.87080000  0.81870000  0.59000000  1.0 -0.0338571992
N  N82  1  0.12920000  0.81870000  0.41000000  1.0 -0.0338571992
N  N83  1  0.87080000  0.18130000  0.41000000  1.0 -0.0338571992
N  N84  1  0.12920000  0.18130000  0.59000000  1.0 -0.0338571992
N  N85  1  0.87080000  0.59000000  0.81870000  1.0 -0.0338571992
N  N86  1  0.12920000  0.41000000  0.81870000  1.0 -0.0338571992
N  N87  1  0.87080000  0.41000000  0.18130000  1.0 -0.0338571992
N  N88  1  0.12920000  0.59000000  0.18130000  1.0 -0.0338571992
N  N89  1  0.59000000  0.81870000  0.87080000  1.0 -0.0338571992
N  N90  1  0.41000000  0.81870000  0.12920000  1.0 -0.0338571992
N  N91  1  0.41000000  0.18130000  0.87080000  1.0 -0.0338571992
N  N92  1  0.59000000  0.18130000  0.12920000  1.0 -0.0338571992
N  N93  1  0.81870000  0.87080000  0.59000000  1.0 -0.0338571992
N  N94  1  0.81870000  0.12920000  0.41000000  1.0 -0.0338571992
N  N95  1  0.18130000  0.87080000  0.41000000  1.0 -0.0338571992
N  N96  1  0.18130000  0.12920000  0.59000000  1.0 -0.0338571992
