# DDEC6 charges by PACMAN v1.1 (https://github.com/mtap-research/PACMAN-charge/)
data_ja9b10501_si_006_FSR_pacman
_symmetry_space_group_name_H-M   'P 1'
_cell_length_a   19.53390000
_cell_length_b   19.53390000
_cell_length_c   35.70570000
_cell_angle_alpha   90.00000000
_cell_angle_beta   90.00000000
_cell_angle_gamma   90.00000000
_symmetry_Int_Tables_number   1
_chemical_formula_structural   Al16H150.88C230.88N20.64O66.24
_chemical_formula_sum   'Al16 H150.88 C230.88 N20.64 O66.24'
_cell_volume   13624.33996432
_cell_formula_units_Z   1
loop_
 _symmetry_equiv_pos_site_id
 _symmetry_equiv_pos_as_xyz
  1  'x, y, z'
loop_
 _atom_site_type_symbol
 _atom_site_label
 _atom_site_symmetry_multiplicity
 _atom_site_fract_x
 _atom_site_fract_y
 _atom_site_fract_z
 _atom_site_occupancy
 _atom_site_charge
Al  Al1  1  0.11675000  0.89396000  0.91756000  1.0 1.4427183561
Al  Al2  1  0.88325000  0.10604000  0.91756000  1.0 1.4427183561
Al  Al3  1  0.60604000  0.61675000  0.41756000  1.0 1.4427183561
Al  Al4  1  0.39396000  0.38325000  0.41756000  1.0 1.4427183561
Al  Al5  1  0.38325000  0.39396000  0.58244000  1.0 1.4427183561
Al  Al6  1  0.61675000  0.60604000  0.58244000  1.0 1.4427183561
Al  Al7  1  0.89396000  0.11675000  0.08244000  1.0 1.4427183561
Al  Al8  1  0.10604000  0.88325000  0.08244000  1.0 1.4427183561
Al  Al9  1  0.15980000  0.84020000  0.00000000  1.0 1.2576893561
Al  Al10  1  0.84020000  0.15980000  0.00000000  1.0 1.2576893561
Al  Al11  1  0.65980000  0.65980000  0.50000000  1.0 1.2576893561
Al  Al12  1  0.34020000  0.34020000  0.50000000  1.0 1.2576893561
Al  Al13  1  0.00000000  0.00000000  0.88401000  1.0 1.6394956403
Al  Al14  1  0.50000000  0.50000000  0.38401000  1.0 1.6394956403
Al  Al15  1  0.50000000  0.50000000  0.61599000  1.0 1.6394956403
Al  Al16  1  0.00000000  0.00000000  0.11599000  1.0 1.6394956403
H  H1  1  0.06767000  0.99959000  0.94134000  1.0 0.4230993383
H  H2  1  0.04710000  0.86612000  0.97254000  1.0 0.4364971735
H  H3  1  0.20695000  0.63781000  0.96103000  1.0 0.1295638586
H  H4  1  0.41969000  0.50145000  0.72214000  1.0 0.1207821702
H  H5  1  0.15118000  0.44605000  0.89213000  1.0 0.1074361868
H  H6  1  0.18829000  0.62826000  0.83073000  1.0 0.1013870369
H  H7  1  0.98859000  0.27844000  0.89324000  1.0 0.1207821702
H  H8  1  0.26629000  0.38635000  0.67855000  1.0 0.1295638586
H  H9  1  0.17732000  0.73280000  0.86148000  1.0 0.1295638586
H  H10  1  0.14496000  0.15555000  0.86088000  1.0 0.1295638586
H  H11  1  0.36596000  0.49908000  0.78053000  1.0 0.1013870369
H  H12  1  0.20964000  0.25194000  0.84575000  1.0 0.1013870369
H  H13  1  0.26845000  0.54121000  0.81429000  1.0 0.1013870369
H  H14  1  0.21312000  0.38361000  0.73697000  1.0 0.1013870369
H  H15  1  0.21740000  0.53294000  0.93040000  1.0 0.1013870369
H  H16  1  0.05393000  0.37464000  0.87869000  1.0 0.1013870369
H  H17  1  0.21551000  0.34251000  0.80041000  1.0 0.1013870369
H  H18  1  0.93233000  0.00041000  0.94134000  1.0 0.4230993383
H  H19  1  0.95290000  0.13388000  0.97254000  1.0 0.4364971735
H  H20  1  0.79305000  0.36219000  0.96103000  1.0 0.1295638586
H  H21  1  0.58031000  0.49855000  0.72214000  1.0 0.1207821702
H  H22  1  0.84882000  0.55395000  0.89213000  1.0 0.1074361868
H  H23  1  0.81171000  0.37174000  0.83073000  1.0 0.1013870369
H  H24  1  0.01141000  0.72156000  0.89324000  1.0 0.1207821702
H  H25  1  0.73371000  0.61365000  0.67855000  1.0 0.1295638586
H  H26  1  0.82268000  0.26720000  0.86148000  1.0 0.1207821702
H  H27  1  0.85504000  0.84445000  0.86088000  1.0 0.1295638586
H  H28  1  0.63404000  0.50092000  0.78053000  1.0 0.1013870369
H  H29  1  0.79036000  0.74806000  0.84575000  1.0 0.1013870369
H  H30  1  0.73155000  0.45879000  0.81429000  1.0 0.1013870369
H  H31  1  0.78688000  0.61639000  0.73697000  1.0 0.1013870369
H  H32  1  0.78260000  0.46706000  0.93040000  1.0 0.1013870369
H  H33  1  0.94607000  0.62536000  0.87869000  1.0 0.1013870369
H  H34  1  0.78449000  0.65749000  0.80041000  1.0 0.1013870369
H  H35  1  0.50041000  0.56767000  0.44134000  1.0 0.4230993383
H  H36  1  0.63388000  0.54710000  0.47254000  1.0 0.4364971735
H  H37  1  0.86219000  0.70695000  0.46103000  1.0 0.1295638586
H  H38  1  0.99855000  0.91969000  0.22214000  1.0 0.1207821702
H  H39  1  0.05395000  0.65118000  0.39213000  1.0 0.1074361868
H  H40  1  0.87174000  0.68829000  0.33073000  1.0 0.1013870369
H  H41  1  0.22156000  0.48859000  0.39324000  1.0 0.1207821702
H  H42  1  0.11365000  0.76629000  0.17855000  1.0 0.1295638586
H  H43  1  0.76720000  0.67732000  0.36148000  1.0 0.1207821702
H  H44  1  0.34445000  0.64496000  0.36088000  1.0 0.1295638586
H  H45  1  0.00092000  0.86596000  0.28053000  1.0 0.1013870369
H  H46  1  0.24806000  0.70964000  0.34575000  1.0 0.1013870369
H  H47  1  0.95879000  0.76845000  0.31429000  1.0 0.1013870369
H  H48  1  0.11639000  0.71312000  0.23697000  1.0 0.1013870369
H  H49  1  0.96706000  0.71740000  0.43040000  1.0 0.1013870369
H  H50  1  0.12536000  0.55393000  0.37869000  1.0 0.1013870369
H  H51  1  0.15749000  0.71551000  0.30041000  1.0 0.1013870369
H  H52  1  0.49959000  0.43233000  0.44134000  1.0 0.4230993383
H  H53  1  0.36612000  0.45290000  0.47254000  1.0 0.4364971735
H  H54  1  0.13781000  0.29305000  0.46103000  1.0 0.1295638586
H  H55  1  0.00145000  0.08031000  0.22214000  1.0 0.1207821702
H  H56  1  0.94605000  0.34882000  0.39213000  1.0 0.1074361868
H  H57  1  0.12826000  0.31171000  0.33073000  1.0 0.1013870369
H  H58  1  0.77844000  0.51141000  0.39324000  1.0 0.1207821702
H  H59  1  0.88635000  0.23371000  0.17855000  1.0 0.1295638586
H  H60  1  0.23280000  0.32268000  0.36148000  1.0 0.1295638586
H  H61  1  0.65555000  0.35504000  0.36088000  1.0 0.1295638586
H  H62  1  0.99908000  0.13404000  0.28053000  1.0 0.1013870369
H  H63  1  0.75194000  0.29036000  0.34575000  1.0 0.1013870369
H  H64  1  0.04121000  0.23155000  0.31429000  1.0 0.1013870369
H  H65  1  0.88361000  0.28688000  0.23697000  1.0 0.1013870369
H  H66  1  0.03294000  0.28260000  0.43040000  1.0 0.1013870369
H  H67  1  0.87464000  0.44607000  0.37869000  1.0 0.1013870369
H  H68  1  0.84251000  0.28449000  0.30041000  1.0 0.1013870369
H  H69  1  0.43233000  0.49959000  0.55866000  1.0 0.4230993383
H  H70  1  0.45290000  0.36612000  0.52746000  1.0 0.4364971735
H  H71  1  0.29305000  0.13781000  0.53897000  1.0 0.1295638586
H  H72  1  0.08031000  0.00145000  0.77786000  1.0 0.1207821702
H  H73  1  0.34882000  0.94605000  0.60787000  1.0 0.1074361868
H  H74  1  0.31171000  0.12826000  0.66927000  1.0 0.1013870369
H  H75  1  0.51141000  0.77844000  0.60676000  1.0 0.1207821702
H  H76  1  0.23371000  0.88635000  0.82145000  1.0 0.1295638586
H  H77  1  0.32268000  0.23280000  0.63852000  1.0 0.1295638586
H  H78  1  0.35504000  0.65555000  0.63912000  1.0 0.1295638586
H  H79  1  0.13404000  0.99908000  0.71947000  1.0 0.1013870369
H  H80  1  0.29036000  0.75194000  0.65425000  1.0 0.1013870369
H  H81  1  0.23155000  0.04121000  0.68571000  1.0 0.1013870369
H  H82  1  0.28688000  0.88361000  0.76303000  1.0 0.1013870369
H  H83  1  0.28260000  0.03294000  0.56960000  1.0 0.1013870369
H  H84  1  0.44607000  0.87464000  0.62131000  1.0 0.1013870369
H  H85  1  0.28449000  0.84251000  0.69959000  1.0 0.1013870369
H  H86  1  0.56767000  0.50041000  0.55866000  1.0 0.4230993383
H  H87  1  0.54710000  0.63388000  0.52746000  1.0 0.4364971735
H  H88  1  0.70695000  0.86219000  0.53897000  1.0 0.1295638586
H  H89  1  0.91969000  0.99855000  0.77786000  1.0 0.1207821702
H  H90  1  0.65118000  0.05395000  0.60787000  1.0 0.1074361868
H  H91  1  0.68829000  0.87174000  0.66927000  1.0 0.1013870369
H  H92  1  0.48859000  0.22156000  0.60676000  1.0 0.1207821702
H  H93  1  0.76629000  0.11365000  0.82145000  1.0 0.1295638586
H  H94  1  0.67732000  0.76720000  0.63852000  1.0 0.1207821702
H  H95  1  0.64496000  0.34445000  0.63912000  1.0 0.1295638586
H  H96  1  0.86596000  0.00092000  0.71947000  1.0 0.1013870369
H  H97  1  0.70964000  0.24806000  0.65425000  1.0 0.1013870369
H  H98  1  0.76845000  0.95879000  0.68571000  1.0 0.1013870369
H  H99  1  0.71312000  0.11639000  0.76303000  1.0 0.1013870369
H  H100  1  0.71740000  0.96706000  0.56960000  1.0 0.1013870369
H  H101  1  0.55393000  0.12536000  0.62131000  1.0 0.1013870369
H  H102  1  0.71551000  0.15749000  0.69959000  1.0 0.1013870369
H  H103  1  0.99959000  0.06767000  0.05866000  1.0 0.4230993383
H  H104  1  0.86612000  0.04710000  0.02746000  1.0 0.4364971735
H  H105  1  0.63781000  0.20695000  0.03897000  1.0 0.1295638586
H  H106  1  0.50145000  0.41969000  0.27786000  1.0 0.1207821702
H  H107  1  0.44605000  0.15118000  0.10787000  1.0 0.1074361868
H  H108  1  0.62826000  0.18829000  0.16927000  1.0 0.1013870369
H  H109  1  0.27844000  0.98859000  0.10676000  1.0 0.1207821702
H  H110  1  0.38635000  0.26629000  0.32145000  1.0 0.1295638586
H  H111  1  0.73280000  0.17732000  0.13852000  1.0 0.1207821702
H  H112  1  0.15555000  0.14496000  0.13912000  1.0 0.1295638586
H  H113  1  0.49908000  0.36596000  0.21947000  1.0 0.1013870369
H  H114  1  0.25194000  0.20964000  0.15425000  1.0 0.1013870369
H  H115  1  0.54121000  0.26845000  0.18571000  1.0 0.1013870369
H  H116  1  0.38361000  0.21312000  0.26303000  1.0 0.1013870369
H  H117  1  0.53294000  0.21740000  0.06960000  1.0 0.1013870369
H  H118  1  0.37464000  0.05393000  0.12131000  1.0 0.1013870369
H  H119  1  0.34251000  0.21551000  0.19959000  1.0 0.1013870369
H  H120  1  0.00041000  0.93233000  0.05866000  1.0 0.4230993383
H  H121  1  0.13388000  0.95290000  0.02746000  1.0 0.4364971735
H  H122  1  0.36219000  0.79305000  0.03897000  1.0 0.1295638586
H  H123  1  0.49855000  0.58031000  0.27786000  1.0 0.1207821702
H  H124  1  0.55395000  0.84882000  0.10787000  1.0 0.1074361868
H  H125  1  0.37174000  0.81171000  0.16927000  1.0 0.1013870369
H  H126  1  0.72156000  0.01141000  0.10676000  1.0 0.1207821702
H  H127  1  0.61365000  0.73371000  0.32145000  1.0 0.1295638586
H  H128  1  0.26720000  0.82268000  0.13852000  1.0 0.1295638586
H  H129  1  0.84445000  0.85504000  0.13912000  1.0 0.1295638586
H  H130  1  0.50092000  0.63404000  0.21947000  1.0 0.1013870369
H  H131  1  0.74806000  0.79036000  0.15425000  1.0 0.1013870369
H  H132  1  0.45879000  0.73155000  0.18571000  1.0 0.1013870369
H  H133  1  0.61639000  0.78688000  0.26303000  1.0 0.1013870369
H  H134  1  0.46706000  0.78260000  0.06960000  1.0 0.1013870369
H  H135  1  0.62536000  0.94607000  0.12131000  1.0 0.1013870369
H  H136  1  0.65749000  0.78449000  0.19959000  1.0 0.1013870369
H  H137  1  0.27743000  0.96970000  0.95501000  0.14 0.1497627117
H  H138  1  0.72257000  0.03030000  0.95501000  0.14 0.1497627117
H  H139  1  0.53030000  0.77743000  0.45501000  0.14 0.1497627117
H  H140  1  0.46970000  0.22257000  0.45501000  0.14 0.1497627117
H  H141  1  0.22257000  0.46970000  0.54499000  0.14 0.1497627117
H  H142  1  0.77743000  0.53030000  0.54499000  0.14 0.1497627117
H  H143  1  0.96970000  0.27743000  0.04499000  0.14 0.1497627117
H  H144  1  0.03030000  0.72257000  0.04499000  0.14 0.1497627117
H  H145  1  0.24326000  0.01105000  0.91080000  0.86 0.1207821702
H  H146  1  0.30439000  0.92961000  0.00429000  0.86 0.1295638586
H  H147  1  0.75674000  0.98895000  0.91080000  0.86 0.1207821702
H  H148  1  0.69561000  0.07039000  0.00429000  0.86 0.1295638586
H  H149  1  0.48895000  0.74326000  0.41080000  0.86 0.1207821702
H  H150  1  0.57039000  0.80439000  0.50429000  0.86 0.1295638586
H  H151  1  0.51105000  0.25674000  0.41080000  0.86 0.1207821702
H  H152  1  0.42961000  0.19561000  0.50429000  0.86 0.1295638586
H  H153  1  0.25674000  0.51105000  0.58920000  0.86 0.1207821702
H  H154  1  0.19561000  0.42961000  0.49571000  0.86 0.1295638586
H  H155  1  0.74326000  0.48895000  0.58920000  0.86 0.1207821702
H  H156  1  0.80439000  0.57039000  0.49571000  0.86 0.1295638586
H  H157  1  0.01105000  0.24326000  0.08920000  0.86 0.1207821702
H  H158  1  0.92961000  0.30439000  0.99571000  0.86 0.1295638586
H  H159  1  0.98895000  0.75674000  0.08920000  0.86 0.1207821702
H  H160  1  0.07039000  0.69561000  0.99571000  0.86 0.1295638586
C  C1  1  0.24566000  0.98303000  0.93251000  0.86 0.0068693883
C  C2  1  0.27838000  0.93939000  0.98245000  0.86 -0.0047495028
C  C3  1  0.75434000  0.01697000  0.93251000  0.86 0.0068693883
C  C4  1  0.72162000  0.06061000  0.98245000  0.86 -0.0055690722
C  C5  1  0.51697000  0.74566000  0.43251000  0.86 0.0068693883
C  C6  1  0.56061000  0.77838000  0.48245000  0.86 -0.0047495028
C  C7  1  0.48303000  0.25434000  0.43251000  0.86 0.0068693883
C  C8  1  0.43939000  0.22162000  0.48245000  0.86 -0.0055690722
C  C9  1  0.25434000  0.48303000  0.56749000  0.86 0.0068693883
C  C10  1  0.22162000  0.43939000  0.51755000  0.86 -0.0055690722
C  C11  1  0.74566000  0.51697000  0.56749000  0.86 0.0068693883
C  C12  1  0.77838000  0.56061000  0.51755000  0.86 -0.0047495028
C  C13  1  0.98303000  0.24566000  0.06749000  0.86 0.0068693883
C  C14  1  0.93939000  0.27838000  0.01755000  0.86 -0.0047495028
C  C15  1  0.01697000  0.75434000  0.06749000  0.86 0.0068693883
C  C16  1  0.06061000  0.72162000  0.01755000  0.86 -0.0047495028
C  C17  1  0.18093000  0.76287000  0.93316000  1.0 0.5627731152
C  C18  1  0.20366000  0.56978000  0.87721000  1.0 0.060085721
C  C19  1  0.01649000  0.14639000  0.88607000  1.0 0.6117902987
C  C20  1  0.38226000  0.44552000  0.65728000  1.0 0.6117902987
C  C21  1  0.06003000  0.20739000  0.87795000  1.0 -0.0436097522
C  C22  1  0.20302000  0.63583000  0.93454000  1.0 -0.1231389761
C  C23  1  0.13838000  0.32304000  0.86023000  1.0 0.0699433873
C  C24  1  0.19106000  0.69546000  0.91437000  1.0 -0.0203628413
C  C25  1  0.37760000  0.47769000  0.72511000  1.0 -0.107871101
C  C26  1  0.17562000  0.44498000  0.86914000  1.0 -0.2186708321
C  C27  1  0.19193000  0.62997000  0.85725000  1.0 -0.1592366129
C  C28  1  0.03349000  0.27299000  0.88346000  1.0 -0.107871101
C  C29  1  0.28656000  0.40927000  0.69923000  1.0 -0.1231389761
C  C30  1  0.18551000  0.69226000  0.87549000  1.0 -0.107871101
C  C31  1  0.12610000  0.19996000  0.86421000  1.0 -0.1037180133
C  C32  1  0.34558000  0.47621000  0.75986000  1.0 -0.1592366129
C  C33  1  0.16460000  0.25748000  0.85533000  1.0 -0.1592366129
C  C34  1  0.24524000  0.50143000  0.82285000  1.0 -0.2186708321
C  C35  1  0.20921000  0.50385000  0.85659000  1.0 0.0764314162
C  C36  1  0.17762000  0.38455000  0.84821000  1.0 0.0764314162
C  C37  1  0.34812000  0.44440000  0.69466000  1.0 -0.0436097522
C  C38  1  0.25495000  0.40782000  0.73399000  1.0 -0.1592366129
C  C39  1  0.20928000  0.57340000  0.91632000  1.0 -0.1512856826
C  C40  1  0.24784000  0.44160000  0.80141000  1.0 0.0699433873
C  C41  1  0.07234000  0.33021000  0.87475000  1.0 -0.1592366129
C  C42  1  0.28381000  0.44150000  0.76469000  1.0 0.060085721
C  C43  1  0.21387000  0.38358000  0.81463000  1.0 -0.2186708321
C  C44  1  0.81907000  0.23713000  0.93316000  1.0 0.5627731152
C  C45  1  0.79634000  0.43022000  0.87721000  1.0 0.060085721
C  C46  1  0.98351000  0.85361000  0.88607000  1.0 0.6117902987
C  C47  1  0.61774000  0.55448000  0.65728000  1.0 0.6117902987
C  C48  1  0.93997000  0.79261000  0.87795000  1.0 -0.0436097522
C  C49  1  0.79698000  0.36417000  0.93454000  1.0 -0.1231389761
C  C50  1  0.86162000  0.67696000  0.86023000  1.0 0.0699433873
C  C51  1  0.80894000  0.30454000  0.91437000  1.0 -0.0203628413
C  C52  1  0.62240000  0.52231000  0.72511000  1.0 -0.107871101
C  C53  1  0.82438000  0.55502000  0.86914000  1.0 -0.2186708321
C  C54  1  0.80807000  0.37003000  0.85725000  1.0 -0.1592366129
C  C55  1  0.96651000  0.72701000  0.88346000  1.0 -0.107871101
C  C56  1  0.71344000  0.59073000  0.69923000  1.0 -0.1231389761
C  C57  1  0.81449000  0.30774000  0.87549000  1.0 -0.107871101
C  C58  1  0.87390000  0.80004000  0.86421000  1.0 -0.1037180133
C  C59  1  0.65442000  0.52379000  0.75986000  1.0 -0.1592366129
C  C60  1  0.83540000  0.74252000  0.85533000  1.0 -0.1592366129
C  C61  1  0.75476000  0.49857000  0.82285000  1.0 -0.2186708321
C  C62  1  0.79079000  0.49615000  0.85659000  1.0 0.0764314162
C  C63  1  0.82238000  0.61545000  0.84821000  1.0 0.0764314162
C  C64  1  0.65188000  0.55560000  0.69466000  1.0 -0.0436097522
C  C65  1  0.74505000  0.59218000  0.73399000  1.0 -0.1592366129
C  C66  1  0.79072000  0.42660000  0.91632000  1.0 -0.1512856826
C  C67  1  0.75216000  0.55840000  0.80141000  1.0 0.0699433873
C  C68  1  0.92766000  0.66979000  0.87475000  1.0 -0.1592366129
C  C69  1  0.71619000  0.55850000  0.76469000  1.0 0.060085721
C  C70  1  0.78613000  0.61642000  0.81463000  1.0 -0.2186708321
C  C71  1  0.73713000  0.68093000  0.43316000  1.0 0.5627731152
C  C72  1  0.93022000  0.70366000  0.37721000  1.0 0.060085721
C  C73  1  0.35361000  0.51649000  0.38607000  1.0 0.6117902987
C  C74  1  0.05448000  0.88226000  0.15728000  1.0 0.6117902987
C  C75  1  0.29261000  0.56003000  0.37795000  1.0 -0.0436097522
C  C76  1  0.86417000  0.70302000  0.43454000  1.0 -0.1231389761
C  C77  1  0.17696000  0.63838000  0.36023000  1.0 0.0699433873
C  C78  1  0.80454000  0.69106000  0.41437000  1.0 -0.0203628413
C  C79  1  0.02231000  0.87760000  0.22511000  1.0 -0.107871101
C  C80  1  0.05502000  0.67562000  0.36914000  1.0 -0.2186708321
C  C81  1  0.87003000  0.69193000  0.35725000  1.0 -0.1592366129
C  C82  1  0.22701000  0.53349000  0.38346000  1.0 -0.107871101
C  C83  1  0.09073000  0.78656000  0.19923000  1.0 -0.1231389761
C  C84  1  0.80774000  0.68551000  0.37549000  1.0 -0.107871101
C  C85  1  0.30004000  0.62610000  0.36421000  1.0 -0.1037180133
C  C86  1  0.02379000  0.84558000  0.25986000  1.0 -0.1592366129
C  C87  1  0.24252000  0.66460000  0.35533000  1.0 -0.1592366129
C  C88  1  0.99857000  0.74524000  0.32285000  1.0 -0.2186708321
C  C89  1  0.99615000  0.70921000  0.35659000  1.0 0.0764314162
C  C90  1  0.11545000  0.67762000  0.34821000  1.0 0.0764314162
C  C91  1  0.05560000  0.84812000  0.19466000  1.0 -0.0436097522
C  C92  1  0.09218000  0.75495000  0.23399000  1.0 -0.1592366129
C  C93  1  0.92660000  0.70928000  0.41632000  1.0 -0.1512856826
C  C94  1  0.05840000  0.74784000  0.30141000  1.0 0.0699433873
C  C95  1  0.16979000  0.57234000  0.37475000  1.0 -0.1592366129
C  C96  1  0.05850000  0.78381000  0.26469000  1.0 0.060085721
C  C97  1  0.11642000  0.71387000  0.31463000  1.0 -0.2186708321
C  C98  1  0.26287000  0.31907000  0.43316000  1.0 0.5627731152
C  C99  1  0.06978000  0.29634000  0.37721000  1.0 0.060085721
C  C100  1  0.64639000  0.48351000  0.38607000  1.0 0.6117902987
C  C101  1  0.94552000  0.11774000  0.15728000  1.0 0.6117902987
C  C102  1  0.70739000  0.43997000  0.37795000  1.0 -0.0436097522
C  C103  1  0.13583000  0.29698000  0.43454000  1.0 -0.1231389761
C  C104  1  0.82304000  0.36162000  0.36023000  1.0 0.0699433873
C  C105  1  0.19546000  0.30894000  0.41437000  1.0 -0.0203628413
C  C106  1  0.97769000  0.12240000  0.22511000  1.0 -0.107871101
C  C107  1  0.94498000  0.32438000  0.36914000  1.0 -0.2186708321
C  C108  1  0.12997000  0.30807000  0.35725000  1.0 -0.1592366129
C  C109  1  0.77299000  0.46651000  0.38346000  1.0 -0.107871101
C  C110  1  0.90927000  0.21344000  0.19923000  1.0 -0.1231389761
C  C111  1  0.19226000  0.31449000  0.37549000  1.0 -0.107871101
C  C112  1  0.69996000  0.37390000  0.36421000  1.0 -0.1037180133
C  C113  1  0.97621000  0.15442000  0.25986000  1.0 -0.1592366129
C  C114  1  0.75748000  0.33540000  0.35533000  1.0 -0.1592366129
C  C115  1  0.00143000  0.25476000  0.32285000  1.0 -0.2186708321
C  C116  1  0.00385000  0.29079000  0.35659000  1.0 0.0764314162
C  C117  1  0.88455000  0.32238000  0.34821000  1.0 0.0764314162
C  C118  1  0.94440000  0.15188000  0.19466000  1.0 -0.0436097522
C  C119  1  0.90782000  0.24505000  0.23399000  1.0 -0.1592366129
C  C120  1  0.07340000  0.29072000  0.41632000  1.0 -0.1512856826
C  C121  1  0.94160000  0.25216000  0.30141000  1.0 0.0699433873
C  C122  1  0.83021000  0.42766000  0.37475000  1.0 -0.1592366129
C  C123  1  0.94150000  0.21619000  0.26469000  1.0 0.060085721
C  C124  1  0.88358000  0.28613000  0.31463000  1.0 -0.2186708321
C  C125  1  0.31907000  0.26287000  0.56684000  1.0 0.5627731152
C  C126  1  0.29634000  0.06978000  0.62279000  1.0 0.060085721
C  C127  1  0.48351000  0.64639000  0.61393000  1.0 0.6117902987
C  C128  1  0.11774000  0.94552000  0.84272000  1.0 0.6117902987
C  C129  1  0.43997000  0.70739000  0.62205000  1.0 -0.0436097522
C  C130  1  0.29698000  0.13583000  0.56546000  1.0 -0.1231389761
C  C131  1  0.36162000  0.82304000  0.63977000  1.0 0.0699433873
C  C132  1  0.30894000  0.19546000  0.58563000  1.0 -0.0203628413
C  C133  1  0.12240000  0.97769000  0.77489000  1.0 -0.107871101
C  C134  1  0.32438000  0.94498000  0.63086000  1.0 -0.2186708321
C  C135  1  0.30807000  0.12997000  0.64275000  1.0 -0.1592366129
C  C136  1  0.46651000  0.77299000  0.61654000  1.0 -0.107871101
C  C137  1  0.21344000  0.90927000  0.80077000  1.0 -0.1231389761
C  C138  1  0.31449000  0.19226000  0.62451000  1.0 -0.107871101
C  C139  1  0.37390000  0.69996000  0.63579000  1.0 -0.1037180133
C  C140  1  0.15442000  0.97621000  0.74014000  1.0 -0.1592366129
C  C141  1  0.33540000  0.75748000  0.64467000  1.0 -0.1592366129
C  C142  1  0.25476000  0.00143000  0.67715000  1.0 -0.2186708321
C  C143  1  0.29079000  0.00385000  0.64341000  1.0 0.0764314162
C  C144  1  0.32238000  0.88455000  0.65179000  1.0 0.0764314162
C  C145  1  0.15188000  0.94440000  0.80534000  1.0 -0.0436097522
C  C146  1  0.24505000  0.90782000  0.76601000  1.0 -0.1592366129
C  C147  1  0.29072000  0.07340000  0.58368000  1.0 -0.1512856826
C  C148  1  0.25216000  0.94160000  0.69859000  1.0 0.0699433873
C  C149  1  0.42766000  0.83021000  0.62525000  1.0 -0.1592366129
C  C150  1  0.21619000  0.94150000  0.73531000  1.0 0.060085721
C  C151  1  0.28613000  0.88358000  0.68537000  1.0 -0.2186708321
C  C152  1  0.68093000  0.73713000  0.56684000  1.0 0.5627731152
C  C153  1  0.70366000  0.93022000  0.62279000  1.0 0.060085721
C  C154  1  0.51649000  0.35361000  0.61393000  1.0 0.6117902987
C  C155  1  0.88226000  0.05448000  0.84272000  1.0 0.6117902987
C  C156  1  0.56003000  0.29261000  0.62205000  1.0 -0.0436097522
C  C157  1  0.70302000  0.86417000  0.56546000  1.0 -0.1231389761
C  C158  1  0.63838000  0.17696000  0.63977000  1.0 0.0699433873
C  C159  1  0.69106000  0.80454000  0.58563000  1.0 -0.0203628413
C  C160  1  0.87760000  0.02231000  0.77489000  1.0 -0.107871101
C  C161  1  0.67562000  0.05502000  0.63086000  1.0 -0.2186708321
C  C162  1  0.69193000  0.87003000  0.64275000  1.0 -0.1592366129
C  C163  1  0.53349000  0.22701000  0.61654000  1.0 -0.107871101
C  C164  1  0.78656000  0.09073000  0.80077000  1.0 -0.1231389761
C  C165  1  0.68551000  0.80774000  0.62451000  1.0 -0.107871101
C  C166  1  0.62610000  0.30004000  0.63579000  1.0 -0.1037180133
C  C167  1  0.84558000  0.02379000  0.74014000  1.0 -0.1592366129
C  C168  1  0.66460000  0.24252000  0.64467000  1.0 -0.1592366129
C  C169  1  0.74524000  0.99857000  0.67715000  1.0 -0.2186708321
C  C170  1  0.70921000  0.99615000  0.64341000  1.0 0.0764314162
C  C171  1  0.67762000  0.11545000  0.65179000  1.0 0.0764314162
C  C172  1  0.84812000  0.05560000  0.80534000  1.0 -0.0436097522
C  C173  1  0.75495000  0.09218000  0.76601000  1.0 -0.1592366129
C  C174  1  0.70928000  0.92660000  0.58368000  1.0 -0.1512856826
C  C175  1  0.74784000  0.05840000  0.69859000  1.0 0.0699433873
C  C176  1  0.57234000  0.16979000  0.62525000  1.0 -0.1592366129
C  C177  1  0.78381000  0.05850000  0.73531000  1.0 0.060085721
C  C178  1  0.71387000  0.11642000  0.68537000  1.0 -0.2186708321
C  C179  1  0.76287000  0.18093000  0.06684000  1.0 0.5627731152
C  C180  1  0.56978000  0.20366000  0.12279000  1.0 0.060085721
C  C181  1  0.14639000  0.01649000  0.11393000  1.0 0.6117902987
C  C182  1  0.44552000  0.38226000  0.34272000  1.0 0.6117902987
C  C183  1  0.20739000  0.06003000  0.12205000  1.0 -0.0436097522
C  C184  1  0.63583000  0.20302000  0.06546000  1.0 -0.1231389761
C  C185  1  0.32304000  0.13838000  0.13977000  1.0 0.0699433873
C  C186  1  0.69546000  0.19106000  0.08563000  1.0 -0.0203628413
C  C187  1  0.47769000  0.37760000  0.27489000  1.0 -0.107871101
C  C188  1  0.44498000  0.17562000  0.13086000  1.0 -0.2186708321
C  C189  1  0.62997000  0.19193000  0.14275000  1.0 -0.1592366129
C  C190  1  0.27299000  0.03349000  0.11654000  1.0 -0.107871101
C  C191  1  0.40927000  0.28656000  0.30077000  1.0 -0.1231389761
C  C192  1  0.69226000  0.18551000  0.12451000  1.0 -0.107871101
C  C193  1  0.19996000  0.12610000  0.13579000  1.0 -0.1037180133
C  C194  1  0.47621000  0.34558000  0.24014000  1.0 -0.1592366129
C  C195  1  0.25748000  0.16460000  0.14467000  1.0 -0.1592366129
C  C196  1  0.50143000  0.24524000  0.17715000  1.0 -0.2186708321
C  C197  1  0.50385000  0.20921000  0.14341000  1.0 0.0764314162
C  C198  1  0.38455000  0.17762000  0.15179000  1.0 0.0764314162
C  C199  1  0.44440000  0.34812000  0.30534000  1.0 -0.0436097522
C  C200  1  0.40782000  0.25495000  0.26601000  1.0 -0.1592366129
C  C201  1  0.57340000  0.20928000  0.08368000  1.0 -0.1512856826
C  C202  1  0.44160000  0.24784000  0.19859000  1.0 0.0699433873
C  C203  1  0.33021000  0.07234000  0.12525000  1.0 -0.1592366129
C  C204  1  0.44150000  0.28381000  0.23531000  1.0 0.060085721
C  C205  1  0.38358000  0.21387000  0.18537000  1.0 -0.2186708321
C  C206  1  0.23713000  0.81907000  0.06684000  1.0 0.5627731152
C  C207  1  0.43022000  0.79634000  0.12279000  1.0 0.060085721
C  C208  1  0.85361000  0.98351000  0.11393000  1.0 0.6117902987
C  C209  1  0.55448000  0.61774000  0.34272000  1.0 0.6117902987
C  C210  1  0.79261000  0.93997000  0.12205000  1.0 -0.0436097522
C  C211  1  0.36417000  0.79698000  0.06546000  1.0 -0.1231389761
C  C212  1  0.67696000  0.86162000  0.13977000  1.0 0.0699433873
C  C213  1  0.30454000  0.80894000  0.08563000  1.0 -0.0203628413
C  C214  1  0.52231000  0.62240000  0.27489000  1.0 -0.107871101
C  C215  1  0.55502000  0.82438000  0.13086000  1.0 -0.2186708321
C  C216  1  0.37003000  0.80807000  0.14275000  1.0 -0.1592366129
C  C217  1  0.72701000  0.96651000  0.11654000  1.0 -0.107871101
C  C218  1  0.59073000  0.71344000  0.30077000  1.0 -0.1231389761
C  C219  1  0.30774000  0.81449000  0.12451000  1.0 -0.107871101
C  C220  1  0.80004000  0.87390000  0.13579000  1.0 -0.1037180133
C  C221  1  0.52379000  0.65442000  0.24014000  1.0 -0.1592366129
C  C222  1  0.74252000  0.83540000  0.14467000  1.0 -0.1592366129
C  C223  1  0.49857000  0.75476000  0.17715000  1.0 -0.2186708321
C  C224  1  0.49615000  0.79079000  0.14341000  1.0 0.0764314162
C  C225  1  0.61545000  0.82238000  0.15179000  1.0 0.0764314162
C  C226  1  0.55560000  0.65188000  0.30534000  1.0 -0.0436097522
C  C227  1  0.59218000  0.74505000  0.26601000  1.0 -0.1592366129
C  C228  1  0.42660000  0.79072000  0.08368000  1.0 -0.1512856826
C  C229  1  0.55840000  0.75216000  0.19859000  1.0 0.0699433873
C  C230  1  0.66979000  0.92766000  0.12525000  1.0 -0.1592366129
C  C231  1  0.55850000  0.71619000  0.23531000  1.0 0.060085721
C  C232  1  0.61642000  0.78613000  0.18537000  1.0 -0.2186708321
C  C233  1  0.23820000  0.94100000  0.95520000  0.14 0.0533444626
C  C234  1  0.76180000  0.05900000  0.95520000  0.14 0.0533444626
C  C235  1  0.55900000  0.73820000  0.45520000  0.14 0.0533444626
C  C236  1  0.44100000  0.26180000  0.45520000  0.14 0.0533444626
C  C237  1  0.26180000  0.44100000  0.54480000  0.14 0.0533444626
C  C238  1  0.73820000  0.55900000  0.54480000  0.14 0.060085721
C  C239  1  0.94100000  0.23820000  0.04480000  0.14 0.060085721
C  C240  1  0.05900000  0.76180000  0.04480000  0.14 0.0533444626
N  N1  1  0.19945000  0.93614000  0.94067000  0.86 -0.0203628413
N  N2  1  0.22144000  0.90670000  0.97390000  0.86 -0.0436097522
N  N3  1  0.29629000  0.98740000  0.95769000  0.86 -0.1715633001
N  N4  1  0.80055000  0.06386000  0.94067000  0.86 -0.0203628413
N  N5  1  0.77856000  0.09330000  0.97390000  0.86 -0.0436097522
N  N6  1  0.70371000  0.01260000  0.95769000  0.86 -0.1715633001
N  N7  1  0.56386000  0.69945000  0.44067000  0.86 -0.0203628413
N  N8  1  0.59330000  0.72144000  0.47390000  0.86 -0.0436097522
N  N9  1  0.51260000  0.79629000  0.45769000  0.86 -0.1715633001
N  N10  1  0.43614000  0.30055000  0.44067000  0.86 -0.0203628413
N  N11  1  0.40670000  0.27856000  0.47390000  0.86 -0.0436097522
N  N12  1  0.48740000  0.20371000  0.45769000  0.86 -0.1715633001
N  N13  1  0.30055000  0.43614000  0.55933000  0.86 -0.0203628413
N  N14  1  0.27856000  0.40670000  0.52610000  0.86 -0.0436097522
N  N15  1  0.20371000  0.48740000  0.54231000  0.86 -0.1715633001
N  N16  1  0.69945000  0.56386000  0.55933000  0.86 -0.0203628413
N  N17  1  0.72144000  0.59330000  0.52610000  0.86 -0.0436097522
N  N18  1  0.79629000  0.51260000  0.54231000  0.86 -0.1715633001
N  N19  1  0.93614000  0.19945000  0.05933000  0.86 -0.0203628413
N  N20  1  0.90670000  0.22144000  0.02610000  0.86 -0.0436097522
N  N21  1  0.98740000  0.29629000  0.04231000  0.86 -0.1715633001
N  N22  1  0.06386000  0.80055000  0.05933000  0.86 -0.0203628413
N  N23  1  0.09330000  0.77856000  0.02610000  0.86 -0.0436097522
N  N24  1  0.01260000  0.70371000  0.04231000  0.86 -0.1715633001
O  O1  1  0.06280000  0.97152000  0.91978000  1.0 -0.9239688821
O  O2  1  0.16889000  0.81269000  0.91195000  1.0 -0.5433924941
O  O3  1  0.09394000  0.86666000  0.96539000  1.0 -0.840289504
O  O4  1  0.18423000  0.76528000  0.96854000  1.0 -0.5433924941
O  O5  1  0.04311000  0.08803000  0.88209000  1.0 -0.5884540386
O  O6  1  0.95570000  0.15794000  0.89608000  1.0 -0.5884540386
O  O7  1  0.44063000  0.47319000  0.65545000  1.0 -0.5806795589
O  O8  1  0.35036000  0.41810000  0.63035000  1.0 -0.5703839369
O  O9  1  0.93720000  0.02848000  0.91978000  1.0 -0.9239688821
O  O10  1  0.83111000  0.18731000  0.91195000  1.0 -0.5433924941
O  O11  1  0.90606000  0.13334000  0.96539000  1.0 -0.840289504
O  O12  1  0.81577000  0.23472000  0.96854000  1.0 -0.5433924941
O  O13  1  0.95689000  0.91197000  0.88209000  1.0 -0.5884540386
O  O14  1  0.04430000  0.84206000  0.89608000  1.0 -0.5884540386
O  O15  1  0.55937000  0.52681000  0.65545000  1.0 -0.5806795589
O  O16  1  0.64964000  0.58190000  0.63035000  1.0 -0.5703839369
O  O17  1  0.52848000  0.56280000  0.41978000  1.0 -0.9239688821
O  O18  1  0.68731000  0.66889000  0.41195000  1.0 -0.5433924941
O  O19  1  0.63334000  0.59394000  0.46539000  1.0 -0.840289504
O  O20  1  0.73472000  0.68423000  0.46854000  1.0 -0.5433924941
O  O21  1  0.41197000  0.54311000  0.38209000  1.0 -0.5884540386
O  O22  1  0.34206000  0.45570000  0.39608000  1.0 -0.5884540386
O  O23  1  0.02681000  0.94063000  0.15545000  1.0 -0.5806795589
O  O24  1  0.08190000  0.85036000  0.13035000  1.0 -0.5703839369
O  O25  1  0.47152000  0.43720000  0.41978000  1.0 -0.9239688821
O  O26  1  0.31269000  0.33111000  0.41195000  1.0 -0.5433924941
O  O27  1  0.36666000  0.40606000  0.46539000  1.0 -0.840289504
O  O28  1  0.26528000  0.31577000  0.46854000  1.0 -0.5433924941
O  O29  1  0.58803000  0.45689000  0.38209000  1.0 -0.5884540386
O  O30  1  0.65794000  0.54430000  0.39608000  1.0 -0.5884540386
O  O31  1  0.97319000  0.05937000  0.15545000  1.0 -0.5806795589
O  O32  1  0.91810000  0.14964000  0.13035000  1.0 -0.5703839369
O  O33  1  0.43720000  0.47152000  0.58022000  1.0 -0.9239688821
O  O34  1  0.33111000  0.31269000  0.58805000  1.0 -0.5433924941
O  O35  1  0.40606000  0.36666000  0.53461000  1.0 -0.840289504
O  O36  1  0.31577000  0.26528000  0.53146000  1.0 -0.5433924941
O  O37  1  0.45689000  0.58803000  0.61791000  1.0 -0.5884540386
O  O38  1  0.54430000  0.65794000  0.60392000  1.0 -0.5884540386
O  O39  1  0.05937000  0.97319000  0.84455000  1.0 -0.5806795589
O  O40  1  0.14964000  0.91810000  0.86965000  1.0 -0.5703839369
O  O41  1  0.56280000  0.52848000  0.58022000  1.0 -0.9239688821
O  O42  1  0.66889000  0.68731000  0.58805000  1.0 -0.5433924941
O  O43  1  0.59394000  0.63334000  0.53461000  1.0 -0.840289504
O  O44  1  0.68423000  0.73472000  0.53146000  1.0 -0.5433924941
O  O45  1  0.54311000  0.41197000  0.61791000  1.0 -0.5884540386
O  O46  1  0.45570000  0.34206000  0.60392000  1.0 -0.5884540386
O  O47  1  0.94063000  0.02681000  0.84455000  1.0 -0.5806795589
O  O48  1  0.85036000  0.08190000  0.86965000  1.0 -0.5703839369
O  O49  1  0.97152000  0.06280000  0.08022000  1.0 -0.9239688821
O  O50  1  0.81269000  0.16889000  0.08805000  1.0 -0.5433924941
O  O51  1  0.86666000  0.09394000  0.03461000  1.0 -0.840289504
O  O52  1  0.76528000  0.18423000  0.03146000  1.0 -0.5433924941
O  O53  1  0.08803000  0.04311000  0.11791000  1.0 -0.5884540386
O  O54  1  0.15794000  0.95570000  0.10392000  1.0 -0.5884540386
O  O55  1  0.47319000  0.44063000  0.34455000  1.0 -0.5806795589
O  O56  1  0.41810000  0.35036000  0.36965000  1.0 -0.5703839369
O  O57  1  0.02848000  0.93720000  0.08022000  1.0 -0.9239688821
O  O58  1  0.18731000  0.83111000  0.08805000  1.0 -0.5433924941
O  O59  1  0.13334000  0.90606000  0.03461000  1.0 -0.840289504
O  O60  1  0.23472000  0.81577000  0.03146000  1.0 -0.5454981632
O  O61  1  0.91197000  0.95689000  0.11791000  1.0 -0.5884540386
O  O62  1  0.84206000  0.04430000  0.10392000  1.0 -0.5884540386
O  O63  1  0.52681000  0.55937000  0.34455000  1.0 -0.5806795589
O  O64  1  0.58190000  0.64964000  0.36965000  1.0 -0.5703839369
O  O65  1  0.23750000  0.89470000  0.98150000  0.14 -0.1512856826
O  O66  1  0.19490000  0.95350000  0.93000000  0.14 -0.1303220156
O  O67  1  0.76250000  0.10530000  0.98150000  0.14 -0.1512856826
O  O68  1  0.80510000  0.04650000  0.93000000  0.14 -0.1303220156
O  O69  1  0.60530000  0.73750000  0.48150000  0.14 -0.1512856826
O  O70  1  0.54650000  0.69490000  0.43000000  0.14 -0.1303220156
O  O71  1  0.39470000  0.26250000  0.48150000  0.14 -0.1512856826
O  O72  1  0.45350000  0.30510000  0.43000000  0.14 -0.1303220156
O  O73  1  0.26250000  0.39470000  0.51850000  0.14 -0.1512856826
O  O74  1  0.30510000  0.45350000  0.57000000  0.14 -0.1303220156
O  O75  1  0.73750000  0.60530000  0.51850000  0.14 -0.1512856826
O  O76  1  0.69490000  0.54650000  0.57000000  0.14 -0.1303220156
O  O77  1  0.89470000  0.23750000  0.01850000  0.14 -0.1512856826
O  O78  1  0.95350000  0.19490000  0.07000000  0.14 -0.1303220156
O  O79  1  0.10530000  0.76250000  0.01850000  0.14 -0.1512856826
O  O80  1  0.04650000  0.80510000  0.07000000  0.14 -0.1303220156
