# DDEC6 charges by PACMAN v1.1 (https://github.com/mtap-research/PACMAN-charge/)
data_c9sc00178f2_10_FSR_pacman
_symmetry_space_group_name_H-M   'P 1'
_cell_length_a   19.86000000
_cell_length_b   28.20490000
_cell_length_c   32.03150000
_cell_angle_alpha   90.00000000
_cell_angle_beta   90.00000000
_cell_angle_gamma   90.00000000
_symmetry_Int_Tables_number   1
_chemical_formula_structural   InH22C40(NO4)2
_chemical_formula_sum   'In8 H176 C320 N16 O64'
_cell_volume   17942.42275139
_cell_formula_units_Z   8
loop_
 _symmetry_equiv_pos_site_id
 _symmetry_equiv_pos_as_xyz
  1  'x, y, z'
loop_
 _atom_site_type_symbol
 _atom_site_label
 _atom_site_symmetry_multiplicity
 _atom_site_fract_x
 _atom_site_fract_y
 _atom_site_fract_z
 _atom_site_occupancy
 _atom_site_charge
In  In1  1  0.15361000  0.39158000  0.96272000  1.0 1.3246038175
In  In2  1  0.34639000  0.89158000  0.53728000  1.0 1.3250197387
In  In3  1  0.84639000  0.39158000  0.46272000  1.0 1.3250197387
In  In4  1  0.65361000  0.89158000  0.03728000  1.0 1.3250197387
In  In5  1  0.15361000  0.60842000  0.53728000  1.0 1.3250197387
In  In6  1  0.34639000  0.10842000  0.96272000  1.0 1.3250197387
In  In7  1  0.84639000  0.60842000  0.03728000  1.0 1.3250197387
In  In8  1  0.65361000  0.10842000  0.46272000  1.0 1.3250197387
H  H1  1  0.89015000  0.41949000  0.18858000  1.0 0.1201736417
H  H2  1  0.60985000  0.91949000  0.31142000  1.0 0.1201736417
H  H3  1  0.10985000  0.41949000  0.68858000  1.0 0.1201736417
H  H4  1  0.39015000  0.91949000  0.81142000  1.0 0.1201736417
H  H5  1  0.91276000  0.44187000  0.32765000  1.0 0.1292498478
H  H6  1  0.58724000  0.94187000  0.17235000  1.0 0.1292498478
H  H7  1  0.08724000  0.44187000  0.82765000  1.0 0.1292498478
H  H8  1  0.41276000  0.94187000  0.67235000  1.0 0.1292498478
H  H9  1  0.50600000  0.75763000  0.06616000  1.0 0.1292498478
H  H10  1  0.99400000  0.25763000  0.43384000  1.0 0.1292498478
H  H11  1  0.49400000  0.75763000  0.56616000  1.0 0.1292498478
H  H12  1  0.00600000  0.25763000  0.93384000  1.0 0.1292498478
H  H13  1  0.88314000  0.48801000  0.06683000  1.0 0.1292498478
H  H14  1  0.61686000  0.98801000  0.43317000  1.0 0.1292498478
H  H15  1  0.11686000  0.48801000  0.56683000  1.0 0.1292498478
H  H16  1  0.38314000  0.98801000  0.93317000  1.0 0.1292498478
H  H17  1  0.97094000  0.47307000  0.02253000  1.0 0.1292498478
H  H18  1  0.52906000  0.97307000  0.47747000  1.0 0.1292498478
H  H19  1  0.02906000  0.47307000  0.52253000  1.0 0.1292498478
H  H20  1  0.47094000  0.97307000  0.97747000  1.0 0.1292498478
H  H21  1  0.90189000  0.45329000  0.25767000  1.0 0.1201736417
H  H22  1  0.59811000  0.95329000  0.24233000  1.0 0.1201736417
H  H23  1  0.09811000  0.45329000  0.75767000  1.0 0.1201736417
H  H24  1  0.40189000  0.95329000  0.74233000  1.0 0.1201736417
H  H25  1  0.78409000  0.47428000  0.09433000  1.0 0.1386134393
H  H26  1  0.71591000  0.97428000  0.40567000  1.0 0.1386134393
H  H27  1  0.21591000  0.47428000  0.59433000  1.0 0.1386134393
H  H28  1  0.28409000  0.97428000  0.90567000  1.0 0.1386134393
H  H29  1  0.72369000  0.39317000  0.33185000  1.0 0.1201736417
H  H30  1  0.77631000  0.89317000  0.16815000  1.0 0.1201736417
H  H31  1  0.27631000  0.39317000  0.83185000  1.0 0.1201736417
H  H32  1  0.22369000  0.89317000  0.66815000  1.0 0.1201736417
H  H33  1  0.48230000  0.67886000  0.07444000  1.0 0.1098928862
H  H34  1  0.01770000  0.17886000  0.42556000  1.0 0.1098928862
H  H35  1  0.51770000  0.67886000  0.57444000  1.0 0.1098928862
H  H36  1  0.98230000  0.17886000  0.92556000  1.0 0.1098928862
H  H37  1  0.46898000  0.60107000  0.04490000  1.0 0.1201736417
H  H38  1  0.03102000  0.10107000  0.45510000  1.0 0.1201736417
H  H39  1  0.53102000  0.60107000  0.54490000  1.0 0.1201736417
H  H40  1  0.96898000  0.10107000  0.95510000  1.0 0.1201736417
H  H41  1  0.71214000  0.40909000  0.26186000  1.0 0.1201736417
H  H42  1  0.78786000  0.90909000  0.23814000  1.0 0.1201736417
H  H43  1  0.28786000  0.40909000  0.76186000  1.0 0.1201736417
H  H44  1  0.21214000  0.90909000  0.73814000  1.0 0.1201736417
H  H45  1  0.69680000  0.72643000  0.03983000  1.0 0.1386134393
H  H46  1  0.80320000  0.22643000  0.46017000  1.0 0.1386134393
H  H47  1  0.30320000  0.72643000  0.53983000  1.0 0.1386134393
H  H48  1  0.19680000  0.22643000  0.96017000  1.0 0.1386134393
H  H49  1  0.94459000  0.37990000  0.13888000  1.0 0.1098928862
H  H50  1  0.55541000  0.87990000  0.36112000  1.0 0.1098928862
H  H51  1  0.05541000  0.37990000  0.63888000  1.0 0.1098928862
H  H52  1  0.44459000  0.87990000  0.86112000  1.0 0.1098928862
H  H53  1  0.70466000  0.46837000  0.20883000  1.0 0.1292498478
H  H54  1  0.79534000  0.96837000  0.29117000  1.0 0.1292498478
H  H55  1  0.29534000  0.46837000  0.70883000  1.0 0.1292498478
H  H56  1  0.20466000  0.96837000  0.79117000  1.0 0.1292498478
H  H57  1  0.02892000  0.36339000  0.09178000  1.0 0.1292498478
H  H58  1  0.47108000  0.86339000  0.40822000  1.0 0.1292498478
H  H59  1  0.97108000  0.36339000  0.59178000  1.0 0.1292498478
H  H60  1  0.52892000  0.86339000  0.90822000  1.0 0.1292498478
H  H61  1  0.67383000  0.64718000  0.04859000  1.0 0.1292498478
H  H62  1  0.82617000  0.14718000  0.45141000  1.0 0.1292498478
H  H63  1  0.32617000  0.64718000  0.54859000  1.0 0.1292498478
H  H64  1  0.17383000  0.14718000  0.95141000  1.0 0.1292498478
H  H65  1  0.65381000  0.58696000  0.09616000  1.0 0.1386134393
H  H66  1  0.84619000  0.08696000  0.40384000  1.0 0.1386134393
H  H67  1  0.34619000  0.58696000  0.59616000  1.0 0.1386134393
H  H68  1  0.15381000  0.08696000  0.90384000  1.0 0.1386134393
H  H69  1  0.35988000  0.41006000  0.03090000  1.0 0.1292498478
H  H70  1  0.14012000  0.91006000  0.46910000  1.0 0.1292498478
H  H71  1  0.64012000  0.41006000  0.53090000  1.0 0.1292498478
H  H72  1  0.85988000  0.91006000  0.96910000  1.0 0.1292498478
H  H73  1  0.45217000  0.44536000  0.05667000  1.0 0.1201736417
H  H74  1  0.04783000  0.94536000  0.44333000  1.0 0.1201736417
H  H75  1  0.54783000  0.44536000  0.55667000  1.0 0.1201736417
H  H76  1  0.95217000  0.94536000  0.94333000  1.0 0.1201736417
H  H77  1  0.53889000  0.47410000  0.07870000  1.0 0.1292498478
H  H78  1  0.96111000  0.97410000  0.42130000  1.0 0.1292498478
H  H79  1  0.46111000  0.47410000  0.57870000  1.0 0.1292498478
H  H80  1  0.03889000  0.97410000  0.92130000  1.0 0.1292498478
H  H81  1  0.28563000  0.53455000  0.00008000  1.0 0.1292498478
H  H82  1  0.21437000  0.03455000  0.49992000  1.0 0.1292498478
H  H83  1  0.71437000  0.53455000  0.50008000  1.0 0.1292498478
H  H84  1  0.78563000  0.03455000  0.99992000  1.0 0.1292498478
H  H85  1  0.37906000  0.56970000  0.03128000  1.0 0.1201736417
H  H86  1  0.12094000  0.06970000  0.46872000  1.0 0.1201736417
H  H87  1  0.62094000  0.56970000  0.53128000  1.0 0.1201736417
H  H88  1  0.87906000  0.06970000  0.96872000  1.0 0.1201736417
H  H89  1  0.89015000  0.58051000  0.31142000  1.0 0.1201736417
H  H90  1  0.60985000  0.08051000  0.18858000  1.0 0.1201736417
H  H91  1  0.10985000  0.58051000  0.81142000  1.0 0.1201736417
H  H92  1  0.39015000  0.08051000  0.68858000  1.0 0.1201736417
H  H93  1  0.91276000  0.55813000  0.17235000  1.0 0.1292498478
H  H94  1  0.58724000  0.05813000  0.32765000  1.0 0.1292498478
H  H95  1  0.08724000  0.55813000  0.67235000  1.0 0.1292498478
H  H96  1  0.41276000  0.05813000  0.82765000  1.0 0.1292498478
H  H97  1  0.50600000  0.24237000  0.43384000  1.0 0.1292498478
H  H98  1  0.99400000  0.74237000  0.06616000  1.0 0.1292498478
H  H99  1  0.49400000  0.24237000  0.93384000  1.0 0.1292498478
H  H100  1  0.00600000  0.74237000  0.56616000  1.0 0.1292498478
H  H101  1  0.88314000  0.51199000  0.43317000  1.0 0.1292498478
H  H102  1  0.61686000  0.01199000  0.06683000  1.0 0.1292498478
H  H103  1  0.11686000  0.51199000  0.93317000  1.0 0.1292498478
H  H104  1  0.38314000  0.01199000  0.56683000  1.0 0.1292498478
H  H105  1  0.97094000  0.52693000  0.47747000  1.0 0.1292498478
H  H106  1  0.52906000  0.02693000  0.02253000  1.0 0.1292498478
H  H107  1  0.02906000  0.52693000  0.97747000  1.0 0.1292498478
H  H108  1  0.47094000  0.02693000  0.52253000  1.0 0.1292498478
H  H109  1  0.90189000  0.54671000  0.24233000  1.0 0.1201736417
H  H110  1  0.59811000  0.04671000  0.25767000  1.0 0.1201736417
H  H111  1  0.09811000  0.54671000  0.74233000  1.0 0.1201736417
H  H112  1  0.40189000  0.04671000  0.75767000  1.0 0.1201736417
H  H113  1  0.78409000  0.52572000  0.40567000  1.0 0.1386134393
H  H114  1  0.71591000  0.02572000  0.09433000  1.0 0.1386134393
H  H115  1  0.21591000  0.52572000  0.90567000  1.0 0.1386134393
H  H116  1  0.28409000  0.02572000  0.59433000  1.0 0.1386134393
H  H117  1  0.72369000  0.60683000  0.16815000  1.0 0.1201736417
H  H118  1  0.77631000  0.10683000  0.33185000  1.0 0.1201736417
H  H119  1  0.27631000  0.60683000  0.66815000  1.0 0.1201736417
H  H120  1  0.22369000  0.10683000  0.83185000  1.0 0.1201736417
H  H121  1  0.48230000  0.32114000  0.42556000  1.0 0.1098928862
H  H122  1  0.01770000  0.82114000  0.07444000  1.0 0.1098928862
H  H123  1  0.51770000  0.32114000  0.92556000  1.0 0.1098928862
H  H124  1  0.98230000  0.82114000  0.57444000  1.0 0.1098928862
H  H125  1  0.46898000  0.39893000  0.45510000  1.0 0.1201736417
H  H126  1  0.03102000  0.89893000  0.04490000  1.0 0.1201736417
H  H127  1  0.53102000  0.39893000  0.95510000  1.0 0.1201736417
H  H128  1  0.96898000  0.89893000  0.54490000  1.0 0.1201736417
H  H129  1  0.71214000  0.59091000  0.23814000  1.0 0.1201736417
H  H130  1  0.78786000  0.09091000  0.26186000  1.0 0.1201736417
H  H131  1  0.28786000  0.59091000  0.73814000  1.0 0.1201736417
H  H132  1  0.21214000  0.09091000  0.76186000  1.0 0.1201736417
H  H133  1  0.69680000  0.27357000  0.46017000  1.0 0.1386134393
H  H134  1  0.80320000  0.77357000  0.03983000  1.0 0.1386134393
H  H135  1  0.30320000  0.27357000  0.96017000  1.0 0.1386134393
H  H136  1  0.19680000  0.77357000  0.53983000  1.0 0.1386134393
H  H137  1  0.94459000  0.62010000  0.36112000  1.0 0.1098928862
H  H138  1  0.55541000  0.12010000  0.13888000  1.0 0.1098928862
H  H139  1  0.05541000  0.62010000  0.86112000  1.0 0.1098928862
H  H140  1  0.44459000  0.12010000  0.63888000  1.0 0.1098928862
H  H141  1  0.70466000  0.53163000  0.29117000  1.0 0.1292498478
H  H142  1  0.79534000  0.03163000  0.20883000  1.0 0.1292498478
H  H143  1  0.29534000  0.53163000  0.79117000  1.0 0.1292498478
H  H144  1  0.20466000  0.03163000  0.70883000  1.0 0.1292498478
H  H145  1  0.02892000  0.63661000  0.40822000  1.0 0.1292498478
H  H146  1  0.47108000  0.13661000  0.09178000  1.0 0.1292498478
H  H147  1  0.97108000  0.63661000  0.90822000  1.0 0.1292498478
H  H148  1  0.52892000  0.13661000  0.59178000  1.0 0.1292498478
H  H149  1  0.67383000  0.35282000  0.45141000  1.0 0.1292498478
H  H150  1  0.82617000  0.85282000  0.04859000  1.0 0.1292498478
H  H151  1  0.32617000  0.35282000  0.95141000  1.0 0.1292498478
H  H152  1  0.17383000  0.85282000  0.54859000  1.0 0.1292498478
H  H153  1  0.65381000  0.41304000  0.40384000  1.0 0.1386134393
H  H154  1  0.84619000  0.91304000  0.09616000  1.0 0.1386134393
H  H155  1  0.34619000  0.41304000  0.90384000  1.0 0.1386134393
H  H156  1  0.15381000  0.91304000  0.59616000  1.0 0.1386134393
H  H157  1  0.35988000  0.58994000  0.46910000  1.0 0.1292498478
H  H158  1  0.14012000  0.08994000  0.03090000  1.0 0.1292498478
H  H159  1  0.64012000  0.58994000  0.96910000  1.0 0.1292498478
H  H160  1  0.85988000  0.08994000  0.53090000  1.0 0.1292498478
H  H161  1  0.45217000  0.55464000  0.44333000  1.0 0.1201736417
H  H162  1  0.04783000  0.05464000  0.05667000  1.0 0.1201736417
H  H163  1  0.54783000  0.55464000  0.94333000  1.0 0.1201736417
H  H164  1  0.95217000  0.05464000  0.55667000  1.0 0.1201736417
H  H165  1  0.53889000  0.52590000  0.42130000  1.0 0.1292498478
H  H166  1  0.96111000  0.02590000  0.07870000  1.0 0.1292498478
H  H167  1  0.46111000  0.52590000  0.92130000  1.0 0.1292498478
H  H168  1  0.03889000  0.02590000  0.57870000  1.0 0.1292498478
H  H169  1  0.28563000  0.46545000  0.49992000  1.0 0.1292498478
H  H170  1  0.21437000  0.96545000  0.00008000  1.0 0.1292498478
H  H171  1  0.71437000  0.46545000  0.99992000  1.0 0.1292498478
H  H172  1  0.78563000  0.96545000  0.50008000  1.0 0.1292498478
H  H173  1  0.37906000  0.43030000  0.46872000  1.0 0.1201736417
H  H174  1  0.12094000  0.93030000  0.03128000  1.0 0.1201736417
H  H175  1  0.62094000  0.43030000  0.96872000  1.0 0.1201736417
H  H176  1  0.87906000  0.93030000  0.53128000  1.0 0.1201736417
C  C1  1  0.82640000  0.40880000  0.38325000  1.0 0.5294262982
C  C2  1  0.67360000  0.90880000  0.11675000  1.0 0.5294262982
C  C3  1  0.17360000  0.40880000  0.88325000  1.0 0.5294262982
C  C4  1  0.32640000  0.90880000  0.61675000  1.0 0.5294262982
C  C5  1  0.81870000  0.41684000  0.33775000  1.0 -0.0212792908
C  C6  1  0.68130000  0.91684000  0.16225000  1.0 -0.0212792908
C  C7  1  0.18130000  0.41684000  0.83775000  1.0 -0.0212792908
C  C8  1  0.31870000  0.91684000  0.66225000  1.0 -0.0212792908
C  C9  1  0.62120000  0.80080000  0.04702000  1.0 0.5414580955
C  C10  1  0.87880000  0.30080000  0.45298000  1.0 0.5414580955
C  C11  1  0.37880000  0.80080000  0.54702000  1.0 0.5414580955
C  C12  1  0.12120000  0.30080000  0.95298000  1.0 0.5414580955
C  C13  1  0.06320000  0.40820000  0.02209000  1.0 0.5414580955
C  C14  1  0.43680000  0.90820000  0.47791000  1.0 0.5414580955
C  C15  1  0.93680000  0.40820000  0.52209000  1.0 0.5414580955
C  C16  1  0.56320000  0.90820000  0.97791000  1.0 0.5414580955
C  C17  1  0.00820000  0.41665000  0.05191000  1.0 -0.0212792908
C  C18  1  0.49180000  0.91665000  0.44809000  1.0 -0.0212792908
C  C19  1  0.99180000  0.41665000  0.55191000  1.0 -0.0212792908
C  C20  1  0.50820000  0.91665000  0.94809000  1.0 -0.0212792908
C  C21  1  0.90280000  0.43490000  0.10782000  1.0 0.0612149449
C  C22  1  0.59720000  0.93490000  0.39218000  1.0 0.0612149449
C  C23  1  0.09720000  0.43490000  0.60782000  1.0 0.0612149449
C  C24  1  0.40280000  0.93490000  0.89218000  1.0 0.0612149449
C  C25  1  0.25300000  0.44340000  0.99334000  1.0 0.5294262982
C  C26  1  0.24700000  0.94340000  0.50666000  1.0 0.5294262982
C  C27  1  0.74700000  0.44340000  0.49334000  1.0 0.5294262982
C  C28  1  0.75300000  0.94340000  0.00666000  1.0 0.5294262982
C  C29  1  0.60390000  0.75012000  0.05210000  1.0 -0.0212792908
C  C30  1  0.89610000  0.25012000  0.44790000  1.0 -0.0212792908
C  C31  1  0.39610000  0.75012000  0.55210000  1.0 -0.0212792908
C  C32  1  0.10390000  0.25012000  0.94790000  1.0 -0.0212792908
C  C33  1  0.84700000  0.44469000  0.13624000  1.0 0.1002438712
C  C34  1  0.65300000  0.94469000  0.36376000  1.0 0.1002438712
C  C35  1  0.15300000  0.44469000  0.63624000  1.0 0.1002438712
C  C36  1  0.34700000  0.94469000  0.86376000  1.0 0.1002438712
C  C37  1  0.80610000  0.43259000  0.25161000  1.0 0.0651313878
C  C38  1  0.69390000  0.93259000  0.24839000  1.0 0.0651313878
C  C39  1  0.19390000  0.43259000  0.75161000  1.0 0.0651313878
C  C40  1  0.30610000  0.93259000  0.74839000  1.0 0.0651313878
C  C41  1  0.31450000  0.46771000  0.01090000  1.0 -0.0075204989
C  C42  1  0.18550000  0.96771000  0.48910000  1.0 -0.0075204989
C  C43  1  0.68550000  0.46771000  0.51090000  1.0 -0.0075204989
C  C44  1  0.81450000  0.96771000  0.98910000  1.0 -0.0075204989
C  C45  1  0.85110000  0.43367000  0.17859000  1.0 -0.1905317626
C  C46  1  0.64890000  0.93367000  0.32141000  1.0 -0.1905317626
C  C47  1  0.14890000  0.43367000  0.67859000  1.0 -0.1905317626
C  C48  1  0.35110000  0.93367000  0.82141000  1.0 -0.1905317626
C  C49  1  0.57620000  0.65452000  0.06340000  1.0 0.0612149449
C  C50  1  0.92380000  0.15452000  0.43660000  1.0 0.0612149449
C  C51  1  0.42380000  0.65452000  0.56340000  1.0 0.0612149449
C  C52  1  0.07620000  0.15452000  0.93660000  1.0 0.0612149449
C  C53  1  0.87220000  0.43473000  0.31457000  1.0 -0.0894766458
C  C54  1  0.62780000  0.93473000  0.18543000  1.0 -0.0894766458
C  C55  1  0.12780000  0.43473000  0.81457000  1.0 -0.0894766458
C  C56  1  0.37220000  0.93473000  0.68543000  1.0 -0.0894766458
C  C57  1  0.54000000  0.73531000  0.06260000  1.0 -0.0823403196
C  C58  1  0.96000000  0.23531000  0.43740000  1.0 -0.0823403196
C  C59  1  0.46000000  0.73531000  0.56260000  1.0 -0.0823403196
C  C60  1  0.04000000  0.23531000  0.93740000  1.0 -0.0823403196
C  C61  1  0.91230000  0.46299000  0.07235000  1.0 -0.1210588933
C  C62  1  0.58770000  0.96299000  0.42765000  1.0 -0.1210588933
C  C63  1  0.08770000  0.46299000  0.57235000  1.0 -0.1210588933
C  C64  1  0.41230000  0.96299000  0.92765000  1.0 -0.1210588933
C  C65  1  0.96480000  0.45362000  0.04565000  1.0 -0.0823403196
C  C66  1  0.53520000  0.95362000  0.45435000  1.0 -0.0823403196
C  C67  1  0.03520000  0.45362000  0.54565000  1.0 -0.0823403196
C  C68  1  0.46480000  0.95362000  0.95435000  1.0 -0.0823403196
C  C69  1  0.79910000  0.44301000  0.20652000  1.0 0.0887858897
C  C70  1  0.70090000  0.94301000  0.29348000  1.0 0.0887858897
C  C71  1  0.20090000  0.44301000  0.70652000  1.0 0.0887858897
C  C72  1  0.29910000  0.94301000  0.79348000  1.0 0.0887858897
C  C73  1  0.86530000  0.44180000  0.27266000  1.0 -0.1592947458
C  C74  1  0.63470000  0.94180000  0.22734000  1.0 -0.1592947458
C  C75  1  0.13470000  0.44180000  0.77266000  1.0 -0.1592947458
C  C76  1  0.36530000  0.94180000  0.72734000  1.0 -0.1592947458
C  C77  1  0.78830000  0.46601000  0.12231000  1.0 -0.1905317626
C  C78  1  0.71170000  0.96601000  0.37769000  1.0 -0.1905317626
C  C79  1  0.21170000  0.46601000  0.62231000  1.0 -0.1905317626
C  C80  1  0.28830000  0.96601000  0.87769000  1.0 -0.1905317626
C  C81  1  0.56390000  0.60323000  0.06840000  1.0 0.1098928862
C  C82  1  0.93610000  0.10323000  0.43160000  1.0 0.1098928862
C  C83  1  0.43610000  0.60323000  0.56840000  1.0 0.1098928862
C  C84  1  0.06390000  0.10323000  0.93160000  1.0 0.1098928862
C  C85  1  0.75950000  0.40630000  0.31717000  1.0 -0.1006666747
C  C86  1  0.74050000  0.90630000  0.18283000  1.0 -0.1006666747
C  C87  1  0.24050000  0.40630000  0.81717000  1.0 -0.1006666747
C  C88  1  0.25950000  0.90630000  0.68283000  1.0 -0.1006666747
C  C89  1  0.52590000  0.68830000  0.06785000  1.0 -0.1425661639
C  C90  1  0.97410000  0.18830000  0.43215000  1.0 -0.1425661639
C  C91  1  0.47410000  0.68830000  0.56785000  1.0 -0.1425661639
C  C92  1  0.02590000  0.18830000  0.93215000  1.0 -0.1425661639
C  C93  1  0.50310000  0.58203000  0.05554000  1.0 -0.20363772
C  C94  1  0.99690000  0.08203000  0.44446000  1.0 -0.20363772
C  C95  1  0.49690000  0.58203000  0.55554000  1.0 -0.20363772
C  C96  1  0.00310000  0.08203000  0.94446000  1.0 -0.20363772
C  C97  1  0.75310000  0.41510000  0.27491000  1.0 -0.1492036589
C  C98  1  0.74690000  0.91510000  0.22509000  1.0 -0.1492036589
C  C99  1  0.24690000  0.41510000  0.77491000  1.0 -0.1492036589
C  C100  1  0.25310000  0.91510000  0.72509000  1.0 -0.1492036589
C  C101  1  0.42950000  0.51089000  0.04377000  1.0 0.0651313878
C  C102  1  0.07050000  0.01089000  0.45623000  1.0 0.0651313878
C  C103  1  0.57050000  0.51089000  0.54377000  1.0 0.0651313878
C  C104  1  0.92950000  0.01089000  0.95623000  1.0 0.0651313878
C  C105  1  0.73610000  0.47510000  0.14951000  1.0 0.1495719581
C  C106  1  0.76390000  0.97510000  0.35049000  1.0 0.1495719581
C  C107  1  0.26390000  0.47510000  0.64951000  1.0 0.1495719581
C  C108  1  0.23610000  0.97510000  0.85049000  1.0 0.1495719581
C  C109  1  0.65350000  0.71687000  0.04700000  1.0 -0.0731311747
C  C110  1  0.84650000  0.21687000  0.45300000  1.0 -0.0731311747
C  C111  1  0.34650000  0.71687000  0.54700000  1.0 -0.0731311747
C  C112  1  0.15350000  0.21687000  0.95300000  1.0 -0.0731311747
C  C113  1  0.94860000  0.39830000  0.11489000  1.0 -0.1492036589
C  C114  1  0.55140000  0.89830000  0.38511000  1.0 -0.1492036589
C  C115  1  0.05140000  0.39830000  0.61489000  1.0 -0.1492036589
C  C116  1  0.44860000  0.89830000  0.88511000  1.0 -0.1492036589
C  C117  1  0.74090000  0.46300000  0.19108000  1.0 -0.20363772
C  C118  1  0.75910000  0.96300000  0.30892000  1.0 -0.20363772
C  C119  1  0.25910000  0.46300000  0.69108000  1.0 -0.20363772
C  C120  1  0.24090000  0.96300000  0.80892000  1.0 -0.20363772
C  C121  1  0.99990000  0.38870000  0.08697000  1.0 -0.0823403196
C  C122  1  0.50010000  0.88870000  0.41303000  1.0 -0.0823403196
C  C123  1  0.00010000  0.38870000  0.58697000  1.0 -0.0823403196
C  C124  1  0.49990000  0.88870000  0.91303000  1.0 -0.0823403196
C  C125  1  0.63980000  0.66940000  0.05240000  1.0 -0.1210588933
C  C126  1  0.86020000  0.16940000  0.44760000  1.0 -0.1210588933
C  C127  1  0.36020000  0.66940000  0.55240000  1.0 -0.1210588933
C  C128  1  0.13980000  0.16940000  0.94760000  1.0 -0.1210588933
C  C129  1  0.49300000  0.53376000  0.05832000  1.0 0.1098928862
C  C130  1  0.00700000  0.03376000  0.44168000  1.0 0.1098928862
C  C131  1  0.50700000  0.53376000  0.55832000  1.0 0.1098928862
C  C132  1  0.99300000  0.03376000  0.94168000  1.0 0.1098928862
C  C133  1  0.61410000  0.57388000  0.08602000  1.0 -0.1905317626
C  C134  1  0.88590000  0.07388000  0.41398000  1.0 -0.1905317626
C  C135  1  0.38590000  0.57388000  0.58602000  1.0 -0.1905317626
C  C136  1  0.11410000  0.07388000  0.91398000  1.0 -0.1905317626
C  C137  1  0.36380000  0.44284000  0.02900000  1.0 -0.1006666747
C  C138  1  0.13620000  0.94284000  0.47100000  1.0 -0.1006666747
C  C139  1  0.63620000  0.44284000  0.52900000  1.0 -0.1006666747
C  C140  1  0.86380000  0.94284000  0.97100000  1.0 -0.1006666747
C  C141  1  0.60370000  0.52710000  0.08790000  1.0 0.1495719581
C  C142  1  0.89630000  0.02710000  0.41210000  1.0 0.1495719581
C  C143  1  0.39630000  0.52710000  0.58790000  1.0 0.1495719581
C  C144  1  0.10370000  0.02710000  0.91210000  1.0 0.1495719581
C  C145  1  0.41920000  0.46433000  0.04460000  1.0 -0.1592947458
C  C146  1  0.08080000  0.96433000  0.45540000  1.0 -0.1592947458
C  C147  1  0.58080000  0.46433000  0.54460000  1.0 -0.1592947458
C  C148  1  0.91920000  0.96433000  0.95540000  1.0 -0.1592947458
C  C149  1  0.54470000  0.50663000  0.07560000  1.0 -0.2094141607
C  C150  1  0.95530000  0.00663000  0.42440000  1.0 -0.2094141607
C  C151  1  0.45530000  0.50663000  0.57560000  1.0 -0.2094141607
C  C152  1  0.04470000  0.00663000  0.92440000  1.0 -0.2094141607
C  C153  1  0.31960000  0.51583000  0.01140000  1.0 -0.1006666747
C  C154  1  0.18040000  0.01583000  0.48860000  1.0 -0.1006666747
C  C155  1  0.68040000  0.51583000  0.51140000  1.0 -0.1006666747
C  C156  1  0.81960000  0.01583000  0.98860000  1.0 -0.1006666747
C  C157  1  0.37700000  0.53680000  0.02930000  1.0 -0.1683668428
C  C158  1  0.12300000  0.03680000  0.47070000  1.0 -0.1683668428
C  C159  1  0.62300000  0.53680000  0.52930000  1.0 -0.1683668428
C  C160  1  0.87700000  0.03680000  0.97070000  1.0 -0.1683668428
C  C161  1  0.82640000  0.59120000  0.11675000  1.0 0.5294262982
C  C162  1  0.67360000  0.09120000  0.38325000  1.0 0.5294262982
C  C163  1  0.17360000  0.59120000  0.61675000  1.0 0.5294262982
C  C164  1  0.32640000  0.09120000  0.88325000  1.0 0.5294262982
C  C165  1  0.81870000  0.58316000  0.16225000  1.0 -0.0212792908
C  C166  1  0.68130000  0.08316000  0.33775000  1.0 -0.0212792908
C  C167  1  0.18130000  0.58316000  0.66225000  1.0 -0.0212792908
C  C168  1  0.31870000  0.08316000  0.83775000  1.0 -0.0212792908
C  C169  1  0.62120000  0.19920000  0.45298000  1.0 0.5414580955
C  C170  1  0.87880000  0.69920000  0.04702000  1.0 0.5414580955
C  C171  1  0.37880000  0.19920000  0.95298000  1.0 0.5414580955
C  C172  1  0.12120000  0.69920000  0.54702000  1.0 0.5414580955
C  C173  1  0.06320000  0.59180000  0.47791000  1.0 0.5414580955
C  C174  1  0.43680000  0.09180000  0.02209000  1.0 0.5414580955
C  C175  1  0.93680000  0.59180000  0.97791000  1.0 0.5414580955
C  C176  1  0.56320000  0.09180000  0.52209000  1.0 0.5414580955
C  C177  1  0.00820000  0.58335000  0.44809000  1.0 -0.0212792908
C  C178  1  0.49180000  0.08335000  0.05191000  1.0 -0.0212792908
C  C179  1  0.99180000  0.58335000  0.94809000  1.0 -0.0212792908
C  C180  1  0.50820000  0.08335000  0.55191000  1.0 -0.0212792908
C  C181  1  0.90280000  0.56510000  0.39218000  1.0 0.0612149449
C  C182  1  0.59720000  0.06510000  0.10782000  1.0 0.0612149449
C  C183  1  0.09720000  0.56510000  0.89218000  1.0 0.0612149449
C  C184  1  0.40280000  0.06510000  0.60782000  1.0 0.0612149449
C  C185  1  0.25300000  0.55660000  0.50666000  1.0 0.5294262982
C  C186  1  0.24700000  0.05660000  0.99334000  1.0 0.5294262982
C  C187  1  0.74700000  0.55660000  0.00666000  1.0 0.5294262982
C  C188  1  0.75300000  0.05660000  0.49334000  1.0 0.5294262982
C  C189  1  0.60390000  0.24988000  0.44790000  1.0 -0.0212792908
C  C190  1  0.89610000  0.74988000  0.05210000  1.0 -0.0212792908
C  C191  1  0.39610000  0.24988000  0.94790000  1.0 -0.0212792908
C  C192  1  0.10390000  0.74988000  0.55210000  1.0 -0.0212792908
C  C193  1  0.84700000  0.55531000  0.36376000  1.0 0.1002438712
C  C194  1  0.65300000  0.05531000  0.13624000  1.0 0.1002438712
C  C195  1  0.15300000  0.55531000  0.86376000  1.0 0.1002438712
C  C196  1  0.34700000  0.05531000  0.63624000  1.0 0.1002438712
C  C197  1  0.80610000  0.56741000  0.24839000  1.0 0.0651313878
C  C198  1  0.69390000  0.06741000  0.25161000  1.0 0.0651313878
C  C199  1  0.19390000  0.56741000  0.74839000  1.0 0.0651313878
C  C200  1  0.30610000  0.06741000  0.75161000  1.0 0.0651313878
C  C201  1  0.31450000  0.53229000  0.48910000  1.0 -0.0075204989
C  C202  1  0.18550000  0.03229000  0.01090000  1.0 -0.0075204989
C  C203  1  0.68550000  0.53229000  0.98910000  1.0 -0.0075204989
C  C204  1  0.81450000  0.03229000  0.51090000  1.0 -0.0075204989
C  C205  1  0.85110000  0.56633000  0.32141000  1.0 -0.1905317626
C  C206  1  0.64890000  0.06633000  0.17859000  1.0 -0.1905317626
C  C207  1  0.14890000  0.56633000  0.82141000  1.0 -0.1905317626
C  C208  1  0.35110000  0.06633000  0.67859000  1.0 -0.1905317626
C  C209  1  0.57620000  0.34548000  0.43660000  1.0 0.0612149449
C  C210  1  0.92380000  0.84548000  0.06340000  1.0 0.0612149449
C  C211  1  0.42380000  0.34548000  0.93660000  1.0 0.0612149449
C  C212  1  0.07620000  0.84548000  0.56340000  1.0 0.0612149449
C  C213  1  0.87220000  0.56527000  0.18543000  1.0 -0.0894766458
C  C214  1  0.62780000  0.06527000  0.31457000  1.0 -0.0894766458
C  C215  1  0.12780000  0.56527000  0.68543000  1.0 -0.0894766458
C  C216  1  0.37220000  0.06527000  0.81457000  1.0 -0.0894766458
C  C217  1  0.54000000  0.26469000  0.43740000  1.0 -0.0823403196
C  C218  1  0.96000000  0.76469000  0.06260000  1.0 -0.0823403196
C  C219  1  0.46000000  0.26469000  0.93740000  1.0 -0.0823403196
C  C220  1  0.04000000  0.76469000  0.56260000  1.0 -0.0823403196
C  C221  1  0.91230000  0.53701000  0.42765000  1.0 -0.1210588933
C  C222  1  0.58770000  0.03701000  0.07235000  1.0 -0.1210588933
C  C223  1  0.08770000  0.53701000  0.92765000  1.0 -0.1210588933
C  C224  1  0.41230000  0.03701000  0.57235000  1.0 -0.1210588933
C  C225  1  0.96480000  0.54638000  0.45435000  1.0 -0.0823403196
C  C226  1  0.53520000  0.04638000  0.04565000  1.0 -0.0823403196
C  C227  1  0.03520000  0.54638000  0.95435000  1.0 -0.0823403196
C  C228  1  0.46480000  0.04638000  0.54565000  1.0 -0.0823403196
C  C229  1  0.79910000  0.55699000  0.29348000  1.0 0.0887858897
C  C230  1  0.70090000  0.05699000  0.20652000  1.0 0.0887858897
C  C231  1  0.20090000  0.55699000  0.79348000  1.0 0.0887858897
C  C232  1  0.29910000  0.05699000  0.70652000  1.0 0.0887858897
C  C233  1  0.86530000  0.55820000  0.22734000  1.0 -0.1592947458
C  C234  1  0.63470000  0.05820000  0.27266000  1.0 -0.1592947458
C  C235  1  0.13470000  0.55820000  0.72734000  1.0 -0.1592947458
C  C236  1  0.36530000  0.05820000  0.77266000  1.0 -0.1592947458
C  C237  1  0.78830000  0.53399000  0.37769000  1.0 -0.1905317626
C  C238  1  0.71170000  0.03399000  0.12231000  1.0 -0.1905317626
C  C239  1  0.21170000  0.53399000  0.87769000  1.0 -0.1905317626
C  C240  1  0.28830000  0.03399000  0.62231000  1.0 -0.1905317626
C  C241  1  0.56390000  0.39677000  0.43160000  1.0 0.1098928862
C  C242  1  0.93610000  0.89677000  0.06840000  1.0 0.1098928862
C  C243  1  0.43610000  0.39677000  0.93160000  1.0 0.1098928862
C  C244  1  0.06390000  0.89677000  0.56840000  1.0 0.1098928862
C  C245  1  0.75950000  0.59370000  0.18283000  1.0 -0.1006666747
C  C246  1  0.74050000  0.09370000  0.31717000  1.0 -0.1006666747
C  C247  1  0.24050000  0.59370000  0.68283000  1.0 -0.1006666747
C  C248  1  0.25950000  0.09370000  0.81717000  1.0 -0.1006666747
C  C249  1  0.52590000  0.31170000  0.43215000  1.0 -0.1425661639
C  C250  1  0.97410000  0.81170000  0.06785000  1.0 -0.1425661639
C  C251  1  0.47410000  0.31170000  0.93215000  1.0 -0.1425661639
C  C252  1  0.02590000  0.81170000  0.56785000  1.0 -0.1425661639
C  C253  1  0.50310000  0.41797000  0.44446000  1.0 -0.20363772
C  C254  1  0.99690000  0.91797000  0.05554000  1.0 -0.20363772
C  C255  1  0.49690000  0.41797000  0.94446000  1.0 -0.20363772
C  C256  1  0.00310000  0.91797000  0.55554000  1.0 -0.20363772
C  C257  1  0.75310000  0.58490000  0.22509000  1.0 -0.1492036589
C  C258  1  0.74690000  0.08490000  0.27491000  1.0 -0.1492036589
C  C259  1  0.24690000  0.58490000  0.72509000  1.0 -0.1492036589
C  C260  1  0.25310000  0.08490000  0.77491000  1.0 -0.1492036589
C  C261  1  0.42950000  0.48911000  0.45623000  1.0 0.0651313878
C  C262  1  0.07050000  0.98911000  0.04377000  1.0 0.0651313878
C  C263  1  0.57050000  0.48911000  0.95623000  1.0 0.0651313878
C  C264  1  0.92950000  0.98911000  0.54377000  1.0 0.0612149449
C  C265  1  0.73610000  0.52490000  0.35049000  1.0 0.1495719581
C  C266  1  0.76390000  0.02490000  0.14951000  1.0 0.1495719581
C  C267  1  0.26390000  0.52490000  0.85049000  1.0 0.1495719581
C  C268  1  0.23610000  0.02490000  0.64951000  1.0 0.1495719581
C  C269  1  0.65350000  0.28313000  0.45300000  1.0 -0.0731311747
C  C270  1  0.84650000  0.78313000  0.04700000  1.0 -0.0731311747
C  C271  1  0.34650000  0.28313000  0.95300000  1.0 -0.0731311747
C  C272  1  0.15350000  0.78313000  0.54700000  1.0 -0.0731311747
C  C273  1  0.94860000  0.60170000  0.38511000  1.0 -0.1492036589
C  C274  1  0.55140000  0.10170000  0.11489000  1.0 -0.1492036589
C  C275  1  0.05140000  0.60170000  0.88511000  1.0 -0.1492036589
C  C276  1  0.44860000  0.10170000  0.61489000  1.0 -0.1492036589
C  C277  1  0.74090000  0.53700000  0.30892000  1.0 -0.20363772
C  C278  1  0.75910000  0.03700000  0.19108000  1.0 -0.20363772
C  C279  1  0.25910000  0.53700000  0.80892000  1.0 -0.20363772
C  C280  1  0.24090000  0.03700000  0.69108000  1.0 -0.20363772
C  C281  1  0.99990000  0.61130000  0.41303000  1.0 -0.0823403196
C  C282  1  0.50010000  0.11130000  0.08697000  1.0 -0.0823403196
C  C283  1  0.00010000  0.61130000  0.91303000  1.0 -0.0823403196
C  C284  1  0.49990000  0.11130000  0.58697000  1.0 -0.0823403196
C  C285  1  0.63980000  0.33060000  0.44760000  1.0 -0.1210588933
C  C286  1  0.86020000  0.83060000  0.05240000  1.0 -0.1210588933
C  C287  1  0.36020000  0.33060000  0.94760000  1.0 -0.1210588933
C  C288  1  0.13980000  0.83060000  0.55240000  1.0 -0.1210588933
C  C289  1  0.49300000  0.46624000  0.44168000  1.0 0.1098928862
C  C290  1  0.00700000  0.96624000  0.05832000  1.0 0.1098928862
C  C291  1  0.50700000  0.46624000  0.94168000  1.0 0.1098928862
C  C292  1  0.99300000  0.96624000  0.55832000  1.0 0.1098928862
C  C293  1  0.61410000  0.42612000  0.41398000  1.0 -0.1905317626
C  C294  1  0.88590000  0.92612000  0.08602000  1.0 -0.1905317626
C  C295  1  0.38590000  0.42612000  0.91398000  1.0 -0.1905317626
C  C296  1  0.11410000  0.92612000  0.58602000  1.0 -0.1905317626
C  C297  1  0.36380000  0.55716000  0.47100000  1.0 -0.1006666747
C  C298  1  0.13620000  0.05716000  0.02900000  1.0 -0.1006666747
C  C299  1  0.63620000  0.55716000  0.97100000  1.0 -0.1006666747
C  C300  1  0.86380000  0.05716000  0.52900000  1.0 -0.1006666747
C  C301  1  0.60370000  0.47290000  0.41210000  1.0 0.1495719581
C  C302  1  0.89630000  0.97290000  0.08790000  1.0 0.1495719581
C  C303  1  0.39630000  0.47290000  0.91210000  1.0 0.1495719581
C  C304  1  0.10370000  0.97290000  0.58790000  1.0 0.1495719581
C  C305  1  0.41920000  0.53567000  0.45540000  1.0 -0.1592947458
C  C306  1  0.08080000  0.03567000  0.04460000  1.0 -0.1592947458
C  C307  1  0.58080000  0.53567000  0.95540000  1.0 -0.1592947458
C  C308  1  0.91920000  0.03567000  0.54460000  1.0 -0.1592947458
C  C309  1  0.54470000  0.49337000  0.42440000  1.0 -0.2094141607
C  C310  1  0.95530000  0.99337000  0.07560000  1.0 -0.2094141607
C  C311  1  0.45530000  0.49337000  0.92440000  1.0 -0.2094141607
C  C312  1  0.04470000  0.99337000  0.57560000  1.0 -0.2094141607
C  C313  1  0.31960000  0.48417000  0.48860000  1.0 -0.1006666747
C  C314  1  0.18040000  0.98417000  0.01140000  1.0 -0.1006666747
C  C315  1  0.68040000  0.48417000  0.98860000  1.0 -0.1006666747
C  C316  1  0.81960000  0.98417000  0.51140000  1.0 -0.1006666747
C  C317  1  0.37700000  0.46320000  0.47070000  1.0 -0.1683668428
C  C318  1  0.12300000  0.96320000  0.02930000  1.0 -0.1683668428
C  C319  1  0.62300000  0.46320000  0.97070000  1.0 -0.1683668428
C  C320  1  0.87700000  0.96320000  0.52930000  1.0 -0.1683668428
N  N1  1  0.67710000  0.50110000  0.13514000  1.0 -0.0042190702
N  N2  1  0.82290000  0.00110000  0.36486000  1.0 -0.0042190702
N  N3  1  0.32290000  0.50110000  0.63514000  1.0 -0.0075204989
N  N4  1  0.17710000  0.00110000  0.86486000  1.0 -0.0075204989
N  N5  1  0.65920000  0.49680000  0.10280000  1.0 0.0008065214
N  N6  1  0.84080000  0.99680000  0.39720000  1.0 0.0008065214
N  N7  1  0.34080000  0.49680000  0.60280000  1.0 0.0008065214
N  N8  1  0.15920000  0.99680000  0.89720000  1.0 0.0008065214
N  N9  1  0.67710000  0.49890000  0.36486000  1.0 -0.0042190702
N  N10  1  0.82290000  0.99890000  0.13514000  1.0 -0.0042190702
N  N11  1  0.32290000  0.49890000  0.86486000  1.0 -0.0075204989
N  N12  1  0.17710000  0.99890000  0.63514000  1.0 -0.0075204989
N  N13  1  0.65920000  0.50320000  0.39720000  1.0 0.0008065214
N  N14  1  0.84080000  0.00320000  0.10280000  1.0 0.0008065214
N  N15  1  0.34080000  0.50320000  0.89720000  1.0 0.0008065214
N  N16  1  0.15920000  0.00320000  0.60280000  1.0 0.0008065214
O  O1  1  0.24741000  0.39967000  0.99777000  1.0 -0.4842358054
O  O2  1  0.25259000  0.89967000  0.50223000  1.0 -0.4842358054
O  O3  1  0.75259000  0.39967000  0.49777000  1.0 -0.4842358054
O  O4  1  0.74741000  0.89967000  0.00223000  1.0 -0.4842358054
O  O5  1  0.87864000  0.42249000  0.40145000  1.0 -0.4945123838
O  O6  1  0.62136000  0.92249000  0.09855000  1.0 -0.4945123838
O  O7  1  0.12136000  0.42249000  0.90145000  1.0 -0.4945123838
O  O8  1  0.37864000  0.92249000  0.59855000  1.0 -0.4945123838
O  O9  1  0.57889000  0.83241000  0.05582000  1.0 -0.5090586601
O  O10  1  0.92111000  0.33241000  0.44418000  1.0 -0.5090586601
O  O11  1  0.42111000  0.83241000  0.55582000  1.0 -0.5090586601
O  O12  1  0.07889000  0.33241000  0.94418000  1.0 -0.5090586601
O  O13  1  0.78147000  0.38707000  0.40321000  1.0 -0.5336270862
O  O14  1  0.71853000  0.88707000  0.09679000  1.0 -0.5336270862
O  O15  1  0.21853000  0.38707000  0.90321000  1.0 -0.5336270862
O  O16  1  0.28147000  0.88707000  0.59679000  1.0 -0.5336270862
O  O17  1  0.67672000  0.81331000  0.03326000  1.0 -0.4945123838
O  O18  1  0.82328000  0.31331000  0.46674000  1.0 -0.4945123838
O  O19  1  0.32328000  0.81331000  0.53326000  1.0 -0.4945123838
O  O20  1  0.17672000  0.31331000  0.96674000  1.0 -0.4945123838
O  O21  1  0.06427000  0.43004000  0.98796000  1.0 -0.5090586601
O  O22  1  0.43573000  0.93004000  0.51204000  1.0 -0.5090586601
O  O23  1  0.93573000  0.43004000  0.48796000  1.0 -0.5090586601
O  O24  1  0.56427000  0.93004000  0.01204000  1.0 -0.5090586601
O  O25  1  0.10700000  0.37742000  0.02997000  1.0 -0.5157925868
O  O26  1  0.39300000  0.87742000  0.47003000  1.0 -0.5157925868
O  O27  1  0.89300000  0.37742000  0.52997000  1.0 -0.5157925868
O  O28  1  0.60700000  0.87742000  0.97003000  1.0 -0.5157925868
O  O29  1  0.20981000  0.46604000  0.97451000  1.0 -0.5090586601
O  O30  1  0.29019000  0.96604000  0.52549000  1.0 -0.5090586601
O  O31  1  0.79019000  0.46604000  0.47451000  1.0 -0.5090586601
O  O32  1  0.70981000  0.96604000  0.02549000  1.0 -0.5090586601
O  O33  1  0.24741000  0.60033000  0.50223000  1.0 -0.4842358054
O  O34  1  0.25259000  0.10033000  0.99777000  1.0 -0.4842358054
O  O35  1  0.75259000  0.60033000  0.00223000  1.0 -0.4842358054
O  O36  1  0.74741000  0.10033000  0.49777000  1.0 -0.4842358054
O  O37  1  0.87864000  0.57751000  0.09855000  1.0 -0.4945123838
O  O38  1  0.62136000  0.07751000  0.40145000  1.0 -0.4945123838
O  O39  1  0.12136000  0.57751000  0.59855000  1.0 -0.4945123838
O  O40  1  0.37864000  0.07751000  0.90145000  1.0 -0.4945123838
O  O41  1  0.57889000  0.16759000  0.44418000  1.0 -0.5090586601
O  O42  1  0.92111000  0.66759000  0.05582000  1.0 -0.5090586601
O  O43  1  0.42111000  0.16759000  0.94418000  1.0 -0.5090586601
O  O44  1  0.07889000  0.66759000  0.55582000  1.0 -0.5090586601
O  O45  1  0.78147000  0.61293000  0.09679000  1.0 -0.5336270862
O  O46  1  0.71853000  0.11293000  0.40321000  1.0 -0.5336270862
O  O47  1  0.21853000  0.61293000  0.59679000  1.0 -0.5336270862
O  O48  1  0.28147000  0.11293000  0.90321000  1.0 -0.5336270862
O  O49  1  0.67672000  0.18669000  0.46674000  1.0 -0.4945123838
O  O50  1  0.82328000  0.68669000  0.03326000  1.0 -0.4945123838
O  O51  1  0.32328000  0.18669000  0.96674000  1.0 -0.4945123838
O  O52  1  0.17672000  0.68669000  0.53326000  1.0 -0.4945123838
O  O53  1  0.06427000  0.56996000  0.51204000  1.0 -0.5090586601
O  O54  1  0.43573000  0.06996000  0.98796000  1.0 -0.5090586601
O  O55  1  0.93573000  0.56996000  0.01204000  1.0 -0.5090586601
O  O56  1  0.56427000  0.06996000  0.48796000  1.0 -0.5090586601
O  O57  1  0.10700000  0.62258000  0.47003000  1.0 -0.5157925868
O  O58  1  0.39300000  0.12258000  0.02997000  1.0 -0.5157925868
O  O59  1  0.89300000  0.62258000  0.97003000  1.0 -0.5157925868
O  O60  1  0.60700000  0.12258000  0.52997000  1.0 -0.5157925868
O  O61  1  0.20981000  0.53396000  0.52549000  1.0 -0.5090586601
O  O62  1  0.29019000  0.03396000  0.97451000  1.0 -0.5090586601
O  O63  1  0.79019000  0.53396000  0.02549000  1.0 -0.5090586601
O  O64  1  0.70981000  0.03396000  0.47451000  1.0 -0.5090586601
