# DDEC6 charges by PACMAN v1.1 (https://github.com/mtap-research/PACMAN-charge/)
data_ja7b07921_si_002_2_ASR_pacman
_symmetry_space_group_name_H-M   'P 1'
_cell_length_a   29.94610000
_cell_length_b   29.94610000
_cell_length_c   29.94610000
_cell_angle_alpha   90.00000000
_cell_angle_beta   90.00000000
_cell_angle_gamma   90.00000000
_symmetry_Int_Tables_number   1
_chemical_formula_structural   Zn24H275.04C368.4N5.76O80.88
_chemical_formula_sum   'Zn24 H275.04 C368.4 N5.76 O80.88'
_cell_volume   26854.73131231
_cell_formula_units_Z   1
loop_
 _symmetry_equiv_pos_site_id
 _symmetry_equiv_pos_as_xyz
  1  'x, y, z'
loop_
 _atom_site_type_symbol
 _atom_site_label
 _atom_site_symmetry_multiplicity
 _atom_site_fract_x
 _atom_site_fract_y
 _atom_site_fract_z
 _atom_site_occupancy
 _atom_site_charge
Zn  Zn1  1  0.44674000  0.00000000  0.32253000  1.0 0.9439104607
Zn  Zn2  1  0.55326000  0.00000000  0.32253000  1.0 0.9439104607
Zn  Zn3  1  0.55326000  0.00000000  0.67747000  1.0 0.9480760108
Zn  Zn4  1  0.44674000  0.00000000  0.67747000  1.0 0.9439104607
Zn  Zn5  1  0.32253000  0.44674000  0.00000000  1.0 0.9439104607
Zn  Zn6  1  0.32253000  0.55326000  0.00000000  1.0 0.9439104607
Zn  Zn7  1  0.67747000  0.55326000  0.00000000  1.0 0.9480760108
Zn  Zn8  1  0.67747000  0.44674000  0.00000000  1.0 0.9439104607
Zn  Zn9  1  0.00000000  0.32253000  0.44674000  1.0 0.9439104607
Zn  Zn10  1  0.00000000  0.32253000  0.55326000  1.0 0.9439104607
Zn  Zn11  1  0.00000000  0.67747000  0.55326000  1.0 0.9480760108
Zn  Zn12  1  0.00000000  0.67747000  0.44674000  1.0 0.9439104607
Zn  Zn13  1  0.50000000  0.05318000  0.24830000  1.0 0.9480760108
Zn  Zn14  1  0.50000000  0.94682000  0.24830000  1.0 0.9480760108
Zn  Zn15  1  0.50000000  0.05318000  0.75170000  1.0 0.9480760108
Zn  Zn16  1  0.50000000  0.94682000  0.75170000  1.0 0.9480760108
Zn  Zn17  1  0.24830000  0.50000000  0.05318000  1.0 0.9480760108
Zn  Zn18  1  0.24830000  0.50000000  0.94682000  1.0 0.9480760108
Zn  Zn19  1  0.75170000  0.50000000  0.05318000  1.0 0.9480760108
Zn  Zn20  1  0.75170000  0.50000000  0.94682000  1.0 0.9480760108
Zn  Zn21  1  0.05318000  0.24830000  0.50000000  1.0 0.9480760108
Zn  Zn22  1  0.94682000  0.24830000  0.50000000  1.0 0.9480760108
Zn  Zn23  1  0.05318000  0.75170000  0.50000000  1.0 0.9480760108
Zn  Zn24  1  0.94682000  0.75170000  0.50000000  1.0 0.9480760108
H  H1  1  0.43360000  0.00000000  0.46130000  1.0 0.1198375693
H  H2  1  0.56640000  0.00000000  0.46130000  1.0 0.1198375693
H  H3  1  0.56640000  0.00000000  0.53870000  1.0 0.1198375693
H  H4  1  0.43360000  0.00000000  0.53870000  1.0 0.1198375693
H  H5  1  0.46130000  0.43360000  0.00000000  1.0 0.1198375693
H  H6  1  0.46130000  0.56640000  0.00000000  1.0 0.1198375693
H  H7  1  0.53870000  0.56640000  0.00000000  1.0 0.1198375693
H  H8  1  0.53870000  0.43360000  0.00000000  1.0 0.1198375693
H  H9  1  0.00000000  0.46130000  0.43360000  1.0 0.1198375693
H  H10  1  0.00000000  0.46130000  0.56640000  1.0 0.1198375693
H  H11  1  0.00000000  0.53870000  0.56640000  1.0 0.1198375693
H  H12  1  0.00000000  0.53870000  0.43360000  1.0 0.1198375693
H  H13  1  0.34620000  0.09590000  0.33880000  1.0 0.1198375693
H  H14  1  0.65380000  0.90410000  0.33880000  1.0 0.1198375693
H  H15  1  0.65380000  0.09590000  0.66120000  1.0 0.1198375693
H  H16  1  0.34620000  0.90410000  0.66120000  1.0 0.1198375693
H  H17  1  0.33880000  0.34620000  0.09590000  1.0 0.1198375693
H  H18  1  0.33880000  0.65380000  0.90410000  1.0 0.1198375693
H  H19  1  0.66120000  0.65380000  0.09590000  1.0 0.1198375693
H  H20  1  0.66120000  0.34620000  0.90410000  1.0 0.1198375693
H  H21  1  0.09590000  0.33880000  0.34620000  1.0 0.1198375693
H  H22  1  0.90410000  0.33880000  0.65380000  1.0 0.1198375693
H  H23  1  0.09590000  0.66120000  0.65380000  1.0 0.1198375693
H  H24  1  0.90410000  0.66120000  0.34620000  1.0 0.1198375693
H  H25  1  0.65380000  0.90410000  0.66120000  1.0 0.1198375693
H  H26  1  0.34620000  0.09590000  0.66120000  1.0 0.1198375693
H  H27  1  0.34620000  0.90410000  0.33880000  1.0 0.1198375693
H  H28  1  0.65380000  0.09590000  0.33880000  1.0 0.1198375693
H  H29  1  0.66120000  0.65380000  0.90410000  1.0 0.1198375693
H  H30  1  0.66120000  0.34620000  0.09590000  1.0 0.1198375693
H  H31  1  0.33880000  0.34620000  0.90410000  1.0 0.1198375693
H  H32  1  0.33880000  0.65380000  0.09590000  1.0 0.1198375693
H  H33  1  0.90410000  0.66120000  0.65380000  1.0 0.1198375693
H  H34  1  0.09590000  0.66120000  0.34620000  1.0 0.1198375693
H  H35  1  0.90410000  0.33880000  0.34620000  1.0 0.1198375693
H  H36  1  0.09590000  0.33880000  0.65380000  1.0 0.1198375693
H  H37  1  0.29140000  0.15010000  0.34010000  1.0 0.1198375693
H  H38  1  0.70860000  0.84990000  0.34010000  1.0 0.1198375693
H  H39  1  0.70860000  0.15010000  0.65990000  1.0 0.1198375693
H  H40  1  0.29140000  0.84990000  0.65990000  1.0 0.1198375693
H  H41  1  0.34010000  0.29140000  0.15010000  1.0 0.1198375693
H  H42  1  0.34010000  0.70860000  0.84990000  1.0 0.1198375693
H  H43  1  0.65990000  0.70860000  0.15010000  1.0 0.1198375693
H  H44  1  0.65990000  0.29140000  0.84990000  1.0 0.1198375693
H  H45  1  0.15010000  0.34010000  0.29140000  1.0 0.1198375693
H  H46  1  0.84990000  0.34010000  0.70860000  1.0 0.1198375693
H  H47  1  0.15010000  0.65990000  0.70860000  1.0 0.1198375693
H  H48  1  0.84990000  0.65990000  0.29140000  1.0 0.1198375693
H  H49  1  0.70860000  0.84990000  0.65990000  1.0 0.1198375693
H  H50  1  0.29140000  0.15010000  0.65990000  1.0 0.1198375693
H  H51  1  0.29140000  0.84990000  0.34010000  1.0 0.1198375693
H  H52  1  0.70860000  0.15010000  0.34010000  1.0 0.1198375693
H  H53  1  0.65990000  0.70860000  0.84990000  1.0 0.1198375693
H  H54  1  0.65990000  0.29140000  0.15010000  1.0 0.1198375693
H  H55  1  0.34010000  0.29140000  0.84990000  1.0 0.1198375693
H  H56  1  0.34010000  0.70860000  0.15010000  1.0 0.1198375693
H  H57  1  0.84990000  0.65990000  0.70860000  1.0 0.1198375693
H  H58  1  0.15010000  0.65990000  0.29140000  1.0 0.1198375693
H  H59  1  0.84990000  0.34010000  0.29140000  1.0 0.1198375693
H  H60  1  0.15010000  0.34010000  0.70860000  1.0 0.1198375693
H  H61  1  0.40210000  0.15330000  0.23170000  1.0 0.1282039324
H  H62  1  0.59790000  0.84670000  0.23170000  1.0 0.1282039324
H  H63  1  0.59790000  0.15330000  0.76830000  1.0 0.1282039324
H  H64  1  0.40210000  0.84670000  0.76830000  1.0 0.1282039324
H  H65  1  0.23170000  0.40210000  0.15330000  1.0 0.1282039324
H  H66  1  0.23170000  0.59790000  0.84670000  1.0 0.1282039324
H  H67  1  0.76830000  0.59790000  0.15330000  1.0 0.1282039324
H  H68  1  0.76830000  0.40210000  0.84670000  1.0 0.1282039324
H  H69  1  0.15330000  0.23170000  0.40210000  1.0 0.1282039324
H  H70  1  0.84670000  0.23170000  0.59790000  1.0 0.1282039324
H  H71  1  0.15330000  0.76830000  0.59790000  1.0 0.1282039324
H  H72  1  0.84670000  0.76830000  0.40210000  1.0 0.1282039324
H  H73  1  0.59790000  0.84670000  0.76830000  1.0 0.1282039324
H  H74  1  0.40210000  0.15330000  0.76830000  1.0 0.1282039324
H  H75  1  0.40210000  0.84670000  0.23170000  1.0 0.1282039324
H  H76  1  0.59790000  0.15330000  0.23170000  1.0 0.1282039324
H  H77  1  0.76830000  0.59790000  0.84670000  1.0 0.1282039324
H  H78  1  0.76830000  0.40210000  0.15330000  1.0 0.1282039324
H  H79  1  0.23170000  0.40210000  0.84670000  1.0 0.1282039324
H  H80  1  0.23170000  0.59790000  0.15330000  1.0 0.1282039324
H  H81  1  0.84670000  0.76830000  0.59790000  1.0 0.1282039324
H  H82  1  0.15330000  0.76830000  0.40210000  1.0 0.1282039324
H  H83  1  0.84670000  0.23170000  0.40210000  1.0 0.1282039324
H  H84  1  0.15330000  0.23170000  0.59790000  1.0 0.1282039324
H  H85  1  0.32600000  0.22500000  0.15310000  1.0 0.1282039324
H  H86  1  0.67400000  0.77500000  0.15310000  1.0 0.1282039324
H  H87  1  0.67400000  0.22500000  0.84690000  1.0 0.1282039324
H  H88  1  0.32600000  0.77500000  0.84690000  1.0 0.1282039324
H  H89  1  0.15310000  0.32600000  0.22500000  1.0 0.1282039324
H  H90  1  0.15310000  0.67400000  0.77500000  1.0 0.1282039324
H  H91  1  0.84690000  0.67400000  0.22500000  1.0 0.1282039324
H  H92  1  0.84690000  0.32600000  0.77500000  1.0 0.1282039324
H  H93  1  0.22500000  0.15310000  0.32600000  1.0 0.1282039324
H  H94  1  0.77500000  0.15310000  0.67400000  1.0 0.1282039324
H  H95  1  0.22500000  0.84690000  0.67400000  1.0 0.1282039324
H  H96  1  0.77500000  0.84690000  0.32600000  1.0 0.1282039324
H  H97  1  0.67400000  0.77500000  0.84690000  1.0 0.1282039324
H  H98  1  0.32600000  0.22500000  0.84690000  1.0 0.1282039324
H  H99  1  0.32600000  0.77500000  0.15310000  1.0 0.1282039324
H  H100  1  0.67400000  0.22500000  0.15310000  1.0 0.1282039324
H  H101  1  0.84690000  0.67400000  0.77500000  1.0 0.1282039324
H  H102  1  0.84690000  0.32600000  0.22500000  1.0 0.1282039324
H  H103  1  0.15310000  0.32600000  0.77500000  1.0 0.1282039324
H  H104  1  0.15310000  0.67400000  0.22500000  1.0 0.1282039324
H  H105  1  0.77500000  0.84690000  0.67400000  1.0 0.1282039324
H  H106  1  0.22500000  0.84690000  0.32600000  1.0 0.1282039324
H  H107  1  0.77500000  0.15310000  0.32600000  1.0 0.1282039324
H  H108  1  0.22500000  0.15310000  0.67400000  1.0 0.1282039324
H  H109  1  0.30850000  0.18090000  0.17530000  1.0 0.1282039324
H  H110  1  0.69150000  0.81910000  0.17530000  1.0 0.1282039324
H  H111  1  0.69150000  0.18090000  0.82470000  1.0 0.1282039324
H  H112  1  0.30850000  0.81910000  0.82470000  1.0 0.1390539777
H  H113  1  0.17530000  0.30850000  0.18090000  1.0 0.1282039324
H  H114  1  0.17530000  0.69150000  0.81910000  1.0 0.1282039324
H  H115  1  0.82470000  0.69150000  0.18090000  1.0 0.1282039324
H  H116  1  0.82470000  0.30850000  0.81910000  1.0 0.1390539777
H  H117  1  0.18090000  0.17530000  0.30850000  1.0 0.1282039324
H  H118  1  0.81910000  0.17530000  0.69150000  1.0 0.1282039324
H  H119  1  0.18090000  0.82470000  0.69150000  1.0 0.1282039324
H  H120  1  0.81910000  0.82470000  0.30850000  1.0 0.1390539777
H  H121  1  0.69150000  0.81910000  0.82470000  1.0 0.1282039324
H  H122  1  0.30850000  0.18090000  0.82470000  1.0 0.1390539777
H  H123  1  0.30850000  0.81910000  0.17530000  1.0 0.1390539777
H  H124  1  0.69150000  0.18090000  0.17530000  1.0 0.1282039324
H  H125  1  0.82470000  0.69150000  0.81910000  1.0 0.1282039324
H  H126  1  0.82470000  0.30850000  0.18090000  1.0 0.1282039324
H  H127  1  0.17530000  0.30850000  0.81910000  1.0 0.1390539777
H  H128  1  0.17530000  0.69150000  0.18090000  1.0 0.1282039324
H  H129  1  0.81910000  0.82470000  0.69150000  1.0 0.1282039324
H  H130  1  0.18090000  0.82470000  0.30850000  1.0 0.1282039324
H  H131  1  0.81910000  0.17530000  0.30850000  1.0 0.1390539777
H  H132  1  0.18090000  0.17530000  0.69150000  1.0 0.1282039324
H  H133  1  0.35940000  0.18640000  0.16440000  1.0 0.1198375693
H  H134  1  0.64060000  0.81360000  0.16440000  1.0 0.1198375693
H  H135  1  0.64060000  0.18640000  0.83560000  1.0 0.1198375693
H  H136  1  0.35940000  0.81360000  0.83560000  1.0 0.1198375693
H  H137  1  0.16440000  0.35940000  0.18640000  1.0 0.1198375693
H  H138  1  0.16440000  0.64060000  0.81360000  1.0 0.1198375693
H  H139  1  0.83560000  0.64060000  0.18640000  1.0 0.1198375693
H  H140  1  0.83560000  0.35940000  0.81360000  1.0 0.1198375693
H  H141  1  0.18640000  0.16440000  0.35940000  1.0 0.1198375693
H  H142  1  0.81360000  0.16440000  0.64060000  1.0 0.1198375693
H  H143  1  0.18640000  0.83560000  0.64060000  1.0 0.1198375693
H  H144  1  0.81360000  0.83560000  0.35940000  1.0 0.1198375693
H  H145  1  0.64060000  0.81360000  0.83560000  1.0 0.1198375693
H  H146  1  0.35940000  0.18640000  0.83560000  1.0 0.1198375693
H  H147  1  0.35940000  0.81360000  0.16440000  1.0 0.1198375693
H  H148  1  0.64060000  0.18640000  0.16440000  1.0 0.1198375693
H  H149  1  0.83560000  0.64060000  0.81360000  1.0 0.1198375693
H  H150  1  0.83560000  0.35940000  0.18640000  1.0 0.1198375693
H  H151  1  0.16440000  0.35940000  0.81360000  1.0 0.1198375693
H  H152  1  0.16440000  0.64060000  0.18640000  1.0 0.1198375693
H  H153  1  0.81360000  0.83560000  0.64060000  1.0 0.1198375693
H  H154  1  0.18640000  0.83560000  0.35940000  1.0 0.1198375693
H  H155  1  0.81360000  0.16440000  0.35940000  1.0 0.1198375693
H  H156  1  0.18640000  0.16440000  0.64060000  1.0 0.1198375693
H  H157  1  0.37660000  0.27940000  0.20690000  1.0 0.1198375693
H  H158  1  0.62340000  0.72060000  0.20690000  1.0 0.1198375693
H  H159  1  0.62340000  0.27940000  0.79310000  1.0 0.1198375693
H  H160  1  0.37660000  0.72060000  0.79310000  1.0 0.1198375693
H  H161  1  0.20690000  0.37660000  0.27940000  1.0 0.1198375693
H  H162  1  0.20690000  0.62340000  0.72060000  1.0 0.1198375693
H  H163  1  0.79310000  0.62340000  0.27940000  1.0 0.1198375693
H  H164  1  0.79310000  0.37660000  0.72060000  1.0 0.1198375693
H  H165  1  0.27940000  0.20690000  0.37660000  1.0 0.1198375693
H  H166  1  0.72060000  0.20690000  0.62340000  1.0 0.1198375693
H  H167  1  0.27940000  0.79310000  0.62340000  1.0 0.1198375693
H  H168  1  0.72060000  0.79310000  0.37660000  1.0 0.1198375693
H  H169  1  0.62340000  0.72060000  0.79310000  1.0 0.1198375693
H  H170  1  0.37660000  0.27940000  0.79310000  1.0 0.1198375693
H  H171  1  0.37660000  0.72060000  0.20690000  1.0 0.1198375693
H  H172  1  0.62340000  0.27940000  0.20690000  1.0 0.1198375693
H  H173  1  0.79310000  0.62340000  0.72060000  1.0 0.1198375693
H  H174  1  0.79310000  0.37660000  0.27940000  1.0 0.1198375693
H  H175  1  0.20690000  0.37660000  0.72060000  1.0 0.1198375693
H  H176  1  0.20690000  0.62340000  0.27940000  1.0 0.1198375693
H  H177  1  0.72060000  0.79310000  0.62340000  1.0 0.1198375693
H  H178  1  0.27940000  0.79310000  0.37660000  1.0 0.1198375693
H  H179  1  0.72060000  0.20690000  0.37660000  1.0 0.1198375693
H  H180  1  0.27940000  0.20690000  0.62340000  1.0 0.1198375693
H  H181  1  0.40730000  0.23720000  0.21080000  1.0 0.1198375693
H  H182  1  0.59270000  0.76280000  0.21080000  1.0 0.1198375693
H  H183  1  0.59270000  0.23720000  0.78920000  1.0 0.1198375693
H  H184  1  0.40730000  0.76280000  0.78920000  1.0 0.1198375693
H  H185  1  0.21080000  0.40730000  0.23720000  1.0 0.1198375693
H  H186  1  0.21080000  0.59270000  0.76280000  1.0 0.1198375693
H  H187  1  0.78920000  0.59270000  0.23720000  1.0 0.1198375693
H  H188  1  0.78920000  0.40730000  0.76280000  1.0 0.1198375693
H  H189  1  0.23720000  0.21080000  0.40730000  1.0 0.1198375693
H  H190  1  0.76280000  0.21080000  0.59270000  1.0 0.1198375693
H  H191  1  0.23720000  0.78920000  0.59270000  1.0 0.1198375693
H  H192  1  0.76280000  0.78920000  0.40730000  1.0 0.1198375693
H  H193  1  0.59270000  0.76280000  0.78920000  1.0 0.1198375693
H  H194  1  0.40730000  0.23720000  0.78920000  1.0 0.1198375693
H  H195  1  0.40730000  0.76280000  0.21080000  1.0 0.1198375693
H  H196  1  0.59270000  0.23720000  0.21080000  1.0 0.1198375693
H  H197  1  0.78920000  0.59270000  0.76280000  1.0 0.1198375693
H  H198  1  0.78920000  0.40730000  0.23720000  1.0 0.1198375693
H  H199  1  0.21080000  0.40730000  0.76280000  1.0 0.1198375693
H  H200  1  0.21080000  0.59270000  0.23720000  1.0 0.1198375693
H  H201  1  0.76280000  0.78920000  0.59270000  1.0 0.1198375693
H  H202  1  0.23720000  0.78920000  0.40730000  1.0 0.1198375693
H  H203  1  0.76280000  0.21080000  0.40730000  1.0 0.1198375693
H  H204  1  0.23720000  0.21080000  0.59270000  1.0 0.1198375693
H  H205  1  0.38800000  0.25950000  0.25400000  1.0 0.1282039324
H  H206  1  0.61200000  0.74050000  0.25400000  1.0 0.1282039324
H  H207  1  0.61200000  0.25950000  0.74600000  1.0 0.1282039324
H  H208  1  0.38800000  0.74050000  0.74600000  1.0 0.1282039324
H  H209  1  0.25400000  0.38800000  0.25950000  1.0 0.1282039324
H  H210  1  0.25400000  0.61200000  0.74050000  1.0 0.1282039324
H  H211  1  0.74600000  0.61200000  0.25950000  1.0 0.1282039324
H  H212  1  0.74600000  0.38800000  0.74050000  1.0 0.1282039324
H  H213  1  0.25950000  0.25400000  0.38800000  1.0 0.1282039324
H  H214  1  0.74050000  0.25400000  0.61200000  1.0 0.1282039324
H  H215  1  0.25950000  0.74600000  0.61200000  1.0 0.1282039324
H  H216  1  0.74050000  0.74600000  0.38800000  1.0 0.1282039324
H  H217  1  0.61200000  0.74050000  0.74600000  1.0 0.1282039324
H  H218  1  0.38800000  0.25950000  0.74600000  1.0 0.1282039324
H  H219  1  0.38800000  0.74050000  0.25400000  1.0 0.1282039324
H  H220  1  0.61200000  0.25950000  0.25400000  1.0 0.1282039324
H  H221  1  0.74600000  0.61200000  0.74050000  1.0 0.1282039324
H  H222  1  0.74600000  0.38800000  0.25950000  1.0 0.1282039324
H  H223  1  0.25400000  0.38800000  0.74050000  1.0 0.1282039324
H  H224  1  0.25400000  0.61200000  0.25950000  1.0 0.1282039324
H  H225  1  0.74050000  0.74600000  0.61200000  1.0 0.1282039324
H  H226  1  0.25950000  0.74600000  0.38800000  1.0 0.1282039324
H  H227  1  0.74050000  0.25400000  0.38800000  1.0 0.1282039324
H  H228  1  0.25950000  0.25400000  0.61200000  1.0 0.1282039324
H  H229  1  0.46600000  0.08540000  0.00450000  0.12 0.1498608569
H  H230  1  0.53400000  0.91460000  0.00450000  0.12 0.1498608569
H  H231  1  0.53400000  0.08540000  0.99550000  0.12 0.1498608569
H  H232  1  0.46600000  0.91460000  0.99550000  0.12 0.1498608569
H  H233  1  0.00450000  0.46600000  0.08540000  0.12 0.1498608569
H  H234  1  0.00450000  0.53400000  0.91460000  0.12 0.1498608569
H  H235  1  0.99550000  0.53400000  0.08540000  0.12 0.1498608569
H  H236  1  0.99550000  0.46600000  0.91460000  0.12 0.1498608569
H  H237  1  0.08540000  0.00450000  0.46600000  0.12 0.1498608569
H  H238  1  0.91460000  0.00450000  0.53400000  0.12 0.1498608569
H  H239  1  0.08540000  0.99550000  0.53400000  0.12 0.1498608569
H  H240  1  0.91460000  0.99550000  0.46600000  0.12 0.1498608569
H  H241  1  0.53400000  0.91460000  0.99550000  0.12 0.1498608569
H  H242  1  0.46600000  0.08540000  0.99550000  0.12 0.1498608569
H  H243  1  0.46600000  0.91460000  0.00450000  0.12 0.1498608569
H  H244  1  0.53400000  0.08540000  0.00450000  0.12 0.1498608569
H  H245  1  0.99550000  0.53400000  0.91460000  0.12 0.1498608569
H  H246  1  0.99550000  0.46600000  0.08540000  0.12 0.1498608569
H  H247  1  0.00450000  0.46600000  0.91460000  0.12 0.1498608569
H  H248  1  0.00450000  0.53400000  0.08540000  0.12 0.1498608569
H  H249  1  0.91460000  0.99550000  0.53400000  0.12 0.1498608569
H  H250  1  0.08540000  0.99550000  0.46600000  0.12 0.1498608569
H  H251  1  0.91460000  0.00450000  0.46600000  0.12 0.1498608569
H  H252  1  0.08540000  0.00450000  0.53400000  0.12 0.1498608569
H  H253  1  0.44460000  0.18280000  0.98310000  0.12 0.1198375693
H  H254  1  0.55540000  0.81720000  0.98310000  0.12 0.1198375693
H  H255  1  0.55540000  0.18280000  0.01690000  0.12 0.1198375693
H  H256  1  0.44460000  0.81720000  0.01690000  0.12 0.1198375693
H  H257  1  0.98310000  0.44460000  0.18280000  0.12 0.1198375693
H  H258  1  0.98310000  0.55540000  0.81720000  0.12 0.1198375693
H  H259  1  0.01690000  0.55540000  0.18280000  0.12 0.1198375693
H  H260  1  0.01690000  0.44460000  0.81720000  0.12 0.1198375693
H  H261  1  0.18280000  0.98310000  0.44460000  0.12 0.1198375693
H  H262  1  0.81720000  0.98310000  0.55540000  0.12 0.1198375693
H  H263  1  0.18280000  0.01690000  0.55540000  0.12 0.1198375693
H  H264  1  0.81720000  0.01690000  0.44460000  0.12 0.1198375693
H  H265  1  0.55540000  0.81720000  0.01690000  0.12 0.1198375693
H  H266  1  0.44460000  0.18280000  0.01690000  0.12 0.1198375693
H  H267  1  0.44460000  0.81720000  0.98310000  0.12 0.1198375693
H  H268  1  0.55540000  0.18280000  0.98310000  0.12 0.1198375693
H  H269  1  0.01690000  0.55540000  0.81720000  0.12 0.1198375693
H  H270  1  0.01690000  0.44460000  0.18280000  0.12 0.1198375693
H  H271  1  0.98310000  0.44460000  0.81720000  0.12 0.1198375693
H  H272  1  0.98310000  0.55540000  0.18280000  0.12 0.1198375693
H  H273  1  0.81720000  0.01690000  0.55540000  0.12 0.1198375693
H  H274  1  0.18280000  0.01690000  0.44460000  0.12 0.1198375693
H  H275  1  0.81720000  0.98310000  0.44460000  0.12 0.1198375693
H  H276  1  0.18280000  0.98310000  0.55540000  0.12 0.1198375693
H  H277  1  0.39490000  0.16530000  0.02720000  0.12 0.0696316261
H  H278  1  0.60510000  0.83470000  0.02720000  0.12 0.0696316261
H  H279  1  0.60510000  0.16530000  0.97280000  0.12 0.0696316261
H  H280  1  0.39490000  0.83470000  0.97280000  0.12 0.0696316261
H  H281  1  0.02720000  0.39490000  0.16530000  0.12 0.0696316261
H  H282  1  0.02720000  0.60510000  0.83470000  0.12 0.0696316261
H  H283  1  0.97280000  0.60510000  0.16530000  0.12 0.0696316261
H  H284  1  0.97280000  0.39490000  0.83470000  0.12 0.0696316261
H  H285  1  0.16530000  0.02720000  0.39490000  0.12 0.0696316261
H  H286  1  0.83470000  0.02720000  0.60510000  0.12 0.0696316261
H  H287  1  0.16530000  0.97280000  0.60510000  0.12 0.0696316261
H  H288  1  0.83470000  0.97280000  0.39490000  0.12 0.0696316261
H  H289  1  0.60510000  0.83470000  0.97280000  0.12 0.0696316261
H  H290  1  0.39490000  0.16530000  0.97280000  0.12 0.0696316261
H  H291  1  0.39490000  0.83470000  0.02720000  0.12 0.0696316261
H  H292  1  0.60510000  0.16530000  0.02720000  0.12 0.0696316261
H  H293  1  0.97280000  0.60510000  0.83470000  0.12 0.0696316261
H  H294  1  0.97280000  0.39490000  0.16530000  0.12 0.0696316261
H  H295  1  0.02720000  0.39490000  0.83470000  0.12 0.0696316261
H  H296  1  0.02720000  0.60510000  0.16530000  0.12 0.0696316261
H  H297  1  0.83470000  0.97280000  0.60510000  0.12 0.0696316261
H  H298  1  0.16530000  0.97280000  0.39490000  0.12 0.0696316261
H  H299  1  0.83470000  0.02720000  0.39490000  0.12 0.0696316261
H  H300  1  0.16530000  0.02720000  0.60510000  0.12 0.0696316261
H  H301  1  0.37940000  0.08670000  0.97220000  0.12 0.1073366149
H  H302  1  0.62060000  0.91330000  0.97220000  0.12 0.1073366149
H  H303  1  0.62060000  0.08670000  0.02780000  0.12 0.1073366149
H  H304  1  0.37940000  0.91330000  0.02780000  0.12 0.1073366149
H  H305  1  0.97220000  0.37940000  0.08670000  0.12 0.1073366149
H  H306  1  0.97220000  0.62060000  0.91330000  0.12 0.1073366149
H  H307  1  0.02780000  0.62060000  0.08670000  0.12 0.1073366149
H  H308  1  0.02780000  0.37940000  0.91330000  0.12 0.1073366149
H  H309  1  0.08670000  0.97220000  0.37940000  0.12 0.1073366149
H  H310  1  0.91330000  0.97220000  0.62060000  0.12 0.1073366149
H  H311  1  0.08670000  0.02780000  0.62060000  0.12 0.1073366149
H  H312  1  0.91330000  0.02780000  0.37940000  0.12 0.1073366149
H  H313  1  0.62060000  0.91330000  0.02780000  0.12 0.1073366149
H  H314  1  0.37940000  0.08670000  0.02780000  0.12 0.1073366149
H  H315  1  0.37940000  0.91330000  0.97220000  0.12 0.1073366149
H  H316  1  0.62060000  0.08670000  0.97220000  0.12 0.1073366149
H  H317  1  0.02780000  0.62060000  0.91330000  0.12 0.1073366149
H  H318  1  0.02780000  0.37940000  0.08670000  0.12 0.1073366149
H  H319  1  0.97220000  0.37940000  0.91330000  0.12 0.1073366149
H  H320  1  0.97220000  0.62060000  0.08670000  0.12 0.1073366149
H  H321  1  0.91330000  0.02780000  0.62060000  0.12 0.1073366149
H  H322  1  0.08670000  0.02780000  0.37940000  0.12 0.1073366149
H  H323  1  0.91330000  0.97220000  0.37940000  0.12 0.1073366149
H  H324  1  0.08670000  0.97220000  0.62060000  0.12 0.1073366149
H  H325  1  0.34200000  0.11880000  0.99580000  0.12 0.1073366149
H  H326  1  0.65800000  0.88120000  0.99580000  0.12 0.1073366149
H  H327  1  0.65800000  0.11880000  0.00420000  0.12 0.1073366149
H  H328  1  0.34200000  0.88120000  0.00420000  0.12 0.1073366149
H  H329  1  0.99580000  0.34200000  0.11880000  0.12 0.1073366149
H  H330  1  0.99580000  0.65800000  0.88120000  0.12 0.1073366149
H  H331  1  0.00420000  0.65800000  0.11880000  0.12 0.1073366149
H  H332  1  0.00420000  0.34200000  0.88120000  0.12 0.1073366149
H  H333  1  0.11880000  0.99580000  0.34200000  0.12 0.1073366149
H  H334  1  0.88120000  0.99580000  0.65800000  0.12 0.1073366149
H  H335  1  0.11880000  0.00420000  0.65800000  0.12 0.1073366149
H  H336  1  0.88120000  0.00420000  0.34200000  0.12 0.1073366149
H  H337  1  0.65800000  0.88120000  0.00420000  0.12 0.1073366149
H  H338  1  0.34200000  0.11880000  0.00420000  0.12 0.1073366149
H  H339  1  0.34200000  0.88120000  0.99580000  0.12 0.1073366149
H  H340  1  0.65800000  0.11880000  0.99580000  0.12 0.1073366149
H  H341  1  0.00420000  0.65800000  0.88120000  0.12 0.1073366149
H  H342  1  0.00420000  0.34200000  0.11880000  0.12 0.1073366149
H  H343  1  0.99580000  0.34200000  0.88120000  0.12 0.1073366149
H  H344  1  0.99580000  0.65800000  0.11880000  0.12 0.1073366149
H  H345  1  0.88120000  0.00420000  0.65800000  0.12 0.1073366149
H  H346  1  0.11880000  0.00420000  0.34200000  0.12 0.1073366149
H  H347  1  0.88120000  0.99580000  0.34200000  0.12 0.1073366149
H  H348  1  0.11880000  0.99580000  0.65800000  0.12 0.1073366149
H  H349  1  0.35950000  0.13150000  0.91170000  0.12 0.1390539777
H  H350  1  0.64050000  0.86850000  0.91170000  0.12 0.1390539777
H  H351  1  0.64050000  0.13150000  0.08830000  0.12 0.1390539777
H  H352  1  0.35950000  0.86850000  0.08830000  0.12 0.1390539777
H  H353  1  0.91170000  0.35950000  0.13150000  0.12 0.1390539777
H  H354  1  0.91170000  0.64050000  0.86850000  0.12 0.1390539777
H  H355  1  0.08830000  0.64050000  0.13150000  0.12 0.1390539777
H  H356  1  0.08830000  0.35950000  0.86850000  0.12 0.1390539777
H  H357  1  0.13150000  0.91170000  0.35950000  0.12 0.1390539777
H  H358  1  0.86850000  0.91170000  0.64050000  0.12 0.1390539777
H  H359  1  0.13150000  0.08830000  0.64050000  0.12 0.1390539777
H  H360  1  0.86850000  0.08830000  0.35950000  0.12 0.1390539777
H  H361  1  0.64050000  0.86850000  0.08830000  0.12 0.1390539777
H  H362  1  0.35950000  0.13150000  0.08830000  0.12 0.1390539777
H  H363  1  0.35950000  0.86850000  0.91170000  0.12 0.1390539777
H  H364  1  0.64050000  0.13150000  0.91170000  0.12 0.1390539777
H  H365  1  0.08830000  0.64050000  0.86850000  0.12 0.1390539777
H  H366  1  0.08830000  0.35950000  0.13150000  0.12 0.1390539777
H  H367  1  0.91170000  0.35950000  0.86850000  0.12 0.1390539777
H  H368  1  0.91170000  0.64050000  0.13150000  0.12 0.1390539777
H  H369  1  0.86850000  0.08830000  0.64050000  0.12 0.1390539777
H  H370  1  0.13150000  0.08830000  0.35950000  0.12 0.1390539777
H  H371  1  0.86850000  0.91170000  0.35950000  0.12 0.1390539777
H  H372  1  0.13150000  0.91170000  0.64050000  0.12 0.1390539777
H  H373  1  0.35860000  0.17560000  0.94310000  0.12 0.0696316261
H  H374  1  0.64140000  0.82440000  0.94310000  0.12 0.0696316261
H  H375  1  0.64140000  0.17560000  0.05690000  0.12 0.0696316261
H  H376  1  0.35860000  0.82440000  0.05690000  0.12 0.0696316261
H  H377  1  0.94310000  0.35860000  0.17560000  0.12 0.0696316261
H  H378  1  0.94310000  0.64140000  0.82440000  0.12 0.0696316261
H  H379  1  0.05690000  0.64140000  0.17560000  0.12 0.0696316261
H  H380  1  0.05690000  0.35860000  0.82440000  0.12 0.0696316261
H  H381  1  0.17560000  0.94310000  0.35860000  0.12 0.0696316261
H  H382  1  0.82440000  0.94310000  0.64140000  0.12 0.0696316261
H  H383  1  0.17560000  0.05690000  0.64140000  0.12 0.0696316261
H  H384  1  0.82440000  0.05690000  0.35860000  0.12 0.0696316261
H  H385  1  0.64140000  0.82440000  0.05690000  0.12 0.0696316261
H  H386  1  0.35860000  0.17560000  0.05690000  0.12 0.0696316261
H  H387  1  0.35860000  0.82440000  0.94310000  0.12 0.0696316261
H  H388  1  0.64140000  0.17560000  0.94310000  0.12 0.0696316261
H  H389  1  0.05690000  0.64140000  0.82440000  0.12 0.0696316261
H  H390  1  0.05690000  0.35860000  0.17560000  0.12 0.0696316261
H  H391  1  0.94310000  0.35860000  0.82440000  0.12 0.0696316261
H  H392  1  0.94310000  0.64140000  0.17560000  0.12 0.0696316261
H  H393  1  0.82440000  0.05690000  0.64140000  0.12 0.0696316261
H  H394  1  0.17560000  0.05690000  0.35860000  0.12 0.0696316261
H  H395  1  0.82440000  0.94310000  0.35860000  0.12 0.0696316261
H  H396  1  0.17560000  0.94310000  0.64140000  0.12 0.0696316261
H  H397  1  0.43710000  0.12890000  0.91610000  0.12 0.1390539777
H  H398  1  0.56290000  0.87110000  0.91610000  0.12 0.1390539777
H  H399  1  0.56290000  0.12890000  0.08390000  0.12 0.1390539777
H  H400  1  0.43710000  0.87110000  0.08390000  0.12 0.1390539777
H  H401  1  0.91610000  0.43710000  0.12890000  0.12 0.1390539777
H  H402  1  0.91610000  0.56290000  0.87110000  0.12 0.1390539777
H  H403  1  0.08390000  0.56290000  0.12890000  0.12 0.1390539777
H  H404  1  0.08390000  0.43710000  0.87110000  0.12 0.1390539777
H  H405  1  0.12890000  0.91610000  0.43710000  0.12 0.1390539777
H  H406  1  0.87110000  0.91610000  0.56290000  0.12 0.1390539777
H  H407  1  0.12890000  0.08390000  0.56290000  0.12 0.1390539777
H  H408  1  0.87110000  0.08390000  0.43710000  0.12 0.1390539777
H  H409  1  0.56290000  0.87110000  0.08390000  0.12 0.1390539777
H  H410  1  0.43710000  0.12890000  0.08390000  0.12 0.1390539777
H  H411  1  0.43710000  0.87110000  0.91610000  0.12 0.1390539777
H  H412  1  0.56290000  0.12890000  0.91610000  0.12 0.1390539777
H  H413  1  0.08390000  0.56290000  0.87110000  0.12 0.1390539777
H  H414  1  0.08390000  0.43710000  0.12890000  0.12 0.1390539777
H  H415  1  0.91610000  0.43710000  0.87110000  0.12 0.1390539777
H  H416  1  0.91610000  0.56290000  0.12890000  0.12 0.1390539777
H  H417  1  0.87110000  0.08390000  0.56290000  0.12 0.1390539777
H  H418  1  0.12890000  0.08390000  0.43710000  0.12 0.1390539777
H  H419  1  0.87110000  0.91610000  0.43710000  0.12 0.1390539777
H  H420  1  0.12890000  0.91610000  0.56290000  0.12 0.1390539777
H  H421  1  0.43030000  0.18330000  0.91490000  0.12 0.0266321687
H  H422  1  0.56970000  0.81670000  0.91490000  0.12 0.0266321687
H  H423  1  0.56970000  0.18330000  0.08510000  0.12 0.0266321687
H  H424  1  0.43030000  0.81670000  0.08510000  0.12 0.0266321687
H  H425  1  0.91490000  0.43030000  0.18330000  0.12 0.0266321687
H  H426  1  0.91490000  0.56970000  0.81670000  0.12 0.0266321687
H  H427  1  0.08510000  0.56970000  0.18330000  0.12 0.0266321687
H  H428  1  0.08510000  0.43030000  0.81670000  0.12 0.0266321687
H  H429  1  0.18330000  0.91490000  0.43030000  0.12 0.0266321687
H  H430  1  0.81670000  0.91490000  0.56970000  0.12 0.0266321687
H  H431  1  0.18330000  0.08510000  0.56970000  0.12 0.0266321687
H  H432  1  0.81670000  0.08510000  0.43030000  0.12 0.0266321687
H  H433  1  0.56970000  0.81670000  0.08510000  0.12 0.0266321687
H  H434  1  0.43030000  0.18330000  0.08510000  0.12 0.0266321687
H  H435  1  0.43030000  0.81670000  0.91490000  0.12 0.0266321687
H  H436  1  0.56970000  0.18330000  0.91490000  0.12 0.0266321687
H  H437  1  0.08510000  0.56970000  0.81670000  0.12 0.0266321687
H  H438  1  0.08510000  0.43030000  0.18330000  0.12 0.0266321687
H  H439  1  0.91490000  0.43030000  0.81670000  0.12 0.0266321687
H  H440  1  0.91490000  0.56970000  0.18330000  0.12 0.0266321687
H  H441  1  0.81670000  0.08510000  0.56970000  0.12 0.0266321687
H  H442  1  0.18330000  0.08510000  0.43030000  0.12 0.0266321687
H  H443  1  0.81670000  0.91490000  0.43030000  0.12 0.0266321687
H  H444  1  0.18330000  0.91490000  0.56970000  0.12 0.0266321687
H  H445  1  0.47150000  0.05980000  0.03314000  0.38 0.1073366149
H  H446  1  0.52850000  0.94020000  0.03314000  0.38 0.1073366149
H  H447  1  0.52850000  0.05980000  0.96686000  0.38 0.1073366149
H  H448  1  0.47150000  0.94020000  0.96686000  0.38 0.1073366149
H  H449  1  0.03314000  0.47150000  0.05980000  0.38 0.1073366149
H  H450  1  0.03314000  0.52850000  0.94020000  0.38 0.1073366149
H  H451  1  0.96686000  0.52850000  0.05980000  0.38 0.1073366149
H  H452  1  0.96686000  0.47150000  0.94020000  0.38 0.1073366149
H  H453  1  0.05980000  0.03314000  0.47150000  0.38 0.1073366149
H  H454  1  0.94020000  0.03314000  0.52850000  0.38 0.1073366149
H  H455  1  0.05980000  0.96686000  0.52850000  0.38 0.1073366149
H  H456  1  0.94020000  0.96686000  0.47150000  0.38 0.1073366149
H  H457  1  0.52850000  0.94020000  0.96686000  0.38 0.1073366149
H  H458  1  0.47150000  0.05980000  0.96686000  0.38 0.1073366149
H  H459  1  0.47150000  0.94020000  0.03314000  0.38 0.1073366149
H  H460  1  0.52850000  0.05980000  0.03314000  0.38 0.1073366149
H  H461  1  0.96686000  0.52850000  0.94020000  0.38 0.1073366149
H  H462  1  0.96686000  0.47150000  0.05980000  0.38 0.1073366149
H  H463  1  0.03314000  0.47150000  0.94020000  0.38 0.1073366149
H  H464  1  0.03314000  0.52850000  0.05980000  0.38 0.1073366149
H  H465  1  0.94020000  0.96686000  0.52850000  0.38 0.1073366149
H  H466  1  0.05980000  0.96686000  0.47150000  0.38 0.1073366149
H  H467  1  0.94020000  0.03314000  0.47150000  0.38 0.1073366149
H  H468  1  0.05980000  0.03314000  0.52850000  0.38 0.1073366149
H  H469  1  0.46960000  0.05900000  0.10978000  0.5 0.1282039324
H  H470  1  0.53040000  0.94100000  0.10978000  0.5 0.1282039324
H  H471  1  0.53040000  0.05900000  0.89022000  0.5 0.1282039324
H  H472  1  0.46960000  0.94100000  0.89022000  0.5 0.1282039324
H  H473  1  0.10978000  0.46960000  0.05900000  0.5 0.1282039324
H  H474  1  0.10978000  0.53040000  0.94100000  0.5 0.1282039324
H  H475  1  0.89022000  0.53040000  0.05900000  0.5 0.1282039324
H  H476  1  0.89022000  0.46960000  0.94100000  0.5 0.1282039324
H  H477  1  0.05900000  0.10978000  0.46960000  0.5 0.1282039324
H  H478  1  0.94100000  0.10978000  0.53040000  0.5 0.1282039324
H  H479  1  0.05900000  0.89022000  0.53040000  0.5 0.1282039324
H  H480  1  0.94100000  0.89022000  0.46960000  0.5 0.1282039324
H  H481  1  0.53040000  0.94100000  0.89022000  0.5 0.1282039324
H  H482  1  0.46960000  0.05900000  0.89022000  0.5 0.1282039324
H  H483  1  0.46960000  0.94100000  0.10978000  0.5 0.1282039324
H  H484  1  0.53040000  0.05900000  0.10978000  0.5 0.1282039324
H  H485  1  0.89022000  0.53040000  0.94100000  0.5 0.1282039324
H  H486  1  0.89022000  0.46960000  0.05900000  0.5 0.1282039324
H  H487  1  0.10978000  0.46960000  0.94100000  0.5 0.1282039324
H  H488  1  0.10978000  0.53040000  0.05900000  0.5 0.1282039324
H  H489  1  0.94100000  0.89022000  0.53040000  0.5 0.1282039324
H  H490  1  0.05900000  0.89022000  0.46960000  0.5 0.1282039324
H  H491  1  0.94100000  0.10978000  0.46960000  0.5 0.1282039324
H  H492  1  0.05900000  0.10978000  0.53040000  0.5 0.1282039324
C  C1  1  0.50000000  0.00000000  0.40379000  1.0 0.5965069264
C  C2  1  0.50000000  0.00000000  0.59621000  1.0 0.5965069264
C  C3  1  0.40379000  0.50000000  0.00000000  1.0 0.5965069264
C  C4  1  0.59621000  0.50000000  0.00000000  1.0 0.5965069264
C  C5  1  0.00000000  0.40379000  0.50000000  1.0 0.5965069264
C  C6  1  0.00000000  0.59621000  0.50000000  1.0 0.5965069264
C  C7  1  0.50000000  0.00000000  0.45395000  1.0 -0.0411336606
C  C8  1  0.50000000  0.00000000  0.54605000  1.0 -0.0411336606
C  C9  1  0.45395000  0.50000000  0.00000000  1.0 -0.0411336606
C  C10  1  0.54605000  0.50000000  0.00000000  1.0 -0.0411336606
C  C11  1  0.00000000  0.45395000  0.50000000  1.0 -0.0411336606
C  C12  1  0.00000000  0.54605000  0.50000000  1.0 -0.0411336606
C  C13  1  0.46050000  0.00000000  0.47678000  1.0 -0.0901440161
C  C14  1  0.53950000  0.00000000  0.47678000  1.0 -0.0901440161
C  C15  1  0.53950000  0.00000000  0.52322000  1.0 -0.0901440161
C  C16  1  0.46050000  0.00000000  0.52322000  1.0 -0.0901440161
C  C17  1  0.47678000  0.46050000  0.00000000  1.0 -0.0901440161
C  C18  1  0.47678000  0.53950000  0.00000000  1.0 -0.0901440161
C  C19  1  0.52322000  0.53950000  0.00000000  1.0 -0.0901440161
C  C20  1  0.52322000  0.46050000  0.00000000  1.0 -0.0901440161
C  C21  1  0.00000000  0.47678000  0.46050000  1.0 -0.0901440161
C  C22  1  0.00000000  0.47678000  0.53950000  1.0 -0.0901440161
C  C23  1  0.00000000  0.52322000  0.53950000  1.0 -0.0901440161
C  C24  1  0.00000000  0.52322000  0.46050000  1.0 -0.0901440161
C  C25  1  0.50000000  0.00000000  0.16735000  1.0 0.544542115
C  C26  1  0.50000000  0.00000000  0.83265000  1.0 0.544542115
C  C27  1  0.16735000  0.50000000  0.00000000  1.0 0.544542115
C  C28  1  0.83265000  0.50000000  0.00000000  1.0 0.544542115
C  C29  1  0.00000000  0.16735000  0.50000000  1.0 0.544542115
C  C30  1  0.00000000  0.83265000  0.50000000  1.0 0.544542115
C  C31  1  0.50000000  0.00000000  0.11726000  1.0 -0.0045405038
C  C32  1  0.50000000  0.00000000  0.88274000  1.0 -0.0045405038
C  C33  1  0.11726000  0.50000000  0.00000000  1.0 -0.0045405038
C  C34  1  0.88274000  0.50000000  0.00000000  1.0 -0.0045405038
C  C35  1  0.00000000  0.11726000  0.50000000  1.0 -0.0045405038
C  C36  1  0.00000000  0.88274000  0.50000000  1.0 -0.0045405038
C  C37  1  0.50000000  0.00000000  0.02513000  1.0 -0.1085492529
C  C38  1  0.50000000  0.00000000  0.97487000  1.0 -0.1165211538
C  C39  1  0.02513000  0.50000000  0.00000000  1.0 -0.1085492529
C  C40  1  0.97487000  0.50000000  0.00000000  1.0 -0.1085492529
C  C41  1  0.00000000  0.02513000  0.50000000  1.0 -0.1085492529
C  C42  1  0.00000000  0.97487000  0.50000000  1.0 -0.1165211538
C  C43  1  0.41515000  0.08395000  0.28520000  1.0 0.5965069264
C  C44  1  0.58485000  0.91605000  0.28520000  1.0 0.5965069264
C  C45  1  0.58485000  0.08395000  0.71480000  1.0 0.5965069264
C  C46  1  0.41515000  0.91605000  0.71480000  1.0 0.5965069264
C  C47  1  0.28520000  0.41515000  0.08395000  1.0 0.5965069264
C  C48  1  0.28520000  0.58485000  0.91605000  1.0 0.5965069264
C  C49  1  0.71480000  0.58485000  0.08395000  1.0 0.5965069264
C  C50  1  0.71480000  0.41515000  0.91605000  1.0 0.5965069264
C  C51  1  0.08395000  0.28520000  0.41515000  1.0 0.5965069264
C  C52  1  0.91605000  0.28520000  0.58485000  1.0 0.5965069264
C  C53  1  0.08395000  0.71480000  0.58485000  1.0 0.5965069264
C  C54  1  0.91605000  0.71480000  0.41515000  1.0 0.5965069264
C  C55  1  0.58485000  0.91605000  0.71480000  1.0 0.5965069264
C  C56  1  0.41515000  0.08395000  0.71480000  1.0 0.5965069264
C  C57  1  0.41515000  0.91605000  0.28520000  1.0 0.5965069264
C  C58  1  0.58485000  0.08395000  0.28520000  1.0 0.5965069264
C  C59  1  0.71480000  0.58485000  0.91605000  1.0 0.5965069264
C  C60  1  0.71480000  0.41515000  0.08395000  1.0 0.5965069264
C  C61  1  0.28520000  0.41515000  0.91605000  1.0 0.5965069264
C  C62  1  0.28520000  0.58485000  0.08395000  1.0 0.5965069264
C  C63  1  0.91605000  0.71480000  0.58485000  1.0 0.5965069264
C  C64  1  0.08395000  0.71480000  0.41515000  1.0 0.5965069264
C  C65  1  0.91605000  0.28520000  0.41515000  1.0 0.5965069264
C  C66  1  0.08395000  0.28520000  0.58485000  1.0 0.5965069264
C  C67  1  0.37978000  0.11901000  0.28510000  1.0 -0.0411336606
C  C68  1  0.62022000  0.88099000  0.28510000  1.0 -0.0411336606
C  C69  1  0.62022000  0.11901000  0.71490000  1.0 -0.0411336606
C  C70  1  0.37978000  0.88099000  0.71490000  1.0 -0.0411336606
C  C71  1  0.28510000  0.37978000  0.11901000  1.0 -0.0411336606
C  C72  1  0.28510000  0.62022000  0.88099000  1.0 -0.0411336606
C  C73  1  0.71490000  0.62022000  0.11901000  1.0 -0.0411336606
C  C74  1  0.71490000  0.37978000  0.88099000  1.0 -0.0411336606
C  C75  1  0.11901000  0.28510000  0.37978000  1.0 -0.0411336606
C  C76  1  0.88099000  0.28510000  0.62022000  1.0 -0.0411336606
C  C77  1  0.11901000  0.71490000  0.62022000  1.0 -0.0411336606
C  C78  1  0.88099000  0.71490000  0.37978000  1.0 -0.0411336606
C  C79  1  0.62022000  0.88099000  0.71490000  1.0 -0.0411336606
C  C80  1  0.37978000  0.11901000  0.71490000  1.0 -0.0411336606
C  C81  1  0.37978000  0.88099000  0.28510000  1.0 -0.0411336606
C  C82  1  0.62022000  0.11901000  0.28510000  1.0 -0.0411336606
C  C83  1  0.71490000  0.62022000  0.88099000  1.0 -0.0411336606
C  C84  1  0.71490000  0.37978000  0.11901000  1.0 -0.0411336606
C  C85  1  0.28510000  0.37978000  0.88099000  1.0 -0.0411336606
C  C86  1  0.28510000  0.62022000  0.11901000  1.0 -0.0411336606
C  C87  1  0.88099000  0.71490000  0.62022000  1.0 -0.0411336606
C  C88  1  0.11901000  0.71490000  0.37978000  1.0 -0.0411336606
C  C89  1  0.88099000  0.28510000  0.37978000  1.0 -0.0411336606
C  C90  1  0.11901000  0.28510000  0.62022000  1.0 -0.0411336606
C  C91  1  0.34632000  0.11842000  0.31734000  1.0 -0.1085492529
C  C92  1  0.65368000  0.88158000  0.31734000  1.0 -0.1085492529
C  C93  1  0.65368000  0.11842000  0.68266000  1.0 -0.1085492529
C  C94  1  0.34632000  0.88158000  0.68266000  1.0 -0.1085492529
C  C95  1  0.31734000  0.34632000  0.11842000  1.0 -0.1085492529
C  C96  1  0.31734000  0.65368000  0.88158000  1.0 -0.1085492529
C  C97  1  0.68266000  0.65368000  0.11842000  1.0 -0.1085492529
C  C98  1  0.68266000  0.34632000  0.88158000  1.0 -0.1085492529
C  C99  1  0.11842000  0.31734000  0.34632000  1.0 -0.1085492529
C  C100  1  0.88158000  0.31734000  0.65368000  1.0 -0.1085492529
C  C101  1  0.11842000  0.68266000  0.65368000  1.0 -0.1085492529
C  C102  1  0.88158000  0.68266000  0.34632000  1.0 -0.1085492529
C  C103  1  0.65368000  0.88158000  0.68266000  1.0 -0.1085492529
C  C104  1  0.34632000  0.11842000  0.68266000  1.0 -0.1085492529
C  C105  1  0.34632000  0.88158000  0.31734000  1.0 -0.1085492529
C  C106  1  0.65368000  0.11842000  0.31734000  1.0 -0.1085492529
C  C107  1  0.68266000  0.65368000  0.88158000  1.0 -0.1085492529
C  C108  1  0.68266000  0.34632000  0.11842000  1.0 -0.1085492529
C  C109  1  0.31734000  0.34632000  0.88158000  1.0 -0.1085492529
C  C110  1  0.31734000  0.65368000  0.11842000  1.0 -0.1085492529
C  C111  1  0.88158000  0.68266000  0.65368000  1.0 -0.1085492529
C  C112  1  0.11842000  0.68266000  0.34632000  1.0 -0.1085492529
C  C113  1  0.88158000  0.31734000  0.34632000  1.0 -0.1085492529
C  C114  1  0.11842000  0.31734000  0.65368000  1.0 -0.1085492529
C  C115  1  0.31328000  0.15070000  0.31804000  1.0 -0.158047667
C  C116  1  0.68672000  0.84930000  0.31804000  1.0 -0.158047667
C  C117  1  0.68672000  0.15070000  0.68196000  1.0 -0.158047667
C  C118  1  0.31328000  0.84930000  0.68196000  1.0 -0.158047667
C  C119  1  0.31804000  0.31328000  0.15070000  1.0 -0.158047667
C  C120  1  0.31804000  0.68672000  0.84930000  1.0 -0.158047667
C  C121  1  0.68196000  0.68672000  0.15070000  1.0 -0.158047667
C  C122  1  0.68196000  0.31328000  0.84930000  1.0 -0.158047667
C  C123  1  0.15070000  0.31804000  0.31328000  1.0 -0.158047667
C  C124  1  0.84930000  0.31804000  0.68672000  1.0 -0.158047667
C  C125  1  0.15070000  0.68196000  0.68672000  1.0 -0.158047667
C  C126  1  0.84930000  0.68196000  0.31328000  1.0 -0.158047667
C  C127  1  0.68672000  0.84930000  0.68196000  1.0 -0.158047667
C  C128  1  0.31328000  0.15070000  0.68196000  1.0 -0.158047667
C  C129  1  0.31328000  0.84930000  0.31804000  1.0 -0.158047667
C  C130  1  0.68672000  0.15070000  0.31804000  1.0 -0.158047667
C  C131  1  0.68196000  0.68672000  0.84930000  1.0 -0.158047667
C  C132  1  0.68196000  0.31328000  0.15070000  1.0 -0.158047667
C  C133  1  0.31804000  0.31328000  0.84930000  1.0 -0.158047667
C  C134  1  0.31804000  0.68672000  0.15070000  1.0 -0.158047667
C  C135  1  0.84930000  0.68196000  0.68672000  1.0 -0.158047667
C  C136  1  0.15070000  0.68196000  0.31328000  1.0 -0.158047667
C  C137  1  0.84930000  0.31804000  0.31328000  1.0 -0.158047667
C  C138  1  0.15070000  0.31804000  0.68672000  1.0 -0.158047667
C  C139  1  0.31296000  0.18390000  0.28579000  1.0 0.0266321687
C  C140  1  0.68704000  0.81610000  0.28579000  1.0 0.0266321687
C  C141  1  0.68704000  0.18390000  0.71421000  1.0 0.0208019787
C  C142  1  0.31296000  0.81610000  0.71421000  1.0 0.0208019787
C  C143  1  0.28579000  0.31296000  0.18390000  1.0 0.0266321687
C  C144  1  0.28579000  0.68704000  0.81610000  1.0 0.0266321687
C  C145  1  0.71421000  0.68704000  0.18390000  1.0 0.0208019787
C  C146  1  0.71421000  0.31296000  0.81610000  1.0 0.0208019787
C  C147  1  0.18390000  0.28579000  0.31296000  1.0 0.0266321687
C  C148  1  0.81610000  0.28579000  0.68704000  1.0 0.0266321687
C  C149  1  0.18390000  0.71421000  0.68704000  1.0 0.0208019787
C  C150  1  0.81610000  0.71421000  0.31296000  1.0 0.0208019787
C  C151  1  0.68704000  0.81610000  0.71421000  1.0 0.0208019787
C  C152  1  0.31296000  0.18390000  0.71421000  1.0 0.0208019787
C  C153  1  0.31296000  0.81610000  0.28579000  1.0 0.0266321687
C  C154  1  0.68704000  0.18390000  0.28579000  1.0 0.0266321687
C  C155  1  0.71421000  0.68704000  0.81610000  1.0 0.0208019787
C  C156  1  0.71421000  0.31296000  0.18390000  1.0 0.0208019787
C  C157  1  0.28579000  0.31296000  0.81610000  1.0 0.0266321687
C  C158  1  0.28579000  0.68704000  0.18390000  1.0 0.0266321687
C  C159  1  0.81610000  0.71421000  0.68704000  1.0 0.0208019787
C  C160  1  0.18390000  0.71421000  0.31296000  1.0 0.0208019787
C  C161  1  0.81610000  0.28579000  0.31296000  1.0 0.0266321687
C  C162  1  0.18390000  0.28579000  0.68704000  1.0 0.0266321687
C  C163  1  0.34620000  0.18427000  0.25333000  1.0 0.0208019787
C  C164  1  0.65380000  0.81573000  0.25333000  1.0 0.0208019787
C  C165  1  0.65380000  0.18427000  0.74667000  1.0 0.0208019787
C  C166  1  0.34620000  0.81573000  0.74667000  1.0 0.0208019787
C  C167  1  0.25333000  0.34620000  0.18427000  1.0 0.0208019787
C  C168  1  0.25333000  0.65380000  0.81573000  1.0 0.0208019787
C  C169  1  0.74667000  0.65380000  0.18427000  1.0 0.0208019787
C  C170  1  0.74667000  0.34620000  0.81573000  1.0 0.0208019787
C  C171  1  0.18427000  0.25333000  0.34620000  1.0 0.0208019787
C  C172  1  0.81573000  0.25333000  0.65380000  1.0 0.0208019787
C  C173  1  0.18427000  0.74667000  0.65380000  1.0 0.0208019787
C  C174  1  0.81573000  0.74667000  0.34620000  1.0 0.0208019787
C  C175  1  0.65380000  0.81573000  0.74667000  1.0 0.0208019787
C  C176  1  0.34620000  0.18427000  0.74667000  1.0 0.0208019787
C  C177  1  0.34620000  0.81573000  0.25333000  1.0 0.0208019787
C  C178  1  0.65380000  0.18427000  0.25333000  1.0 0.0208019787
C  C179  1  0.74667000  0.65380000  0.81573000  1.0 0.0208019787
C  C180  1  0.74667000  0.34620000  0.18427000  1.0 0.0208019787
C  C181  1  0.25333000  0.34620000  0.81573000  1.0 0.0208019787
C  C182  1  0.25333000  0.65380000  0.18427000  1.0 0.0208019787
C  C183  1  0.81573000  0.74667000  0.65380000  1.0 0.0208019787
C  C184  1  0.18427000  0.74667000  0.34620000  1.0 0.0208019787
C  C185  1  0.81573000  0.25333000  0.34620000  1.0 0.0208019787
C  C186  1  0.18427000  0.25333000  0.65380000  1.0 0.0208019787
C  C187  1  0.37976000  0.15229000  0.25318000  1.0 -0.158047667
C  C188  1  0.62024000  0.84771000  0.25318000  1.0 -0.158047667
C  C189  1  0.62024000  0.15229000  0.74682000  1.0 -0.158047667
C  C190  1  0.37976000  0.84771000  0.74682000  1.0 -0.158047667
C  C191  1  0.25318000  0.37976000  0.15229000  1.0 -0.158047667
C  C192  1  0.25318000  0.62024000  0.84771000  1.0 -0.158047667
C  C193  1  0.74682000  0.62024000  0.15229000  1.0 -0.158047667
C  C194  1  0.74682000  0.37976000  0.84771000  1.0 -0.158047667
C  C195  1  0.15229000  0.25318000  0.37976000  1.0 -0.158047667
C  C196  1  0.84771000  0.25318000  0.62024000  1.0 -0.158047667
C  C197  1  0.15229000  0.74682000  0.62024000  1.0 -0.158047667
C  C198  1  0.84771000  0.74682000  0.37976000  1.0 -0.158047667
C  C199  1  0.62024000  0.84771000  0.74682000  1.0 -0.158047667
C  C200  1  0.37976000  0.15229000  0.74682000  1.0 -0.158047667
C  C201  1  0.37976000  0.84771000  0.25318000  1.0 -0.158047667
C  C202  1  0.62024000  0.15229000  0.25318000  1.0 -0.158047667
C  C203  1  0.74682000  0.62024000  0.84771000  1.0 -0.158047667
C  C204  1  0.74682000  0.37976000  0.15229000  1.0 -0.158047667
C  C205  1  0.25318000  0.37976000  0.84771000  1.0 -0.158047667
C  C206  1  0.25318000  0.62024000  0.15229000  1.0 -0.158047667
C  C207  1  0.84771000  0.74682000  0.62024000  1.0 -0.158047667
C  C208  1  0.15229000  0.74682000  0.37976000  1.0 -0.158047667
C  C209  1  0.84771000  0.25318000  0.37976000  1.0 -0.158047667
C  C210  1  0.15229000  0.25318000  0.62024000  1.0 -0.158047667
C  C211  1  0.28263000  0.22266000  0.27701000  1.0 -0.0411336606
C  C212  1  0.71737000  0.77734000  0.27701000  1.0 -0.0411336606
C  C213  1  0.71737000  0.22266000  0.72299000  1.0 -0.0411336606
C  C214  1  0.28263000  0.77734000  0.72299000  1.0 -0.0411336606
C  C215  1  0.27701000  0.28263000  0.22266000  1.0 -0.0411336606
C  C216  1  0.27701000  0.71737000  0.77734000  1.0 -0.0411336606
C  C217  1  0.72299000  0.71737000  0.22266000  1.0 -0.0411336606
C  C218  1  0.72299000  0.28263000  0.77734000  1.0 -0.0411336606
C  C219  1  0.22266000  0.27701000  0.28263000  1.0 -0.0411336606
C  C220  1  0.77734000  0.27701000  0.71737000  1.0 -0.0411336606
C  C221  1  0.22266000  0.72299000  0.71737000  1.0 -0.0411336606
C  C222  1  0.77734000  0.72299000  0.28263000  1.0 -0.0411336606
C  C223  1  0.71737000  0.77734000  0.72299000  1.0 -0.0411336606
C  C224  1  0.28263000  0.22266000  0.72299000  1.0 -0.0411336606
C  C225  1  0.28263000  0.77734000  0.27701000  1.0 -0.0411336606
C  C226  1  0.71737000  0.22266000  0.27701000  1.0 -0.0411336606
C  C227  1  0.72299000  0.71737000  0.77734000  1.0 -0.0411336606
C  C228  1  0.72299000  0.28263000  0.22266000  1.0 -0.0411336606
C  C229  1  0.27701000  0.28263000  0.77734000  1.0 -0.0411336606
C  C230  1  0.27701000  0.71737000  0.22266000  1.0 -0.0411336606
C  C231  1  0.77734000  0.72299000  0.71737000  1.0 -0.0411336606
C  C232  1  0.22266000  0.72299000  0.28263000  1.0 -0.0411336606
C  C233  1  0.77734000  0.27701000  0.28263000  1.0 -0.0411336606
C  C234  1  0.22266000  0.27701000  0.71737000  1.0 -0.0411336606
C  C235  1  0.29879000  0.24486000  0.23892000  1.0 -0.0227355318
C  C236  1  0.70121000  0.75514000  0.23892000  1.0 -0.0227355318
C  C237  1  0.70121000  0.24486000  0.76108000  1.0 -0.0227355318
C  C238  1  0.29879000  0.75514000  0.76108000  1.0 -0.0227355318
C  C239  1  0.23892000  0.29879000  0.24486000  1.0 -0.0227355318
C  C240  1  0.23892000  0.70121000  0.75514000  1.0 -0.0227355318
C  C241  1  0.76108000  0.70121000  0.24486000  1.0 -0.0227355318
C  C242  1  0.76108000  0.29879000  0.75514000  1.0 -0.0227355318
C  C243  1  0.24486000  0.23892000  0.29879000  1.0 -0.0227355318
C  C244  1  0.75514000  0.23892000  0.70121000  1.0 -0.0227355318
C  C245  1  0.24486000  0.76108000  0.70121000  1.0 -0.0227355318
C  C246  1  0.75514000  0.76108000  0.29879000  1.0 -0.0227355318
C  C247  1  0.70121000  0.75514000  0.76108000  1.0 -0.0227355318
C  C248  1  0.29879000  0.24486000  0.76108000  1.0 -0.0227355318
C  C249  1  0.29879000  0.75514000  0.23892000  1.0 -0.0227355318
C  C250  1  0.70121000  0.24486000  0.23892000  1.0 -0.0227355318
C  C251  1  0.76108000  0.70121000  0.75514000  1.0 -0.0227355318
C  C252  1  0.76108000  0.29879000  0.24486000  1.0 -0.0227355318
C  C253  1  0.23892000  0.29879000  0.75514000  1.0 -0.0227355318
C  C254  1  0.23892000  0.70121000  0.24486000  1.0 -0.0227355318
C  C255  1  0.75514000  0.76108000  0.70121000  1.0 -0.0227355318
C  C256  1  0.24486000  0.76108000  0.29879000  1.0 -0.0227355318
C  C257  1  0.75514000  0.23892000  0.29879000  1.0 -0.0227355318
C  C258  1  0.24486000  0.23892000  0.70121000  1.0 -0.0227355318
C  C259  1  0.34071000  0.22208000  0.22053000  1.0 0.184299778
C  C260  1  0.65929000  0.77792000  0.22053000  1.0 0.184299778
C  C261  1  0.65929000  0.22208000  0.77947000  1.0 0.1853313556
C  C262  1  0.34071000  0.77792000  0.77947000  1.0 0.184299778
C  C263  1  0.22053000  0.34071000  0.22208000  1.0 0.184299778
C  C264  1  0.22053000  0.65929000  0.77792000  1.0 0.184299778
C  C265  1  0.77947000  0.65929000  0.22208000  1.0 0.1853313556
C  C266  1  0.77947000  0.34071000  0.77792000  1.0 0.184299778
C  C267  1  0.22208000  0.22053000  0.34071000  1.0 0.184299778
C  C268  1  0.77792000  0.22053000  0.65929000  1.0 0.184299778
C  C269  1  0.22208000  0.77947000  0.65929000  1.0 0.1853313556
C  C270  1  0.77792000  0.77947000  0.34071000  1.0 0.184299778
C  C271  1  0.65929000  0.77792000  0.77947000  1.0 0.184299778
C  C272  1  0.34071000  0.22208000  0.77947000  1.0 0.1853313556
C  C273  1  0.34071000  0.77792000  0.22053000  1.0 0.184299778
C  C274  1  0.65929000  0.22208000  0.22053000  1.0 0.184299778
C  C275  1  0.77947000  0.65929000  0.77792000  1.0 0.184299778
C  C276  1  0.77947000  0.34071000  0.22208000  1.0 0.1853313556
C  C277  1  0.22053000  0.34071000  0.77792000  1.0 0.184299778
C  C278  1  0.22053000  0.65929000  0.22208000  1.0 0.184299778
C  C279  1  0.77792000  0.77947000  0.65929000  1.0 0.184299778
C  C280  1  0.22208000  0.77947000  0.34071000  1.0 0.1853313556
C  C281  1  0.77792000  0.22053000  0.34071000  1.0 0.184299778
C  C282  1  0.22208000  0.22053000  0.65929000  1.0 0.184299778
C  C283  1  0.33293000  0.20164000  0.17395000  1.0 -0.4773349118
C  C284  1  0.66707000  0.79836000  0.17395000  1.0 -0.4773349118
C  C285  1  0.66707000  0.20164000  0.82605000  1.0 -0.4773349118
C  C286  1  0.33293000  0.79836000  0.82605000  1.0 -0.4773349118
C  C287  1  0.17395000  0.33293000  0.20164000  1.0 -0.4773349118
C  C288  1  0.17395000  0.66707000  0.79836000  1.0 -0.4773349118
C  C289  1  0.82605000  0.66707000  0.20164000  1.0 -0.4773349118
C  C290  1  0.82605000  0.33293000  0.79836000  1.0 -0.4773349118
C  C291  1  0.20164000  0.17395000  0.33293000  1.0 -0.4773349118
C  C292  1  0.79836000  0.17395000  0.66707000  1.0 -0.4773349118
C  C293  1  0.20164000  0.82605000  0.66707000  1.0 -0.4773349118
C  C294  1  0.79836000  0.82605000  0.33293000  1.0 -0.4773349118
C  C295  1  0.66707000  0.79836000  0.82605000  1.0 -0.4773349118
C  C296  1  0.33293000  0.20164000  0.82605000  1.0 -0.4773349118
C  C297  1  0.33293000  0.79836000  0.17395000  1.0 -0.4773349118
C  C298  1  0.66707000  0.20164000  0.17395000  1.0 -0.4773349118
C  C299  1  0.82605000  0.66707000  0.79836000  1.0 -0.4773349118
C  C300  1  0.82605000  0.33293000  0.20164000  1.0 -0.4773349118
C  C301  1  0.17395000  0.33293000  0.79836000  1.0 -0.4773349118
C  C302  1  0.17395000  0.66707000  0.20164000  1.0 -0.4773349118
C  C303  1  0.79836000  0.82605000  0.66707000  1.0 -0.4773349118
C  C304  1  0.20164000  0.82605000  0.33293000  1.0 -0.4773349118
C  C305  1  0.79836000  0.17395000  0.33293000  1.0 -0.4773349118
C  C306  1  0.20164000  0.17395000  0.66707000  1.0 -0.4773349118
C  C307  1  0.38203000  0.25238000  0.22331000  1.0 -0.4522025103
C  C308  1  0.61797000  0.74762000  0.22331000  1.0 -0.4522025103
C  C309  1  0.61797000  0.25238000  0.77669000  1.0 -0.4522025103
C  C310  1  0.38203000  0.74762000  0.77669000  1.0 -0.4522025103
C  C311  1  0.22331000  0.38203000  0.25238000  1.0 -0.4522025103
C  C312  1  0.22331000  0.61797000  0.74762000  1.0 -0.4522025103
C  C313  1  0.77669000  0.61797000  0.25238000  1.0 -0.4522025103
C  C314  1  0.77669000  0.38203000  0.74762000  1.0 -0.4522025103
C  C315  1  0.25238000  0.22331000  0.38203000  1.0 -0.4522025103
C  C316  1  0.74762000  0.22331000  0.61797000  1.0 -0.4522025103
C  C317  1  0.25238000  0.77669000  0.61797000  1.0 -0.4522025103
C  C318  1  0.74762000  0.77669000  0.38203000  1.0 -0.4522025103
C  C319  1  0.61797000  0.74762000  0.77669000  1.0 -0.4522025103
C  C320  1  0.38203000  0.25238000  0.77669000  1.0 -0.4522025103
C  C321  1  0.38203000  0.74762000  0.22331000  1.0 -0.4522025103
C  C322  1  0.61797000  0.25238000  0.22331000  1.0 -0.4522025103
C  C323  1  0.77669000  0.61797000  0.74762000  1.0 -0.4522025103
C  C324  1  0.77669000  0.38203000  0.25238000  1.0 -0.4522025103
C  C325  1  0.22331000  0.38203000  0.74762000  1.0 -0.4522025103
C  C326  1  0.22331000  0.61797000  0.25238000  1.0 -0.4522025103
C  C327  1  0.74762000  0.77669000  0.61797000  1.0 -0.4522025103
C  C328  1  0.25238000  0.77669000  0.38203000  1.0 -0.4522025103
C  C329  1  0.74762000  0.22331000  0.38203000  1.0 -0.4522025103
C  C330  1  0.25238000  0.22331000  0.61797000  1.0 -0.4522025103
C  C331  1  0.48219000  0.03520000  0.09426000  0.5 -0.0846755022
C  C332  1  0.51781000  0.96480000  0.09426000  0.5 -0.0846755022
C  C333  1  0.51781000  0.03520000  0.90574000  0.5 -0.0846755022
C  C334  1  0.48219000  0.96480000  0.90574000  0.5 -0.0846755022
C  C335  1  0.09426000  0.48219000  0.03520000  0.5 -0.0846755022
C  C336  1  0.09426000  0.51781000  0.96480000  0.5 -0.0846755022
C  C337  1  0.90574000  0.51781000  0.03520000  0.5 -0.0846755022
C  C338  1  0.90574000  0.48219000  0.96480000  0.5 -0.0846755022
C  C339  1  0.03520000  0.09426000  0.48219000  0.5 -0.0846755022
C  C340  1  0.96480000  0.09426000  0.51781000  0.5 -0.0846755022
C  C341  1  0.03520000  0.90574000  0.51781000  0.5 -0.0846755022
C  C342  1  0.96480000  0.90574000  0.48219000  0.5 -0.0846755022
C  C343  1  0.51781000  0.96480000  0.90574000  0.5 -0.0846755022
C  C344  1  0.48219000  0.03520000  0.90574000  0.5 -0.0846755022
C  C345  1  0.48219000  0.96480000  0.09426000  0.5 -0.0846755022
C  C346  1  0.51781000  0.03520000  0.09426000  0.5 -0.0846755022
C  C347  1  0.90574000  0.51781000  0.96480000  0.5 -0.0846755022
C  C348  1  0.90574000  0.48219000  0.03520000  0.5 -0.0846755022
C  C349  1  0.09426000  0.48219000  0.96480000  0.5 -0.0846755022
C  C350  1  0.09426000  0.51781000  0.03520000  0.5 -0.0846755022
C  C351  1  0.96480000  0.90574000  0.51781000  0.5 -0.0846755022
C  C352  1  0.03520000  0.90574000  0.48219000  0.5 -0.0846755022
C  C353  1  0.96480000  0.09426000  0.48219000  0.5 -0.0846755022
C  C354  1  0.03520000  0.09426000  0.51781000  0.5 -0.0846755022
C  C355  1  0.48281000  0.03546000  0.04870000  0.5 -0.0083645161
C  C356  1  0.51719000  0.96454000  0.04870000  0.5 -0.0083645161
C  C357  1  0.51719000  0.03546000  0.95130000  0.5 -0.0083645161
C  C358  1  0.48281000  0.96454000  0.95130000  0.5 -0.0083645161
C  C359  1  0.04870000  0.48281000  0.03546000  0.5 -0.0083645161
C  C360  1  0.04870000  0.51719000  0.96454000  0.5 -0.0083645161
C  C361  1  0.95130000  0.51719000  0.03546000  0.5 -0.0083645161
C  C362  1  0.95130000  0.48281000  0.96454000  0.5 -0.0083645161
C  C363  1  0.03546000  0.04870000  0.48281000  0.5 -0.0083645161
C  C364  1  0.96454000  0.04870000  0.51719000  0.5 -0.0083645161
C  C365  1  0.03546000  0.95130000  0.51719000  0.5 -0.0083645161
C  C366  1  0.96454000  0.95130000  0.48281000  0.5 -0.0083645161
C  C367  1  0.51719000  0.96454000  0.95130000  0.5 -0.0083645161
C  C368  1  0.48281000  0.03546000  0.95130000  0.5 -0.0083645161
C  C369  1  0.48281000  0.96454000  0.04870000  0.5 -0.0083645161
C  C370  1  0.51719000  0.03546000  0.04870000  0.5 -0.0083645161
C  C371  1  0.95130000  0.51719000  0.96454000  0.5 -0.0083645161
C  C372  1  0.95130000  0.48281000  0.03546000  0.5 -0.0083645161
C  C373  1  0.04870000  0.48281000  0.96454000  0.5 -0.0083645161
C  C374  1  0.04870000  0.51719000  0.03546000  0.5 -0.0083645161
C  C375  1  0.96454000  0.95130000  0.51719000  0.5 -0.0083645161
C  C376  1  0.03546000  0.95130000  0.48281000  0.5 -0.0083645161
C  C377  1  0.96454000  0.04870000  0.48281000  0.5 -0.0083645161
C  C378  1  0.03546000  0.04870000  0.51719000  0.5 -0.0083645161
C  C379  1  0.42350000  0.10740000  0.04500000  0.12 0.1282039324
C  C380  1  0.57650000  0.89260000  0.04500000  0.12 0.1282039324
C  C381  1  0.57650000  0.10740000  0.95500000  0.12 0.1282039324
C  C382  1  0.42350000  0.89260000  0.95500000  0.12 0.1282039324
C  C383  1  0.04500000  0.42350000  0.10740000  0.12 0.1282039324
C  C384  1  0.04500000  0.57650000  0.89260000  0.12 0.1282039324
C  C385  1  0.95500000  0.57650000  0.10740000  0.12 0.1282039324
C  C386  1  0.95500000  0.42350000  0.89260000  0.12 0.1282039324
C  C387  1  0.10740000  0.04500000  0.42350000  0.12 0.1282039324
C  C388  1  0.89260000  0.04500000  0.57650000  0.12 0.1282039324
C  C389  1  0.10740000  0.95500000  0.57650000  0.12 0.1282039324
C  C390  1  0.89260000  0.95500000  0.42350000  0.12 0.1282039324
C  C391  1  0.57650000  0.89260000  0.95500000  0.12 0.1282039324
C  C392  1  0.42350000  0.10740000  0.95500000  0.12 0.1282039324
C  C393  1  0.42350000  0.89260000  0.04500000  0.12 0.1282039324
C  C394  1  0.57650000  0.10740000  0.04500000  0.12 0.1282039324
C  C395  1  0.95500000  0.57650000  0.89260000  0.12 0.1282039324
C  C396  1  0.95500000  0.42350000  0.10740000  0.12 0.1282039324
C  C397  1  0.04500000  0.42350000  0.89260000  0.12 0.1282039324
C  C398  1  0.04500000  0.57650000  0.10740000  0.12 0.1282039324
C  C399  1  0.89260000  0.95500000  0.57650000  0.12 0.1282039324
C  C400  1  0.10740000  0.95500000  0.42350000  0.12 0.1282039324
C  C401  1  0.89260000  0.04500000  0.42350000  0.12 0.1282039324
C  C402  1  0.10740000  0.04500000  0.57650000  0.12 0.1282039324
C  C403  1  0.40650000  0.14000000  0.00990000  0.12 0.0517035534
C  C404  1  0.59350000  0.86000000  0.00990000  0.12 0.0517035534
C  C405  1  0.59350000  0.14000000  0.99010000  0.12 0.0517035534
C  C406  1  0.40650000  0.86000000  0.99010000  0.12 0.0517035534
C  C407  1  0.00990000  0.40650000  0.14000000  0.12 0.0517035534
C  C408  1  0.00990000  0.59350000  0.86000000  0.12 0.0517035534
C  C409  1  0.99010000  0.59350000  0.14000000  0.12 0.0517035534
C  C410  1  0.99010000  0.40650000  0.86000000  0.12 0.0517035534
C  C411  1  0.14000000  0.00990000  0.40650000  0.12 0.0517035534
C  C412  1  0.86000000  0.00990000  0.59350000  0.12 0.0517035534
C  C413  1  0.14000000  0.99010000  0.59350000  0.12 0.0517035534
C  C414  1  0.86000000  0.99010000  0.40650000  0.12 0.0517035534
C  C415  1  0.59350000  0.86000000  0.99010000  0.12 0.0517035534
C  C416  1  0.40650000  0.14000000  0.99010000  0.12 0.0517035534
C  C417  1  0.40650000  0.86000000  0.00990000  0.12 0.0517035534
C  C418  1  0.59350000  0.14000000  0.00990000  0.12 0.0517035534
C  C419  1  0.99010000  0.59350000  0.86000000  0.12 0.0517035534
C  C420  1  0.99010000  0.40650000  0.14000000  0.12 0.0517035534
C  C421  1  0.00990000  0.40650000  0.86000000  0.12 0.0517035534
C  C422  1  0.00990000  0.59350000  0.14000000  0.12 0.0517035534
C  C423  1  0.86000000  0.99010000  0.59350000  0.12 0.0517035534
C  C424  1  0.14000000  0.99010000  0.40650000  0.12 0.0517035534
C  C425  1  0.86000000  0.00990000  0.40650000  0.12 0.0517035534
C  C426  1  0.14000000  0.00990000  0.59350000  0.12 0.0517035534
C  C427  1  0.37050000  0.11850000  0.98020000  0.12 -0.158047667
C  C428  1  0.62950000  0.88150000  0.98020000  0.12 -0.158047667
C  C429  1  0.62950000  0.11850000  0.01980000  0.12 -0.158047667
C  C430  1  0.37050000  0.88150000  0.01980000  0.12 -0.158047667
C  C431  1  0.98020000  0.37050000  0.11850000  0.12 -0.158047667
C  C432  1  0.98020000  0.62950000  0.88150000  0.12 -0.158047667
C  C433  1  0.01980000  0.62950000  0.11850000  0.12 -0.158047667
C  C434  1  0.01980000  0.37050000  0.88150000  0.12 -0.158047667
C  C435  1  0.11850000  0.98020000  0.37050000  0.12 -0.158047667
C  C436  1  0.88150000  0.98020000  0.62950000  0.12 -0.158047667
C  C437  1  0.11850000  0.01980000  0.62950000  0.12 -0.158047667
C  C438  1  0.88150000  0.01980000  0.37050000  0.12 -0.158047667
C  C439  1  0.62950000  0.88150000  0.01980000  0.12 -0.158047667
C  C440  1  0.37050000  0.11850000  0.01980000  0.12 -0.158047667
C  C441  1  0.37050000  0.88150000  0.98020000  0.12 -0.158047667
C  C442  1  0.62950000  0.11850000  0.98020000  0.12 -0.158047667
C  C443  1  0.01980000  0.62950000  0.88150000  0.12 -0.158047667
C  C444  1  0.01980000  0.37050000  0.11850000  0.12 -0.158047667
C  C445  1  0.98020000  0.37050000  0.88150000  0.12 -0.158047667
C  C446  1  0.98020000  0.62950000  0.11850000  0.12 -0.158047667
C  C447  1  0.88150000  0.01980000  0.62950000  0.12 -0.158047667
C  C448  1  0.11850000  0.01980000  0.37050000  0.12 -0.158047667
C  C449  1  0.88150000  0.98020000  0.37050000  0.12 -0.158047667
C  C450  1  0.11850000  0.98020000  0.62950000  0.12 -0.158047667
C  C451  1  0.37290000  0.14610000  0.93750000  0.12 -0.158047667
C  C452  1  0.62710000  0.85390000  0.93750000  0.12 -0.158047667
C  C453  1  0.62710000  0.14610000  0.06250000  0.12 -0.158047667
C  C454  1  0.37290000  0.85390000  0.06250000  0.12 -0.158047667
C  C455  1  0.93750000  0.37290000  0.14610000  0.12 -0.158047667
C  C456  1  0.93750000  0.62710000  0.85390000  0.12 -0.158047667
C  C457  1  0.06250000  0.62710000  0.14610000  0.12 -0.158047667
C  C458  1  0.06250000  0.37290000  0.85390000  0.12 -0.158047667
C  C459  1  0.14610000  0.93750000  0.37290000  0.12 -0.158047667
C  C460  1  0.85390000  0.93750000  0.62710000  0.12 -0.158047667
C  C461  1  0.14610000  0.06250000  0.62710000  0.12 -0.158047667
C  C462  1  0.85390000  0.06250000  0.37290000  0.12 -0.158047667
C  C463  1  0.62710000  0.85390000  0.06250000  0.12 -0.158047667
C  C464  1  0.37290000  0.14610000  0.06250000  0.12 -0.158047667
C  C465  1  0.37290000  0.85390000  0.93750000  0.12 -0.158047667
C  C466  1  0.62710000  0.14610000  0.93750000  0.12 -0.158047667
C  C467  1  0.06250000  0.62710000  0.85390000  0.12 -0.158047667
C  C468  1  0.06250000  0.37290000  0.14610000  0.12 -0.158047667
C  C469  1  0.93750000  0.37290000  0.85390000  0.12 -0.158047667
C  C470  1  0.93750000  0.62710000  0.14610000  0.12 -0.158047667
C  C471  1  0.85390000  0.06250000  0.62710000  0.12 -0.158047667
C  C472  1  0.14610000  0.06250000  0.37290000  0.12 -0.158047667
C  C473  1  0.85390000  0.93750000  0.37290000  0.12 -0.158047667
C  C474  1  0.14610000  0.93750000  0.62710000  0.12 -0.158047667
C  C475  1  0.42270000  0.15350000  0.93110000  0.12 -0.0411336606
C  C476  1  0.57730000  0.84650000  0.93110000  0.12 -0.0347869715
C  C477  1  0.57730000  0.15350000  0.06890000  0.12 -0.0347869715
C  C478  1  0.42270000  0.84650000  0.06890000  0.12 -0.0411336606
C  C479  1  0.93110000  0.42270000  0.15350000  0.12 -0.0347869715
C  C480  1  0.93110000  0.57730000  0.84650000  0.12 -0.0347869715
C  C481  1  0.06890000  0.57730000  0.15350000  0.12 -0.0411336606
C  C482  1  0.06890000  0.42270000  0.84650000  0.12 -0.0411336606
C  C483  1  0.15350000  0.93110000  0.42270000  0.12 -0.0411336606
C  C484  1  0.84650000  0.93110000  0.57730000  0.12 -0.0347869715
C  C485  1  0.15350000  0.06890000  0.57730000  0.12 -0.0347869715
C  C486  1  0.84650000  0.06890000  0.42270000  0.12 -0.0347869715
C  C487  1  0.57730000  0.84650000  0.06890000  0.12 -0.0347869715
C  C488  1  0.42270000  0.15350000  0.06890000  0.12 -0.0347869715
C  C489  1  0.42270000  0.84650000  0.93110000  0.12 -0.0411336606
C  C490  1  0.57730000  0.15350000  0.93110000  0.12 -0.0347869715
C  C491  1  0.06890000  0.57730000  0.84650000  0.12 -0.0411336606
C  C492  1  0.06890000  0.42270000  0.15350000  0.12 -0.0411336606
C  C493  1  0.93110000  0.42270000  0.84650000  0.12 -0.0347869715
C  C494  1  0.93110000  0.57730000  0.15350000  0.12 -0.0347869715
C  C495  1  0.84650000  0.06890000  0.57730000  0.12 -0.0347869715
C  C496  1  0.15350000  0.06890000  0.42270000  0.12 -0.0411336606
C  C497  1  0.84650000  0.93110000  0.42270000  0.12 -0.0347869715
C  C498  1  0.15350000  0.93110000  0.57730000  0.12 -0.0411336606
N  N1  1  0.45700000  0.07970000  0.03050000  0.12 -0.3861535628
N  N2  1  0.54300000  0.92030000  0.03050000  0.12 -0.3861535628
N  N3  1  0.54300000  0.07970000  0.96950000  0.12 -0.3861535628
N  N4  1  0.45700000  0.92030000  0.96950000  0.12 -0.3861535628
N  N5  1  0.03050000  0.45700000  0.07970000  0.12 -0.3861535628
N  N6  1  0.03050000  0.54300000  0.92030000  0.12 -0.3861535628
N  N7  1  0.96950000  0.54300000  0.07970000  0.12 -0.3861535628
N  N8  1  0.96950000  0.45700000  0.92030000  0.12 -0.3861535628
N  N9  1  0.07970000  0.03050000  0.45700000  0.12 -0.3861535628
N  N10  1  0.92030000  0.03050000  0.54300000  0.12 -0.3861535628
N  N11  1  0.07970000  0.96950000  0.54300000  0.12 -0.3861535628
N  N12  1  0.92030000  0.96950000  0.45700000  0.12 -0.3861535628
N  N13  1  0.54300000  0.92030000  0.96950000  0.12 -0.3861535628
N  N14  1  0.45700000  0.07970000  0.96950000  0.12 -0.3861535628
N  N15  1  0.45700000  0.92030000  0.03050000  0.12 -0.3861535628
N  N16  1  0.54300000  0.07970000  0.03050000  0.12 -0.3861535628
N  N17  1  0.96950000  0.54300000  0.92030000  0.12 -0.3861535628
N  N18  1  0.96950000  0.45700000  0.07970000  0.12 -0.3861535628
N  N19  1  0.03050000  0.45700000  0.92030000  0.12 -0.3861535628
N  N20  1  0.03050000  0.54300000  0.07970000  0.12 -0.3861535628
N  N21  1  0.92030000  0.96950000  0.54300000  0.12 -0.3861535628
N  N22  1  0.07970000  0.96950000  0.45700000  0.12 -0.3861535628
N  N23  1  0.92030000  0.03050000  0.45700000  0.12 -0.3861535628
N  N24  1  0.07970000  0.03050000  0.54300000  0.12 -0.3861535628
N  N25  1  0.43970000  0.15510000  0.97730000  0.12 -0.1962349856
N  N26  1  0.56030000  0.84490000  0.97730000  0.12 -0.1948284844
N  N27  1  0.56030000  0.15510000  0.02270000  0.12 -0.1962349856
N  N28  1  0.43970000  0.84490000  0.02270000  0.12 -0.1962349856
N  N29  1  0.97730000  0.43970000  0.15510000  0.12 -0.1962349856
N  N30  1  0.97730000  0.56030000  0.84490000  0.12 -0.1962349856
N  N31  1  0.02270000  0.56030000  0.15510000  0.12 -0.1962349856
N  N32  1  0.02270000  0.43970000  0.84490000  0.12 -0.1962349856
N  N33  1  0.15510000  0.97730000  0.43970000  0.12 -0.1962349856
N  N34  1  0.84490000  0.97730000  0.56030000  0.12 -0.1962349856
N  N35  1  0.15510000  0.02270000  0.56030000  0.12 -0.1962349856
N  N36  1  0.84490000  0.02270000  0.43970000  0.12 -0.1962349856
N  N37  1  0.56030000  0.84490000  0.02270000  0.12 -0.1962349856
N  N38  1  0.43970000  0.15510000  0.02270000  0.12 -0.1962349856
N  N39  1  0.43970000  0.84490000  0.97730000  0.12 -0.1962349856
N  N40  1  0.56030000  0.15510000  0.97730000  0.12 -0.1962349856
N  N41  1  0.02270000  0.56030000  0.84490000  0.12 -0.1962349856
N  N42  1  0.02270000  0.43970000  0.15510000  0.12 -0.1962349856
N  N43  1  0.97730000  0.43970000  0.84490000  0.12 -0.1962349856
N  N44  1  0.97730000  0.56030000  0.15510000  0.12 -0.1962349856
N  N45  1  0.84490000  0.02270000  0.56030000  0.12 -0.1962349856
N  N46  1  0.15510000  0.02270000  0.43970000  0.12 -0.1962349856
N  N47  1  0.84490000  0.97730000  0.43970000  0.12 -0.1962349856
N  N48  1  0.15510000  0.97730000  0.56030000  0.12 -0.1962349856
O  O1  1  0.50000000  0.00000000  0.28537000  1.0 -1.0331171343
O  O2  1  0.50000000  0.00000000  0.71463000  1.0 -1.0331171343
O  O3  1  0.28537000  0.50000000  0.00000000  1.0 -1.0331171343
O  O4  1  0.71463000  0.50000000  0.00000000  1.0 -1.0331171343
O  O5  1  0.00000000  0.28537000  0.50000000  1.0 -1.0331171343
O  O6  1  0.00000000  0.71463000  0.50000000  1.0 -1.0331171343
O  O7  1  0.46291000  0.00000000  0.38496000  1.0 -0.5262788723
O  O8  1  0.53709000  0.00000000  0.38496000  1.0 -0.5262788723
O  O9  1  0.53709000  0.00000000  0.61504000  1.0 -0.5262788723
O  O10  1  0.46291000  0.00000000  0.61504000  1.0 -0.5262788723
O  O11  1  0.38496000  0.46291000  0.00000000  1.0 -0.5248655865
O  O12  1  0.38496000  0.53709000  0.00000000  1.0 -0.5248655865
O  O13  1  0.61504000  0.53709000  0.00000000  1.0 -0.5262788723
O  O14  1  0.61504000  0.46291000  0.00000000  1.0 -0.5262788723
O  O15  1  0.00000000  0.38496000  0.46291000  1.0 -0.5262788723
O  O16  1  0.00000000  0.38496000  0.53709000  1.0 -0.5262788723
O  O17  1  0.00000000  0.61504000  0.53709000  1.0 -0.5262788723
O  O18  1  0.00000000  0.61504000  0.46291000  1.0 -0.5262788723
O  O19  1  0.50000000  0.03691000  0.18605000  1.0 -0.5069367875
O  O20  1  0.50000000  0.96309000  0.18605000  1.0 -0.5069367875
O  O21  1  0.50000000  0.03691000  0.81395000  1.0 -0.5069367875
O  O22  1  0.50000000  0.96309000  0.81395000  1.0 -0.5069367875
O  O23  1  0.18605000  0.50000000  0.03691000  1.0 -0.5069367875
O  O24  1  0.18605000  0.50000000  0.96309000  1.0 -0.5069367875
O  O25  1  0.81395000  0.50000000  0.03691000  1.0 -0.5069367875
O  O26  1  0.81395000  0.50000000  0.96309000  1.0 -0.5069367875
O  O27  1  0.03691000  0.18605000  0.50000000  1.0 -0.5069367875
O  O28  1  0.96309000  0.18605000  0.50000000  1.0 -0.5069367875
O  O29  1  0.03691000  0.81395000  0.50000000  1.0 -0.5069367875
O  O30  1  0.96309000  0.81395000  0.50000000  1.0 -0.5069367875
O  O31  1  0.41073000  0.05244000  0.31196000  1.0 -0.5381812816
O  O32  1  0.58927000  0.94756000  0.31196000  1.0 -0.5381812816
O  O33  1  0.58927000  0.05244000  0.68804000  1.0 -0.5381812816
O  O34  1  0.41073000  0.94756000  0.68804000  1.0 -0.5381812816
O  O35  1  0.31196000  0.41073000  0.05244000  1.0 -0.5381812816
O  O36  1  0.31196000  0.58927000  0.94756000  1.0 -0.5381812816
O  O37  1  0.68804000  0.58927000  0.05244000  1.0 -0.5381812816
O  O38  1  0.68804000  0.41073000  0.94756000  1.0 -0.5381812816
O  O39  1  0.05244000  0.31196000  0.41073000  1.0 -0.5381812816
O  O40  1  0.94756000  0.31196000  0.58927000  1.0 -0.5381812816
O  O41  1  0.05244000  0.68804000  0.58927000  1.0 -0.5381812816
O  O42  1  0.94756000  0.68804000  0.41073000  1.0 -0.5381812816
O  O43  1  0.58927000  0.94756000  0.68804000  1.0 -0.5381812816
O  O44  1  0.41073000  0.05244000  0.68804000  1.0 -0.5381812816
O  O45  1  0.41073000  0.94756000  0.31196000  1.0 -0.5381812816
O  O46  1  0.58927000  0.05244000  0.31196000  1.0 -0.5381812816
O  O47  1  0.68804000  0.58927000  0.94756000  1.0 -0.5381812816
O  O48  1  0.68804000  0.41073000  0.05244000  1.0 -0.5381812816
O  O49  1  0.31196000  0.41073000  0.94756000  1.0 -0.5381812816
O  O50  1  0.31196000  0.58927000  0.05244000  1.0 -0.5381812816
O  O51  1  0.94756000  0.68804000  0.58927000  1.0 -0.5381812816
O  O52  1  0.05244000  0.68804000  0.41073000  1.0 -0.5381812816
O  O53  1  0.94756000  0.31196000  0.41073000  1.0 -0.5381812816
O  O54  1  0.05244000  0.31196000  0.58927000  1.0 -0.5381812816
O  O55  1  0.44712000  0.08895000  0.25846000  1.0 -0.5540030787
O  O56  1  0.55288000  0.91105000  0.25846000  1.0 -0.5540030787
O  O57  1  0.55288000  0.08895000  0.74154000  1.0 -0.5540030787
O  O58  1  0.44712000  0.91105000  0.74154000  1.0 -0.5540030787
O  O59  1  0.25846000  0.44712000  0.08895000  1.0 -0.5540030787
O  O60  1  0.25846000  0.55288000  0.91105000  1.0 -0.5540030787
O  O61  1  0.74154000  0.55288000  0.08895000  1.0 -0.5540030787
O  O62  1  0.74154000  0.44712000  0.91105000  1.0 -0.5540030787
O  O63  1  0.08895000  0.25846000  0.44712000  1.0 -0.5540030787
O  O64  1  0.91105000  0.25846000  0.55288000  1.0 -0.5540030787
O  O65  1  0.08895000  0.74154000  0.55288000  1.0 -0.5540030787
O  O66  1  0.91105000  0.74154000  0.44712000  1.0 -0.5540030787
O  O67  1  0.55288000  0.91105000  0.74154000  1.0 -0.5540030787
O  O68  1  0.44712000  0.08895000  0.74154000  1.0 -0.5540030787
O  O69  1  0.44712000  0.91105000  0.25846000  1.0 -0.5540030787
O  O70  1  0.55288000  0.08895000  0.25846000  1.0 -0.5540030787
O  O71  1  0.74154000  0.55288000  0.91105000  1.0 -0.5540030787
O  O72  1  0.74154000  0.44712000  0.08895000  1.0 -0.5540030787
O  O73  1  0.25846000  0.44712000  0.91105000  1.0 -0.5540030787
O  O74  1  0.25846000  0.55288000  0.08895000  1.0 -0.5540030787
O  O75  1  0.91105000  0.74154000  0.55288000  1.0 -0.5540030787
O  O76  1  0.08895000  0.74154000  0.44712000  1.0 -0.5540030787
O  O77  1  0.91105000  0.25846000  0.44712000  1.0 -0.5540030787
O  O78  1  0.08895000  0.25846000  0.55288000  1.0 -0.5540030787
O  O79  1  0.40670000  0.10620000  0.08190000  0.12 -0.136942393
O  O80  1  0.59330000  0.89380000  0.08190000  0.12 -0.136942393
O  O81  1  0.59330000  0.10620000  0.91810000  0.12 -0.136942393
O  O82  1  0.40670000  0.89380000  0.91810000  0.12 -0.136942393
O  O83  1  0.08190000  0.40670000  0.10620000  0.12 -0.136942393
O  O84  1  0.08190000  0.59330000  0.89380000  0.12 -0.136942393
O  O85  1  0.91810000  0.59330000  0.10620000  0.12 -0.136942393
O  O86  1  0.91810000  0.40670000  0.89380000  0.12 -0.136942393
O  O87  1  0.10620000  0.08190000  0.40670000  0.12 -0.136942393
O  O88  1  0.89380000  0.08190000  0.59330000  0.12 -0.136942393
O  O89  1  0.10620000  0.91810000  0.59330000  0.12 -0.136942393
O  O90  1  0.89380000  0.91810000  0.40670000  0.12 -0.136942393
O  O91  1  0.59330000  0.89380000  0.91810000  0.12 -0.136942393
O  O92  1  0.40670000  0.10620000  0.91810000  0.12 -0.136942393
O  O93  1  0.40670000  0.89380000  0.08190000  0.12 -0.136942393
O  O94  1  0.59330000  0.10620000  0.08190000  0.12 -0.136942393
O  O95  1  0.91810000  0.59330000  0.89380000  0.12 -0.136942393
O  O96  1  0.91810000  0.40670000  0.10620000  0.12 -0.136942393
O  O97  1  0.08190000  0.40670000  0.89380000  0.12 -0.136942393
O  O98  1  0.08190000  0.59330000  0.10620000  0.12 -0.136942393
O  O99  1  0.89380000  0.91810000  0.59330000  0.12 -0.136942393
O  O100  1  0.10620000  0.91810000  0.40670000  0.12 -0.136942393
O  O101  1  0.89380000  0.08190000  0.40670000  0.12 -0.136942393
O  O102  1  0.10620000  0.08190000  0.59330000  0.12 -0.136942393
