# DDEC6 charges by PACMAN v1.1 (https://github.com/mtap-research/PACMAN-charge/)
data_aav4119_data_file_s4_ASR_pacman
_symmetry_space_group_name_H-M   'P 1'
_cell_length_a   30.32600000
_cell_length_b   30.32600000
_cell_length_c   34.47600000
_cell_angle_alpha   90.00000000
_cell_angle_beta   90.00000000
_cell_angle_gamma   90.00000000
_symmetry_Int_Tables_number   1
_chemical_formula_structural   Zn44.0H332.8C632N59.2O120
_chemical_formula_sum   'Zn44.0 H332.8 C632 N59.2 O120'
_cell_volume   31706.41453138
_cell_formula_units_Z   1
loop_
 _symmetry_equiv_pos_site_id
 _symmetry_equiv_pos_as_xyz
  1  'x, y, z'
loop_
 _atom_site_type_symbol
 _atom_site_label
 _atom_site_symmetry_multiplicity
 _atom_site_fract_x
 _atom_site_fract_y
 _atom_site_fract_z
 _atom_site_occupancy
 _atom_site_charge
Zn  Zn1  1  0.90179000  0.66635000  0.72644000  1.0 0.9897750449
Zn  Zn2  1  0.09821000  0.33365000  0.72644000  1.0 0.9963255507
Zn  Zn3  1  0.33365000  0.90179000  0.72644000  1.0 0.9963255507
Zn  Zn4  1  0.66635000  0.09821000  0.72644000  1.0 0.9897750449
Zn  Zn5  1  0.59821000  0.16635000  0.77356000  1.0 0.9897750449
Zn  Zn6  1  0.40179000  0.83365000  0.77356000  1.0 0.9963255507
Zn  Zn7  1  0.16635000  0.40179000  0.77356000  1.0 0.9897750449
Zn  Zn8  1  0.83365000  0.59821000  0.77356000  1.0 0.9963255507
Zn  Zn9  1  0.09821000  0.33365000  0.27356000  1.0 0.9963255507
Zn  Zn10  1  0.90179000  0.66635000  0.27356000  1.0 0.9897750449
Zn  Zn11  1  0.66635000  0.09821000  0.27356000  1.0 0.9897750449
Zn  Zn12  1  0.33365000  0.90179000  0.27356000  1.0 0.9963255507
Zn  Zn13  1  0.40179000  0.83365000  0.22644000  1.0 0.9963255507
Zn  Zn14  1  0.59821000  0.16635000  0.22644000  1.0 0.9897750449
Zn  Zn15  1  0.83365000  0.59821000  0.22644000  1.0 0.9963255507
Zn  Zn16  1  0.16635000  0.40179000  0.22644000  1.0 0.9897750449
Zn  Zn17  1  0.00000000  0.00000000  0.83467000  1.0 0.5916278374
Zn  Zn18  1  0.50000000  0.50000000  0.66533000  1.0 0.5916278374
Zn  Zn19  1  0.00000000  0.00000000  0.16533000  1.0 0.5916278374
Zn  Zn20  1  0.50000000  0.50000000  0.33467000  1.0 0.5916278374
Zn  Zn21  1  0.16475000  0.70312000  0.50000000  1.0 0.6322419551
Zn  Zn22  1  0.83525000  0.29688000  0.50000000  1.0 0.6322419551
Zn  Zn23  1  0.29688000  0.16475000  0.50000000  1.0 0.6322419551
Zn  Zn24  1  0.70312000  0.83525000  0.50000000  1.0 0.6322419551
Zn  Zn25  1  0.33525000  0.20312000  0.00000000  1.0 0.6322419551
Zn  Zn26  1  0.66475000  0.79688000  0.00000000  1.0 0.6322419551
Zn  Zn27  1  0.20312000  0.66475000  0.00000000  1.0 0.6322419551
Zn  Zn28  1  0.79688000  0.33525000  0.00000000  1.0 0.6322419551
Zn  Zn29  1  0.94232000  0.75878000  0.66531000  0.45 0.5022659314
Zn  Zn30  1  0.05768000  0.24122000  0.66531000  0.45 0.5022659314
Zn  Zn31  1  0.24122000  0.94232000  0.66531000  0.45 0.5022659314
Zn  Zn32  1  0.75878000  0.05768000  0.66531000  0.45 0.5022659314
Zn  Zn33  1  0.55768000  0.25878000  0.83469000  0.45 0.5022659314
Zn  Zn34  1  0.44232000  0.74122000  0.83469000  0.45 0.5118171965
Zn  Zn35  1  0.25878000  0.44232000  0.83469000  0.45 0.5118171965
Zn  Zn36  1  0.74122000  0.55768000  0.83469000  0.45 0.5118171965
Zn  Zn37  1  0.05768000  0.24122000  0.33469000  0.45 0.5022659314
Zn  Zn38  1  0.94232000  0.75878000  0.33469000  0.45 0.5022659314
Zn  Zn39  1  0.75878000  0.05768000  0.33469000  0.45 0.5022659314
Zn  Zn40  1  0.24122000  0.94232000  0.33469000  0.45 0.5022659314
Zn  Zn41  1  0.44232000  0.74122000  0.16531000  0.45 0.5118171965
Zn  Zn42  1  0.55768000  0.25878000  0.16531000  0.45 0.5022659314
Zn  Zn43  1  0.74122000  0.55768000  0.16531000  0.45 0.5118171965
Zn  Zn44  1  0.25878000  0.44232000  0.16531000  0.45 0.5118171965
Zn  Zn45  1  0.91184000  0.76291000  0.67604000  0.55 0.5264334313
Zn  Zn46  1  0.08816000  0.23709000  0.67604000  0.55 0.5264334313
Zn  Zn47  1  0.23709000  0.91184000  0.67604000  0.55 0.5264334313
Zn  Zn48  1  0.76291000  0.08816000  0.67604000  0.55 0.5118171965
Zn  Zn49  1  0.58816000  0.26291000  0.82396000  0.55 0.5118171965
Zn  Zn50  1  0.41184000  0.73709000  0.82396000  0.55 0.5118171965
Zn  Zn51  1  0.26291000  0.41184000  0.82396000  0.55 0.5118171965
Zn  Zn52  1  0.73709000  0.58816000  0.82396000  0.55 0.5118171965
Zn  Zn53  1  0.08816000  0.23709000  0.32396000  0.55 0.5264334313
Zn  Zn54  1  0.91184000  0.76291000  0.32396000  0.55 0.5264334313
Zn  Zn55  1  0.76291000  0.08816000  0.32396000  0.55 0.5118171965
Zn  Zn56  1  0.23709000  0.91184000  0.32396000  0.55 0.5264334313
Zn  Zn57  1  0.41184000  0.73709000  0.17604000  0.55 0.5118171965
Zn  Zn58  1  0.58816000  0.26291000  0.17604000  0.55 0.5118171965
Zn  Zn59  1  0.73709000  0.58816000  0.17604000  0.55 0.5118171965
Zn  Zn60  1  0.26291000  0.41184000  0.17604000  0.55 0.5118171965
H  H1  1  0.84070000  0.94150000  0.82180000  1.0 0.1295391472
H  H2  1  0.88490000  0.87570000  0.82280000  1.0 0.1295391472
H  H3  1  0.98260000  0.83320000  0.88270000  1.0 0.1295391472
H  H4  1  0.96820000  0.75820000  0.88640000  1.0 0.117923499
H  H5  1  0.94600000  0.72000000  0.83150000  1.0 0.1295391472
H  H6  1  0.95270000  0.83180000  0.76920000  1.0 0.1295391472
H  H7  1  0.78160000  0.64590000  0.67460000  1.0 0.1295391472
H  H8  1  0.71740000  0.63630000  0.63900000  1.0 0.1089153956
H  H9  1  0.69730000  0.68800000  0.59260000  1.0 0.117923499
H  H10  1  0.80560000  0.75890000  0.61760000  1.0 0.1295391472
H  H11  1  0.99460000  0.59050000  0.67570000  1.0 0.1295391472
H  H12  1  0.04790000  0.54940000  0.64380000  1.0 0.117923499
H  H13  1  0.09180000  0.58220000  0.59680000  1.0 0.117923499
H  H14  1  0.02900000  0.69730000  0.61370000  1.0 0.1295391472
H  H15  1  0.01960000  0.62670000  0.53860000  1.0 0.1295391472
H  H16  1  0.13160000  0.67990000  0.64490000  1.0 0.1295391472
H  H17  1  0.20370000  0.71440000  0.64470000  1.0 0.1295391472
H  H18  1  0.31440000  0.76840000  0.53610000  1.0 0.117923499
H  H19  1  0.15930000  0.05850000  0.82180000  1.0 0.1295391472
H  H20  1  0.11510000  0.12430000  0.82280000  1.0 0.1295391472
H  H21  1  0.01740000  0.16680000  0.88270000  1.0 0.1295391472
H  H22  1  0.03180000  0.24180000  0.88640000  1.0 0.117923499
H  H23  1  0.05400000  0.28000000  0.83150000  1.0 0.1295391472
H  H24  1  0.04730000  0.16820000  0.76920000  1.0 0.1350285393
H  H25  1  0.21840000  0.35410000  0.67460000  1.0 0.1295391472
H  H26  1  0.28260000  0.36370000  0.63900000  1.0 0.1089153956
H  H27  1  0.30270000  0.31200000  0.59260000  1.0 0.117923499
H  H28  1  0.19440000  0.24110000  0.61760000  1.0 0.1350285393
H  H29  1  0.00540000  0.40950000  0.67570000  1.0 0.1295391472
H  H30  1  0.95210000  0.45060000  0.64380000  1.0 0.117923499
H  H31  1  0.90820000  0.41780000  0.59680000  1.0 0.117923499
H  H32  1  0.97100000  0.30270000  0.61370000  1.0 0.1295391472
H  H33  1  0.98040000  0.37330000  0.53860000  1.0 0.1295391472
H  H34  1  0.86840000  0.32010000  0.64490000  1.0 0.1295391472
H  H35  1  0.79630000  0.28560000  0.64470000  1.0 0.1295391472
H  H36  1  0.68560000  0.23160000  0.53610000  1.0 0.117923499
H  H37  1  0.05850000  0.84070000  0.82180000  1.0 0.1295391472
H  H38  1  0.12430000  0.88490000  0.82280000  1.0 0.1295391472
H  H39  1  0.16680000  0.98260000  0.88270000  1.0 0.1295391472
H  H40  1  0.24180000  0.96820000  0.88640000  1.0 0.117923499
H  H41  1  0.28000000  0.94600000  0.83150000  1.0 0.1295391472
H  H42  1  0.16820000  0.95270000  0.76920000  1.0 0.1295391472
H  H43  1  0.35410000  0.78160000  0.67460000  1.0 0.1295391472
H  H44  1  0.36370000  0.71740000  0.63900000  1.0 0.1089153956
H  H45  1  0.31200000  0.69730000  0.59260000  1.0 0.117923499
H  H46  1  0.24110000  0.80560000  0.61760000  1.0 0.1295391472
H  H47  1  0.40950000  0.99460000  0.67570000  1.0 0.1295391472
H  H48  1  0.45060000  0.04790000  0.64380000  1.0 0.1089153956
H  H49  1  0.41780000  0.09180000  0.59680000  1.0 0.117923499
H  H50  1  0.30270000  0.02900000  0.61370000  1.0 0.1295391472
H  H51  1  0.37330000  0.01960000  0.53860000  1.0 0.1295391472
H  H52  1  0.32010000  0.13160000  0.64490000  1.0 0.1295391472
H  H53  1  0.28560000  0.20370000  0.64470000  1.0 0.1295391472
H  H54  1  0.23160000  0.31440000  0.53610000  1.0 0.117923499
H  H55  1  0.94150000  0.15930000  0.82180000  1.0 0.1295391472
H  H56  1  0.87570000  0.11510000  0.82280000  1.0 0.1295391472
H  H57  1  0.83320000  0.01740000  0.88270000  1.0 0.1295391472
H  H58  1  0.75820000  0.03180000  0.88640000  1.0 0.117923499
H  H59  1  0.72000000  0.05400000  0.83150000  1.0 0.1295391472
H  H60  1  0.83180000  0.04730000  0.76920000  1.0 0.1350285393
H  H61  1  0.64590000  0.21840000  0.67460000  1.0 0.1295391472
H  H62  1  0.63630000  0.28260000  0.63900000  1.0 0.1089153956
H  H63  1  0.68800000  0.30270000  0.59260000  1.0 0.117923499
H  H64  1  0.75890000  0.19440000  0.61760000  1.0 0.1295391472
H  H65  1  0.59050000  0.00540000  0.67570000  1.0 0.1295391472
H  H66  1  0.54940000  0.95210000  0.64380000  1.0 0.117923499
H  H67  1  0.58220000  0.90820000  0.59680000  1.0 0.117923499
H  H68  1  0.69730000  0.97100000  0.61370000  1.0 0.1295391472
H  H69  1  0.62670000  0.98040000  0.53860000  1.0 0.1295391472
H  H70  1  0.67990000  0.86840000  0.64490000  1.0 0.1295391472
H  H71  1  0.71440000  0.79630000  0.64470000  1.0 0.1295391472
H  H72  1  0.76840000  0.68560000  0.53610000  1.0 0.117923499
H  H73  1  0.65930000  0.44150000  0.67820000  1.0 0.1295391472
H  H74  1  0.61510000  0.37570000  0.67720000  1.0 0.1295391472
H  H75  1  0.51740000  0.33320000  0.61730000  1.0 0.1295391472
H  H76  1  0.53180000  0.25820000  0.61360000  1.0 0.117923499
H  H77  1  0.55400000  0.22000000  0.66850000  1.0 0.1295391472
H  H78  1  0.54730000  0.33180000  0.73080000  1.0 0.1295391472
H  H79  1  0.71840000  0.14590000  0.82540000  1.0 0.1295391472
H  H80  1  0.78260000  0.13630000  0.86100000  1.0 0.1089153956
H  H81  1  0.80270000  0.18800000  0.90740000  1.0 0.117923499
H  H82  1  0.69440000  0.25890000  0.88240000  1.0 0.1295391472
H  H83  1  0.50540000  0.09050000  0.82430000  1.0 0.1295391472
H  H84  1  0.45210000  0.04940000  0.85620000  1.0 0.1089153956
H  H85  1  0.40820000  0.08220000  0.90320000  1.0 0.117923499
H  H86  1  0.47100000  0.19730000  0.88630000  1.0 0.1295391472
H  H87  1  0.48040000  0.12670000  0.96140000  1.0 0.1295391472
H  H88  1  0.36840000  0.17990000  0.85510000  1.0 0.1295391472
H  H89  1  0.29630000  0.21440000  0.85530000  1.0 0.1295391472
H  H90  1  0.18560000  0.26840000  0.96390000  1.0 0.117923499
H  H91  1  0.34070000  0.55850000  0.67820000  1.0 0.1295391472
H  H92  1  0.38490000  0.62430000  0.67720000  1.0 0.1295391472
H  H93  1  0.48260000  0.66680000  0.61730000  1.0 0.1295391472
H  H94  1  0.46820000  0.74180000  0.61360000  1.0 0.117923499
H  H95  1  0.44600000  0.78000000  0.66850000  1.0 0.1295391472
H  H96  1  0.45270000  0.66820000  0.73080000  1.0 0.1295391472
H  H97  1  0.28160000  0.85410000  0.82540000  1.0 0.1295391472
H  H98  1  0.21740000  0.86370000  0.86100000  1.0 0.1089153956
H  H99  1  0.19730000  0.81200000  0.90740000  1.0 0.117923499
H  H100  1  0.30560000  0.74110000  0.88240000  1.0 0.1350285393
H  H101  1  0.49460000  0.90950000  0.82430000  1.0 0.1295391472
H  H102  1  0.54790000  0.95060000  0.85620000  1.0 0.1089153956
H  H103  1  0.59180000  0.91780000  0.90320000  1.0 0.117923499
H  H104  1  0.52900000  0.80270000  0.88630000  1.0 0.1295391472
H  H105  1  0.51960000  0.87330000  0.96140000  1.0 0.1295391472
H  H106  1  0.63160000  0.82010000  0.85510000  1.0 0.1295391472
H  H107  1  0.70370000  0.78560000  0.85530000  1.0 0.1295391472
H  H108  1  0.81440000  0.73160000  0.96390000  1.0 0.117923499
H  H109  1  0.44150000  0.34070000  0.67820000  1.0 0.1295391472
H  H110  1  0.37570000  0.38490000  0.67720000  1.0 0.1295391472
H  H111  1  0.33320000  0.48260000  0.61730000  1.0 0.1295391472
H  H112  1  0.25820000  0.46820000  0.61360000  1.0 0.117923499
H  H113  1  0.22000000  0.44600000  0.66850000  1.0 0.1295391472
H  H114  1  0.33180000  0.45270000  0.73080000  1.0 0.1295391472
H  H115  1  0.14590000  0.28160000  0.82540000  1.0 0.1295391472
H  H116  1  0.13630000  0.21740000  0.86100000  1.0 0.1089153956
H  H117  1  0.18800000  0.19730000  0.90740000  1.0 0.117923499
H  H118  1  0.25890000  0.30560000  0.88240000  1.0 0.1350285393
H  H119  1  0.09050000  0.49460000  0.82430000  1.0 0.1295391472
H  H120  1  0.04940000  0.54790000  0.85620000  1.0 0.1089153956
H  H121  1  0.08220000  0.59180000  0.90320000  1.0 0.117923499
H  H122  1  0.19730000  0.52900000  0.88630000  1.0 0.1295391472
H  H123  1  0.12670000  0.51960000  0.96140000  1.0 0.1295391472
H  H124  1  0.17990000  0.63160000  0.85510000  1.0 0.1295391472
H  H125  1  0.21440000  0.70370000  0.85530000  1.0 0.1295391472
H  H126  1  0.26840000  0.81440000  0.96390000  1.0 0.117923499
H  H127  1  0.55850000  0.65930000  0.67820000  1.0 0.1295391472
H  H128  1  0.62430000  0.61510000  0.67720000  1.0 0.1295391472
H  H129  1  0.66680000  0.51740000  0.61730000  1.0 0.1295391472
H  H130  1  0.74180000  0.53180000  0.61360000  1.0 0.117923499
H  H131  1  0.78000000  0.55400000  0.66850000  1.0 0.1295391472
H  H132  1  0.66820000  0.54730000  0.73080000  1.0 0.1295391472
H  H133  1  0.85410000  0.71840000  0.82540000  1.0 0.1295391472
H  H134  1  0.86370000  0.78260000  0.86100000  1.0 0.1089153956
H  H135  1  0.81200000  0.80270000  0.90740000  1.0 0.117923499
H  H136  1  0.74110000  0.69440000  0.88240000  1.0 0.1295391472
H  H137  1  0.90950000  0.50540000  0.82430000  1.0 0.1295391472
H  H138  1  0.95060000  0.45210000  0.85620000  1.0 0.1089153956
H  H139  1  0.91780000  0.40820000  0.90320000  1.0 0.117923499
H  H140  1  0.80270000  0.47100000  0.88630000  1.0 0.1295391472
H  H141  1  0.87330000  0.48040000  0.96140000  1.0 0.1295391472
H  H142  1  0.82010000  0.36840000  0.85510000  1.0 0.1295391472
H  H143  1  0.78560000  0.29630000  0.85530000  1.0 0.1295391472
H  H144  1  0.73160000  0.18560000  0.96390000  1.0 0.117923499
H  H145  1  0.15930000  0.05850000  0.17820000  1.0 0.1295391472
H  H146  1  0.11510000  0.12430000  0.17720000  1.0 0.1295391472
H  H147  1  0.01740000  0.16680000  0.11730000  1.0 0.1295391472
H  H148  1  0.03180000  0.24180000  0.11360000  1.0 0.117923499
H  H149  1  0.05400000  0.28000000  0.16850000  1.0 0.1295391472
H  H150  1  0.04730000  0.16820000  0.23080000  1.0 0.1350285393
H  H151  1  0.21840000  0.35410000  0.32540000  1.0 0.1295391472
H  H152  1  0.28260000  0.36370000  0.36100000  1.0 0.1089153956
H  H153  1  0.30270000  0.31200000  0.40740000  1.0 0.117923499
H  H154  1  0.19440000  0.24110000  0.38240000  1.0 0.1350285393
H  H155  1  0.00540000  0.40950000  0.32430000  1.0 0.1295391472
H  H156  1  0.95210000  0.45060000  0.35620000  1.0 0.117923499
H  H157  1  0.90820000  0.41780000  0.40320000  1.0 0.117923499
H  H158  1  0.97100000  0.30270000  0.38630000  1.0 0.1295391472
H  H159  1  0.98040000  0.37330000  0.46140000  1.0 0.1295391472
H  H160  1  0.86840000  0.32010000  0.35510000  1.0 0.1295391472
H  H161  1  0.79630000  0.28560000  0.35530000  1.0 0.1295391472
H  H162  1  0.68560000  0.23160000  0.46390000  1.0 0.117923499
H  H163  1  0.84070000  0.94150000  0.17820000  1.0 0.1295391472
H  H164  1  0.88490000  0.87570000  0.17720000  1.0 0.1295391472
H  H165  1  0.98260000  0.83320000  0.11730000  1.0 0.1295391472
H  H166  1  0.96820000  0.75820000  0.11360000  1.0 0.117923499
H  H167  1  0.94600000  0.72000000  0.16850000  1.0 0.1295391472
H  H168  1  0.95270000  0.83180000  0.23080000  1.0 0.1295391472
H  H169  1  0.78160000  0.64590000  0.32540000  1.0 0.1295391472
H  H170  1  0.71740000  0.63630000  0.36100000  1.0 0.1089153956
H  H171  1  0.69730000  0.68800000  0.40740000  1.0 0.117923499
H  H172  1  0.80560000  0.75890000  0.38240000  1.0 0.1295391472
H  H173  1  0.99460000  0.59050000  0.32430000  1.0 0.1295391472
H  H174  1  0.04790000  0.54940000  0.35620000  1.0 0.117923499
H  H175  1  0.09180000  0.58220000  0.40320000  1.0 0.117923499
H  H176  1  0.02900000  0.69730000  0.38630000  1.0 0.1295391472
H  H177  1  0.01960000  0.62670000  0.46140000  1.0 0.1295391472
H  H178  1  0.13160000  0.67990000  0.35510000  1.0 0.1295391472
H  H179  1  0.20370000  0.71440000  0.35530000  1.0 0.1295391472
H  H180  1  0.31440000  0.76840000  0.46390000  1.0 0.117923499
H  H181  1  0.94150000  0.15930000  0.17820000  1.0 0.1295391472
H  H182  1  0.87570000  0.11510000  0.17720000  1.0 0.1295391472
H  H183  1  0.83320000  0.01740000  0.11730000  1.0 0.1295391472
H  H184  1  0.75820000  0.03180000  0.11360000  1.0 0.117923499
H  H185  1  0.72000000  0.05400000  0.16850000  1.0 0.1295391472
H  H186  1  0.83180000  0.04730000  0.23080000  1.0 0.1350285393
H  H187  1  0.64590000  0.21840000  0.32540000  1.0 0.1295391472
H  H188  1  0.63630000  0.28260000  0.36100000  1.0 0.1089153956
H  H189  1  0.68800000  0.30270000  0.40740000  1.0 0.117923499
H  H190  1  0.75890000  0.19440000  0.38240000  1.0 0.1295391472
H  H191  1  0.59050000  0.00540000  0.32430000  1.0 0.1295391472
H  H192  1  0.54940000  0.95210000  0.35620000  1.0 0.117923499
H  H193  1  0.58220000  0.90820000  0.40320000  1.0 0.117923499
H  H194  1  0.69730000  0.97100000  0.38630000  1.0 0.1295391472
H  H195  1  0.62670000  0.98040000  0.46140000  1.0 0.1295391472
H  H196  1  0.67990000  0.86840000  0.35510000  1.0 0.1295391472
H  H197  1  0.71440000  0.79630000  0.35530000  1.0 0.1295391472
H  H198  1  0.76840000  0.68560000  0.46390000  1.0 0.117923499
H  H199  1  0.05850000  0.84070000  0.17820000  1.0 0.1295391472
H  H200  1  0.12430000  0.88490000  0.17720000  1.0 0.1295391472
H  H201  1  0.16680000  0.98260000  0.11730000  1.0 0.1295391472
H  H202  1  0.24180000  0.96820000  0.11360000  1.0 0.117923499
H  H203  1  0.28000000  0.94600000  0.16850000  1.0 0.1295391472
H  H204  1  0.16820000  0.95270000  0.23080000  1.0 0.1295391472
H  H205  1  0.35410000  0.78160000  0.32540000  1.0 0.1295391472
H  H206  1  0.36370000  0.71740000  0.36100000  1.0 0.1089153956
H  H207  1  0.31200000  0.69730000  0.40740000  1.0 0.117923499
H  H208  1  0.24110000  0.80560000  0.38240000  1.0 0.1295391472
H  H209  1  0.40950000  0.99460000  0.32430000  1.0 0.1295391472
H  H210  1  0.45060000  0.04790000  0.35620000  1.0 0.1089153956
H  H211  1  0.41780000  0.09180000  0.40320000  1.0 0.117923499
H  H212  1  0.30270000  0.02900000  0.38630000  1.0 0.1295391472
H  H213  1  0.37330000  0.01960000  0.46140000  1.0 0.1295391472
H  H214  1  0.32010000  0.13160000  0.35510000  1.0 0.1295391472
H  H215  1  0.28560000  0.20370000  0.35530000  1.0 0.1295391472
H  H216  1  0.23160000  0.31440000  0.46390000  1.0 0.117923499
H  H217  1  0.34070000  0.55850000  0.32180000  1.0 0.1295391472
H  H218  1  0.38490000  0.62430000  0.32280000  1.0 0.1295391472
H  H219  1  0.48260000  0.66680000  0.38270000  1.0 0.1295391472
H  H220  1  0.46820000  0.74180000  0.38640000  1.0 0.117923499
H  H221  1  0.44600000  0.78000000  0.33150000  1.0 0.1295391472
H  H222  1  0.45270000  0.66820000  0.26920000  1.0 0.1350285393
H  H223  1  0.28160000  0.85410000  0.17460000  1.0 0.1295391472
H  H224  1  0.21740000  0.86370000  0.13900000  1.0 0.1089153956
H  H225  1  0.19730000  0.81200000  0.09260000  1.0 0.117923499
H  H226  1  0.30560000  0.74110000  0.11760000  1.0 0.1350285393
H  H227  1  0.49460000  0.90950000  0.17570000  1.0 0.1295391472
H  H228  1  0.54790000  0.95060000  0.14380000  1.0 0.1089153956
H  H229  1  0.59180000  0.91780000  0.09680000  1.0 0.117923499
H  H230  1  0.52900000  0.80270000  0.11370000  1.0 0.1295391472
H  H231  1  0.51960000  0.87330000  0.03860000  1.0 0.1295391472
H  H232  1  0.63160000  0.82010000  0.14490000  1.0 0.1295391472
H  H233  1  0.70370000  0.78560000  0.14470000  1.0 0.1295391472
H  H234  1  0.81440000  0.73160000  0.03610000  1.0 0.117923499
H  H235  1  0.65930000  0.44150000  0.32180000  1.0 0.1295391472
H  H236  1  0.61510000  0.37570000  0.32280000  1.0 0.1295391472
H  H237  1  0.51740000  0.33320000  0.38270000  1.0 0.1295391472
H  H238  1  0.53180000  0.25820000  0.38640000  1.0 0.117923499
H  H239  1  0.55400000  0.22000000  0.33150000  1.0 0.1295391472
H  H240  1  0.54730000  0.33180000  0.26920000  1.0 0.1350285393
H  H241  1  0.71840000  0.14590000  0.17460000  1.0 0.1295391472
H  H242  1  0.78260000  0.13630000  0.13900000  1.0 0.1089153956
H  H243  1  0.80270000  0.18800000  0.09260000  1.0 0.117923499
H  H244  1  0.69440000  0.25890000  0.11760000  1.0 0.1295391472
H  H245  1  0.50540000  0.09050000  0.17570000  1.0 0.1295391472
H  H246  1  0.45210000  0.04940000  0.14380000  1.0 0.1089153956
H  H247  1  0.40820000  0.08220000  0.09680000  1.0 0.117923499
H  H248  1  0.47100000  0.19730000  0.11370000  1.0 0.1295391472
H  H249  1  0.48040000  0.12670000  0.03860000  1.0 0.1295391472
H  H250  1  0.36840000  0.17990000  0.14490000  1.0 0.1295391472
H  H251  1  0.29630000  0.21440000  0.14470000  1.0 0.1295391472
H  H252  1  0.18560000  0.26840000  0.03610000  1.0 0.117923499
H  H253  1  0.55850000  0.65930000  0.32180000  1.0 0.1295391472
H  H254  1  0.62430000  0.61510000  0.32280000  1.0 0.1295391472
H  H255  1  0.66680000  0.51740000  0.38270000  1.0 0.1295391472
H  H256  1  0.74180000  0.53180000  0.38640000  1.0 0.117923499
H  H257  1  0.78000000  0.55400000  0.33150000  1.0 0.1295391472
H  H258  1  0.66820000  0.54730000  0.26920000  1.0 0.1295391472
H  H259  1  0.85410000  0.71840000  0.17460000  1.0 0.1295391472
H  H260  1  0.86370000  0.78260000  0.13900000  1.0 0.1089153956
H  H261  1  0.81200000  0.80270000  0.09260000  1.0 0.117923499
H  H262  1  0.74110000  0.69440000  0.11760000  1.0 0.1295391472
H  H263  1  0.90950000  0.50540000  0.17570000  1.0 0.1295391472
H  H264  1  0.95060000  0.45210000  0.14380000  1.0 0.1089153956
H  H265  1  0.91780000  0.40820000  0.09680000  1.0 0.117923499
H  H266  1  0.80270000  0.47100000  0.11370000  1.0 0.1295391472
H  H267  1  0.87330000  0.48040000  0.03860000  1.0 0.1295391472
H  H268  1  0.82010000  0.36840000  0.14490000  1.0 0.1295391472
H  H269  1  0.78560000  0.29630000  0.14470000  1.0 0.1295391472
H  H270  1  0.73160000  0.18560000  0.03610000  1.0 0.117923499
H  H271  1  0.44150000  0.34070000  0.32180000  1.0 0.1295391472
H  H272  1  0.37570000  0.38490000  0.32280000  1.0 0.1295391472
H  H273  1  0.33320000  0.48260000  0.38270000  1.0 0.1295391472
H  H274  1  0.25820000  0.46820000  0.38640000  1.0 0.117923499
H  H275  1  0.22000000  0.44600000  0.33150000  1.0 0.1295391472
H  H276  1  0.33180000  0.45270000  0.26920000  1.0 0.1350285393
H  H277  1  0.14590000  0.28160000  0.17460000  1.0 0.1295391472
H  H278  1  0.13630000  0.21740000  0.13900000  1.0 0.1089153956
H  H279  1  0.18800000  0.19730000  0.09260000  1.0 0.117923499
H  H280  1  0.25890000  0.30560000  0.11760000  1.0 0.1350285393
H  H281  1  0.09050000  0.49460000  0.17570000  1.0 0.1295391472
H  H282  1  0.04940000  0.54790000  0.14380000  1.0 0.1089153956
H  H283  1  0.08220000  0.59180000  0.09680000  1.0 0.117923499
H  H284  1  0.19730000  0.52900000  0.11370000  1.0 0.1295391472
H  H285  1  0.12670000  0.51960000  0.03860000  1.0 0.1295391472
H  H286  1  0.17990000  0.63160000  0.14490000  1.0 0.1295391472
H  H287  1  0.21440000  0.70370000  0.14470000  1.0 0.1295391472
H  H288  1  0.26840000  0.81440000  0.03610000  1.0 0.117923499
H  H289  1  0.96900000  0.82330000  0.59540000  0.45 0.1089153956
H  H290  1  0.96410000  0.82480000  0.52830000  0.45 0.1089153956
H  H291  1  0.91520000  0.70170000  0.52890000  0.45 0.1295391472
H  H292  1  0.92020000  0.70010000  0.59600000  0.45 0.103835351
H  H293  1  0.03100000  0.17670000  0.59540000  0.45 0.1089153956
H  H294  1  0.03590000  0.17520000  0.52830000  0.45 0.1089153956
H  H295  1  0.08480000  0.29830000  0.52890000  0.45 0.1295391472
H  H296  1  0.07980000  0.29990000  0.59600000  0.45 0.103835351
H  H297  1  0.17670000  0.96900000  0.59540000  0.45 0.1089153956
H  H298  1  0.17520000  0.96410000  0.52830000  0.45 0.1089153956
H  H299  1  0.29830000  0.91520000  0.52890000  0.45 0.1295391472
H  H300  1  0.29990000  0.92020000  0.59600000  0.45 0.103835351
H  H301  1  0.82330000  0.03100000  0.59540000  0.45 0.1089153956
H  H302  1  0.82480000  0.03590000  0.52830000  0.45 0.1089153956
H  H303  1  0.70170000  0.08480000  0.52890000  0.45 0.1295391472
H  H304  1  0.70010000  0.07980000  0.59600000  0.45 0.103835351
H  H305  1  0.53100000  0.32330000  0.90460000  0.45 0.1089153956
H  H306  1  0.53590000  0.32480000  0.97170000  0.45 0.1089153956
H  H307  1  0.58480000  0.20170000  0.97110000  0.45 0.1295391472
H  H308  1  0.57980000  0.20010000  0.90400000  0.45 0.103835351
H  H309  1  0.46900000  0.67670000  0.90460000  0.45 0.1089153956
H  H310  1  0.46410000  0.67520000  0.97170000  0.45 0.1089153956
H  H311  1  0.41520000  0.79830000  0.97110000  0.45 0.1295391472
H  H312  1  0.42020000  0.79990000  0.90400000  0.45 0.103835351
H  H313  1  0.32330000  0.46900000  0.90460000  0.45 0.1089153956
H  H314  1  0.32480000  0.46410000  0.97170000  0.45 0.1089153956
H  H315  1  0.20170000  0.41520000  0.97110000  0.45 0.1295391472
H  H316  1  0.20010000  0.42020000  0.90400000  0.45 0.103835351
H  H317  1  0.67670000  0.53100000  0.90460000  0.45 0.1089153956
H  H318  1  0.67520000  0.53590000  0.97170000  0.45 0.1089153956
H  H319  1  0.79830000  0.58480000  0.97110000  0.45 0.1295391472
H  H320  1  0.79990000  0.57980000  0.90400000  0.45 0.103835351
H  H321  1  0.03100000  0.17670000  0.40460000  0.45 0.1089153956
H  H322  1  0.03590000  0.17520000  0.47170000  0.45 0.1089153956
H  H323  1  0.08480000  0.29830000  0.47110000  0.45 0.1295391472
H  H324  1  0.07980000  0.29990000  0.40400000  0.45 0.103835351
H  H325  1  0.96900000  0.82330000  0.40460000  0.45 0.1089153956
H  H326  1  0.96410000  0.82480000  0.47170000  0.45 0.1089153956
H  H327  1  0.91520000  0.70170000  0.47110000  0.45 0.1295391472
H  H328  1  0.92020000  0.70010000  0.40400000  0.45 0.103835351
H  H329  1  0.82330000  0.03100000  0.40460000  0.45 0.1089153956
H  H330  1  0.82480000  0.03590000  0.47170000  0.45 0.1089153956
H  H331  1  0.70170000  0.08480000  0.47110000  0.45 0.1295391472
H  H332  1  0.70010000  0.07980000  0.40400000  0.45 0.103835351
H  H333  1  0.17670000  0.96900000  0.40460000  0.45 0.1089153956
H  H334  1  0.17520000  0.96410000  0.47170000  0.45 0.1089153956
H  H335  1  0.29830000  0.91520000  0.47110000  0.45 0.1295391472
H  H336  1  0.29990000  0.92020000  0.40400000  0.45 0.103835351
H  H337  1  0.46900000  0.67670000  0.09540000  0.45 0.1089153956
H  H338  1  0.46410000  0.67520000  0.02830000  0.45 0.1089153956
H  H339  1  0.41520000  0.79830000  0.02890000  0.45 0.1295391472
H  H340  1  0.42020000  0.79990000  0.09600000  0.45 0.103835351
H  H341  1  0.53100000  0.32330000  0.09540000  0.45 0.1089153956
H  H342  1  0.53590000  0.32480000  0.02830000  0.45 0.1089153956
H  H343  1  0.58480000  0.20170000  0.02890000  0.45 0.1295391472
H  H344  1  0.57980000  0.20010000  0.09600000  0.45 0.103835351
H  H345  1  0.67670000  0.53100000  0.09540000  0.45 0.1089153956
H  H346  1  0.67520000  0.53590000  0.02830000  0.45 0.1089153956
H  H347  1  0.79830000  0.58480000  0.02890000  0.45 0.1295391472
H  H348  1  0.79990000  0.57980000  0.09600000  0.45 0.103835351
H  H349  1  0.32330000  0.46900000  0.09540000  0.45 0.1089153956
H  H350  1  0.32480000  0.46410000  0.02830000  0.45 0.1089153956
H  H351  1  0.20170000  0.41520000  0.02890000  0.45 0.1295391472
H  H352  1  0.20010000  0.42020000  0.09600000  0.45 0.103835351
H  H353  1  0.97130000  0.05590000  0.90520000  0.5 0.1089153956
H  H354  1  0.96610000  0.05520000  0.97020000  0.5 0.103835351
H  H355  1  0.02870000  0.94410000  0.90520000  0.5 0.1089153956
H  H356  1  0.03390000  0.94480000  0.97020000  0.5 0.103835351
H  H357  1  0.94410000  0.97130000  0.90520000  0.5 0.1089153956
H  H358  1  0.94480000  0.96610000  0.97020000  0.5 0.103835351
H  H359  1  0.05590000  0.02870000  0.90520000  0.5 0.1089153956
H  H360  1  0.05520000  0.03390000  0.97020000  0.5 0.103835351
H  H361  1  0.52870000  0.55590000  0.59480000  0.5 0.1089153956
H  H362  1  0.53390000  0.55520000  0.52980000  0.5 0.103835351
H  H363  1  0.47130000  0.44410000  0.59480000  0.5 0.1089153956
H  H364  1  0.46610000  0.44480000  0.52980000  0.5 0.103835351
H  H365  1  0.55590000  0.47130000  0.59480000  0.5 0.1089153956
H  H366  1  0.55520000  0.46610000  0.52980000  0.5 0.103835351
H  H367  1  0.44410000  0.52870000  0.59480000  0.5 0.1089153956
H  H368  1  0.44480000  0.53390000  0.52980000  0.5 0.103835351
H  H369  1  0.02870000  0.94410000  0.09480000  0.5 0.1089153956
H  H370  1  0.03390000  0.94480000  0.02980000  0.5 0.103835351
H  H371  1  0.97130000  0.05590000  0.09480000  0.5 0.103835351
H  H372  1  0.96610000  0.05520000  0.02980000  0.5 0.103835351
H  H373  1  0.05590000  0.02870000  0.09480000  0.5 0.1089153956
H  H374  1  0.05520000  0.03390000  0.02980000  0.5 0.103835351
H  H375  1  0.94410000  0.97130000  0.09480000  0.5 0.1089153956
H  H376  1  0.94480000  0.96610000  0.02980000  0.5 0.103835351
H  H377  1  0.47130000  0.44410000  0.40520000  0.5 0.1089153956
H  H378  1  0.46610000  0.44480000  0.47020000  0.5 0.103835351
H  H379  1  0.52870000  0.55590000  0.40520000  0.5 0.1089153956
H  H380  1  0.53390000  0.55520000  0.47020000  0.5 0.103835351
H  H381  1  0.44410000  0.52870000  0.40520000  0.5 0.1089153956
H  H382  1  0.44480000  0.53390000  0.47020000  0.5 0.103835351
H  H383  1  0.55590000  0.47130000  0.40520000  0.5 0.1089153956
H  H384  1  0.55520000  0.46610000  0.47020000  0.5 0.103835351
C  C1  1  0.90330000  0.97870000  0.82396000  1.0 0.2242273652
C  C2  1  0.87130000  0.94010000  0.82270000  1.0 -0.179882605
C  C3  1  0.89580000  0.90430000  0.82330000  1.0 -0.179882605
C  C4  1  0.94260000  0.91600000  0.82486000  1.0 0.1695583278
C  C5  1  0.97730000  0.88900000  0.82504000  1.0 -0.1014316445
C  C6  1  0.96910000  0.83993000  0.82561000  1.0 0.0877342076
C  C7  1  0.97370000  0.81790000  0.86073000  1.0 -0.1589891705
C  C8  1  0.96510000  0.77296000  0.86294000  1.0 -0.1014316445
C  C9  1  0.95180000  0.75005000  0.83003000  1.0 -0.1014316445
C  C10  1  0.94717000  0.77208000  0.79491000  1.0 -0.0501949977
C  C11  1  0.95583000  0.81702000  0.79270000  1.0 -0.1504846409
C  C12  1  0.93250000  0.74700000  0.76060000  1.0 0.5916278374
C  C13  1  0.84440000  0.70520000  0.67210000  1.0 0.5490370822
C  C14  1  0.80000000  0.70330000  0.64962000  1.0 0.0076862568
C  C15  1  0.77350000  0.66666667  0.65600000  1.0 -0.1155820283
C  C16  1  0.73510000  0.66080000  0.63470000  1.0 -0.0935436663
C  C17  1  0.72310000  0.69180000  0.60690000  1.0 -0.1504846409
C  C18  1  0.74950000  0.72850000  0.60049000  1.0 0.0821704833
C  C19  1  0.78790000  0.73429000  0.62190000  1.0 -0.1504846409
C  C20  1  0.97200000  0.67420000  0.66700000  1.0 0.5608123821
C  C21  1  0.00650000  0.64800000  0.64790000  1.0 -0.0412947632
C  C22  1  0.01220000  0.60370000  0.65690000  1.0 -0.1014316445
C  C23  1  0.04410000  0.57900000  0.63780000  1.0 -0.1014316445
C  C24  1  0.07040000  0.59870000  0.60960000  1.0 -0.1392794634
C  C25  1  0.06470000  0.64300000  0.60060000  1.0 0.0877342076
C  C26  1  0.03280000  0.66760000  0.61970000  1.0 -0.1504846409
C  C27  1  0.04110000  0.63770000  0.52200000  1.0 -0.1989840262
C  C28  1  0.08190000  0.65830000  0.53220000  1.0 0.2019494042
C  C29  1  0.09560000  0.66480000  0.57050000  1.0 -0.0935436663
C  C30  1  0.13470000  0.68100000  0.58250000  1.0 0.1804502673
C  C31  1  0.14770000  0.68800000  0.62310000  1.0 -0.179882605
C  C32  1  0.18670000  0.70830000  0.62290000  1.0 -0.188734684
C  C33  1  0.19840000  0.71920000  0.58300000  1.0 0.2019494042
C  C34  1  0.23590000  0.74010000  0.57100000  1.0 -0.0799380903
C  C35  1  0.24950000  0.74580000  0.53160000  1.0 0.159617575
C  C36  1  0.29120000  0.76030000  0.52000000  1.0 -0.1989840262
C  C37  1  0.09670000  0.02130000  0.82396000  1.0 0.2242273652
C  C38  1  0.12870000  0.05990000  0.82270000  1.0 -0.179882605
C  C39  1  0.10420000  0.09570000  0.82330000  1.0 -0.179882605
C  C40  1  0.05740000  0.08400000  0.82486000  1.0 0.1695583278
C  C41  1  0.02270000  0.11100000  0.82504000  1.0 -0.1014316445
C  C42  1  0.03090000  0.16007000  0.82561000  1.0 0.0877342076
C  C43  1  0.02630000  0.18210000  0.86073000  1.0 -0.1589891705
C  C44  1  0.03490000  0.22704000  0.86294000  1.0 -0.1014316445
C  C45  1  0.04820000  0.24995000  0.83003000  1.0 -0.107167982
C  C46  1  0.05283000  0.22792000  0.79491000  1.0 -0.0501949977
C  C47  1  0.04417000  0.18298000  0.79270000  1.0 -0.1504846409
C  C48  1  0.06750000  0.25300000  0.76060000  1.0 0.5916278374
C  C49  1  0.15560000  0.29480000  0.67210000  1.0 0.5490370822
C  C50  1  0.20000000  0.29670000  0.64962000  1.0 0.0076862568
C  C51  1  0.22650000  0.33333333  0.65600000  1.0 -0.1155820283
C  C52  1  0.26490000  0.33920000  0.63470000  1.0 -0.0935436663
C  C53  1  0.27690000  0.30820000  0.60690000  1.0 -0.1504846409
C  C54  1  0.25050000  0.27150000  0.60049000  1.0 0.0821704833
C  C55  1  0.21210000  0.26571000  0.62190000  1.0 -0.1504846409
C  C56  1  0.02800000  0.32580000  0.66700000  1.0 0.5608123821
C  C57  1  0.99350000  0.35200000  0.64790000  1.0 -0.0412947632
C  C58  1  0.98780000  0.39630000  0.65690000  1.0 -0.1014316445
C  C59  1  0.95590000  0.42100000  0.63780000  1.0 -0.1014316445
C  C60  1  0.92960000  0.40130000  0.60960000  1.0 -0.1392794634
C  C61  1  0.93530000  0.35700000  0.60060000  1.0 0.0877342076
C  C62  1  0.96720000  0.33240000  0.61970000  1.0 -0.1504846409
C  C63  1  0.95890000  0.36230000  0.52200000  1.0 -0.1989840262
C  C64  1  0.91810000  0.34170000  0.53220000  1.0 0.2019494042
C  C65  1  0.90440000  0.33520000  0.57050000  1.0 -0.0935436663
C  C66  1  0.86530000  0.31900000  0.58250000  1.0 0.1804502673
C  C67  1  0.85230000  0.31200000  0.62310000  1.0 -0.179882605
C  C68  1  0.81330000  0.29170000  0.62290000  1.0 -0.188734684
C  C69  1  0.80160000  0.28080000  0.58300000  1.0 0.2019494042
C  C70  1  0.76410000  0.25990000  0.57100000  1.0 -0.0799380903
C  C71  1  0.75050000  0.25420000  0.53160000  1.0 0.159617575
C  C72  1  0.70880000  0.23970000  0.52000000  1.0 -0.1989840262
C  C73  1  0.02130000  0.90330000  0.82396000  1.0 0.2242273652
C  C74  1  0.05990000  0.87130000  0.82270000  1.0 -0.179882605
C  C75  1  0.09570000  0.89580000  0.82330000  1.0 -0.179882605
C  C76  1  0.08400000  0.94260000  0.82486000  1.0 0.1695583278
C  C77  1  0.11100000  0.97730000  0.82504000  1.0 -0.1014316445
C  C78  1  0.16007000  0.96910000  0.82561000  1.0 0.0877342076
C  C79  1  0.18210000  0.97370000  0.86073000  1.0 -0.1589891705
C  C80  1  0.22704000  0.96510000  0.86294000  1.0 -0.1014316445
C  C81  1  0.24995000  0.95180000  0.83003000  1.0 -0.107167982
C  C82  1  0.22792000  0.94717000  0.79491000  1.0 -0.0501949977
C  C83  1  0.18298000  0.95583000  0.79270000  1.0 -0.1504846409
C  C84  1  0.25300000  0.93250000  0.76060000  1.0 0.5916278374
C  C85  1  0.29480000  0.84440000  0.67210000  1.0 0.5490370822
C  C86  1  0.29670000  0.80000000  0.64962000  1.0 0.0076862568
C  C87  1  0.33333333  0.77350000  0.65600000  1.0 -0.1155820283
C  C88  1  0.33920000  0.73510000  0.63470000  1.0 -0.0935436663
C  C89  1  0.30820000  0.72310000  0.60690000  1.0 -0.1504846409
C  C90  1  0.27150000  0.74950000  0.60049000  1.0 0.0821704833
C  C91  1  0.26571000  0.78790000  0.62190000  1.0 -0.1504846409
C  C92  1  0.32580000  0.97200000  0.66700000  1.0 0.5608123821
C  C93  1  0.35200000  0.00650000  0.64790000  1.0 -0.0412947632
C  C94  1  0.39630000  0.01220000  0.65690000  1.0 -0.1014316445
C  C95  1  0.42100000  0.04410000  0.63780000  1.0 -0.1014316445
C  C96  1  0.40130000  0.07040000  0.60960000  1.0 -0.1392794634
C  C97  1  0.35700000  0.06470000  0.60060000  1.0 0.0877342076
C  C98  1  0.33240000  0.03280000  0.61970000  1.0 -0.1504846409
C  C99  1  0.36230000  0.04110000  0.52200000  1.0 -0.1989840262
C  C100  1  0.34170000  0.08190000  0.53220000  1.0 0.2019494042
C  C101  1  0.33520000  0.09560000  0.57050000  1.0 -0.0935436663
C  C102  1  0.31900000  0.13470000  0.58250000  1.0 0.1804502673
C  C103  1  0.31200000  0.14770000  0.62310000  1.0 -0.179882605
C  C104  1  0.29170000  0.18670000  0.62290000  1.0 -0.188734684
C  C105  1  0.28080000  0.19840000  0.58300000  1.0 0.2019494042
C  C106  1  0.25990000  0.23590000  0.57100000  1.0 -0.0799380903
C  C107  1  0.25420000  0.24950000  0.53160000  1.0 0.159617575
C  C108  1  0.23970000  0.29120000  0.52000000  1.0 -0.1989840262
C  C109  1  0.97870000  0.09670000  0.82396000  1.0 0.2242273652
C  C110  1  0.94010000  0.12870000  0.82270000  1.0 -0.179882605
C  C111  1  0.90430000  0.10420000  0.82330000  1.0 -0.179882605
C  C112  1  0.91600000  0.05740000  0.82486000  1.0 0.1695583278
C  C113  1  0.88900000  0.02270000  0.82504000  1.0 -0.1014316445
C  C114  1  0.83993000  0.03090000  0.82561000  1.0 0.0877342076
C  C115  1  0.81790000  0.02630000  0.86073000  1.0 -0.1589891705
C  C116  1  0.77296000  0.03490000  0.86294000  1.0 -0.1014316445
C  C117  1  0.75005000  0.04820000  0.83003000  1.0 -0.107167982
C  C118  1  0.77208000  0.05283000  0.79491000  1.0 -0.0501949977
C  C119  1  0.81702000  0.04417000  0.79270000  1.0 -0.1504846409
C  C120  1  0.74700000  0.06750000  0.76060000  1.0 0.5916278374
C  C121  1  0.70520000  0.15560000  0.67210000  1.0 0.5490370822
C  C122  1  0.70330000  0.20000000  0.64962000  1.0 0.0076862568
C  C123  1  0.66666667  0.22650000  0.65600000  1.0 -0.1155820283
C  C124  1  0.66080000  0.26490000  0.63470000  1.0 -0.0935436663
C  C125  1  0.69180000  0.27690000  0.60690000  1.0 -0.1504846409
C  C126  1  0.72850000  0.25050000  0.60049000  1.0 0.0821704833
C  C127  1  0.73429000  0.21210000  0.62190000  1.0 -0.1504846409
C  C128  1  0.67420000  0.02800000  0.66700000  1.0 0.5608123821
C  C129  1  0.64800000  0.99350000  0.64790000  1.0 -0.0412947632
C  C130  1  0.60370000  0.98780000  0.65690000  1.0 -0.1014316445
C  C131  1  0.57900000  0.95590000  0.63780000  1.0 -0.1014316445
C  C132  1  0.59870000  0.92960000  0.60960000  1.0 -0.1392794634
C  C133  1  0.64300000  0.93530000  0.60060000  1.0 0.0877342076
C  C134  1  0.66760000  0.96720000  0.61970000  1.0 -0.1504846409
C  C135  1  0.63770000  0.95890000  0.52200000  1.0 -0.1989840262
C  C136  1  0.65830000  0.91810000  0.53220000  1.0 0.2019494042
C  C137  1  0.66480000  0.90440000  0.57050000  1.0 -0.0935436663
C  C138  1  0.68100000  0.86530000  0.58250000  1.0 0.1804502673
C  C139  1  0.68800000  0.85230000  0.62310000  1.0 -0.179882605
C  C140  1  0.70830000  0.81330000  0.62290000  1.0 -0.188734684
C  C141  1  0.71920000  0.80160000  0.58300000  1.0 0.2019494042
C  C142  1  0.74010000  0.76410000  0.57100000  1.0 -0.0799380903
C  C143  1  0.74580000  0.75050000  0.53160000  1.0 0.159617575
C  C144  1  0.76030000  0.70880000  0.52000000  1.0 -0.1989840262
C  C145  1  0.59670000  0.47870000  0.67604000  1.0 0.2242273652
C  C146  1  0.62870000  0.44010000  0.67730000  1.0 -0.179882605
C  C147  1  0.60420000  0.40430000  0.67670000  1.0 -0.179882605
C  C148  1  0.55740000  0.41600000  0.67514000  1.0 0.1695583278
C  C149  1  0.52270000  0.38900000  0.67496000  1.0 -0.1014316445
C  C150  1  0.53090000  0.33993000  0.67439000  1.0 0.0877342076
C  C151  1  0.52630000  0.31790000  0.63927000  1.0 -0.1589891705
C  C152  1  0.53490000  0.27296000  0.63706000  1.0 -0.1014316445
C  C153  1  0.54820000  0.25005000  0.66997000  1.0 -0.1014316445
C  C154  1  0.55283000  0.27208000  0.70509000  1.0 -0.0501949977
C  C155  1  0.54417000  0.31702000  0.70730000  1.0 -0.1504846409
C  C156  1  0.56750000  0.24700000  0.73940000  1.0 0.5916278374
C  C157  1  0.65560000  0.20520000  0.82790000  1.0 0.5490370822
C  C158  1  0.70000000  0.20330000  0.85038000  1.0 0.0076862568
C  C159  1  0.72650000  0.16667000  0.84400000  1.0 -0.107167982
C  C160  1  0.76490000  0.16080000  0.86530000  1.0 -0.0935436663
C  C161  1  0.77690000  0.19180000  0.89310000  1.0 -0.1504846409
C  C162  1  0.75050000  0.22850000  0.89951000  1.0 0.0821704833
C  C163  1  0.71210000  0.23429000  0.87810000  1.0 -0.1589891705
C  C164  1  0.52800000  0.17420000  0.83300000  1.0 0.5608123821
C  C165  1  0.49350000  0.14800000  0.85210000  1.0 -0.0412947632
C  C166  1  0.48780000  0.10370000  0.84310000  1.0 -0.1014316445
C  C167  1  0.45590000  0.07900000  0.86220000  1.0 -0.1014316445
C  C168  1  0.42960000  0.09870000  0.89040000  1.0 -0.1392794634
C  C169  1  0.43530000  0.14300000  0.89940000  1.0 0.0877342076
C  C170  1  0.46720000  0.16760000  0.88030000  1.0 -0.1504846409
C  C171  1  0.45890000  0.13770000  0.97800000  1.0 -0.1989840262
C  C172  1  0.41810000  0.15830000  0.96780000  1.0 0.2019494042
C  C173  1  0.40440000  0.16480000  0.92950000  1.0 -0.0935436663
C  C174  1  0.36530000  0.18100000  0.91750000  1.0 0.1804502673
C  C175  1  0.35230000  0.18800000  0.87690000  1.0 -0.179882605
C  C176  1  0.31330000  0.20830000  0.87710000  1.0 -0.188734684
C  C177  1  0.30160000  0.21920000  0.91700000  1.0 0.2019494042
C  C178  1  0.26410000  0.24010000  0.92900000  1.0 -0.0799380903
C  C179  1  0.25050000  0.24580000  0.96840000  1.0 0.159617575
C  C180  1  0.20880000  0.26030000  0.98000000  1.0 -0.1989840262
C  C181  1  0.40330000  0.52130000  0.67604000  1.0 0.2242273652
C  C182  1  0.37130000  0.55990000  0.67730000  1.0 -0.179882605
C  C183  1  0.39580000  0.59570000  0.67670000  1.0 -0.179882605
C  C184  1  0.44260000  0.58400000  0.67514000  1.0 0.1695583278
C  C185  1  0.47730000  0.61100000  0.67496000  1.0 -0.1014316445
C  C186  1  0.46910000  0.66007000  0.67439000  1.0 0.0877342076
C  C187  1  0.47370000  0.68210000  0.63927000  1.0 -0.1589891705
C  C188  1  0.46510000  0.72704000  0.63706000  1.0 -0.1014316445
C  C189  1  0.45180000  0.74995000  0.66997000  1.0 -0.107167982
C  C190  1  0.44717000  0.72792000  0.70509000  1.0 -0.0501949977
C  C191  1  0.45583000  0.68298000  0.70730000  1.0 -0.1504846409
C  C192  1  0.43250000  0.75300000  0.73940000  1.0 0.5916278374
C  C193  1  0.34440000  0.79480000  0.82790000  1.0 0.5490370822
C  C194  1  0.30000000  0.79670000  0.85038000  1.0 0.0076862568
C  C195  1  0.27350000  0.83333000  0.84400000  1.0 -0.1155820283
C  C196  1  0.23510000  0.83920000  0.86530000  1.0 -0.0935436663
C  C197  1  0.22310000  0.80820000  0.89310000  1.0 -0.1504846409
C  C198  1  0.24950000  0.77150000  0.89951000  1.0 0.0821704833
C  C199  1  0.28790000  0.76571000  0.87810000  1.0 -0.1589891705
C  C200  1  0.47200000  0.82580000  0.83300000  1.0 0.5608123821
C  C201  1  0.50650000  0.85200000  0.85210000  1.0 -0.0412947632
C  C202  1  0.51220000  0.89630000  0.84310000  1.0 -0.1014316445
C  C203  1  0.54410000  0.92100000  0.86220000  1.0 -0.1014316445
C  C204  1  0.57040000  0.90130000  0.89040000  1.0 -0.1392794634
C  C205  1  0.56470000  0.85700000  0.89940000  1.0 0.0877342076
C  C206  1  0.53280000  0.83240000  0.88030000  1.0 -0.1504846409
C  C207  1  0.54110000  0.86230000  0.97800000  1.0 -0.1989840262
C  C208  1  0.58190000  0.84170000  0.96780000  1.0 0.2019494042
C  C209  1  0.59560000  0.83520000  0.92950000  1.0 -0.0935436663
C  C210  1  0.63470000  0.81900000  0.91750000  1.0 0.1804502673
C  C211  1  0.64770000  0.81200000  0.87690000  1.0 -0.179882605
C  C212  1  0.68670000  0.79170000  0.87710000  1.0 -0.188734684
C  C213  1  0.69840000  0.78080000  0.91700000  1.0 0.2019494042
C  C214  1  0.73590000  0.75990000  0.92900000  1.0 -0.0799380903
C  C215  1  0.74950000  0.75420000  0.96840000  1.0 0.159617575
C  C216  1  0.79120000  0.73970000  0.98000000  1.0 -0.1989840262
C  C217  1  0.47870000  0.40330000  0.67604000  1.0 0.2242273652
C  C218  1  0.44010000  0.37130000  0.67730000  1.0 -0.179882605
C  C219  1  0.40430000  0.39580000  0.67670000  1.0 -0.179882605
C  C220  1  0.41600000  0.44260000  0.67514000  1.0 0.1695583278
C  C221  1  0.38900000  0.47730000  0.67496000  1.0 -0.1014316445
C  C222  1  0.33993000  0.46910000  0.67439000  1.0 0.0877342076
C  C223  1  0.31790000  0.47370000  0.63927000  1.0 -0.1589891705
C  C224  1  0.27296000  0.46510000  0.63706000  1.0 -0.1014316445
C  C225  1  0.25005000  0.45180000  0.66997000  1.0 -0.107167982
C  C226  1  0.27208000  0.44717000  0.70509000  1.0 -0.0501949977
C  C227  1  0.31702000  0.45583000  0.70730000  1.0 -0.1504846409
C  C228  1  0.24700000  0.43250000  0.73940000  1.0 0.5916278374
C  C229  1  0.20520000  0.34440000  0.82790000  1.0 0.5490370822
C  C230  1  0.20330000  0.30000000  0.85038000  1.0 0.0076862568
C  C231  1  0.16667000  0.27350000  0.84400000  1.0 -0.1155820283
C  C232  1  0.16080000  0.23510000  0.86530000  1.0 -0.0935436663
C  C233  1  0.19180000  0.22310000  0.89310000  1.0 -0.1504846409
C  C234  1  0.22850000  0.24950000  0.89951000  1.0 0.0821704833
C  C235  1  0.23429000  0.28790000  0.87810000  1.0 -0.1589891705
C  C236  1  0.17420000  0.47200000  0.83300000  1.0 0.5608123821
C  C237  1  0.14800000  0.50650000  0.85210000  1.0 -0.0412947632
C  C238  1  0.10370000  0.51220000  0.84310000  1.0 -0.1014316445
C  C239  1  0.07900000  0.54410000  0.86220000  1.0 -0.1014316445
C  C240  1  0.09870000  0.57040000  0.89040000  1.0 -0.1392794634
C  C241  1  0.14300000  0.56470000  0.89940000  1.0 0.0877342076
C  C242  1  0.16760000  0.53280000  0.88030000  1.0 -0.1504846409
C  C243  1  0.13770000  0.54110000  0.97800000  1.0 -0.1989840262
C  C244  1  0.15830000  0.58190000  0.96780000  1.0 0.2019494042
C  C245  1  0.16480000  0.59560000  0.92950000  1.0 -0.0935436663
C  C246  1  0.18100000  0.63470000  0.91750000  1.0 0.1804502673
C  C247  1  0.18800000  0.64770000  0.87690000  1.0 -0.179882605
C  C248  1  0.20830000  0.68670000  0.87710000  1.0 -0.188734684
C  C249  1  0.21920000  0.69840000  0.91700000  1.0 0.2019494042
C  C250  1  0.24010000  0.73590000  0.92900000  1.0 -0.0799380903
C  C251  1  0.24580000  0.74950000  0.96840000  1.0 0.159617575
C  C252  1  0.26030000  0.79120000  0.98000000  1.0 -0.1989840262
C  C253  1  0.52130000  0.59670000  0.67604000  1.0 0.2242273652
C  C254  1  0.55990000  0.62870000  0.67730000  1.0 -0.179882605
C  C255  1  0.59570000  0.60420000  0.67670000  1.0 -0.179882605
C  C256  1  0.58400000  0.55740000  0.67514000  1.0 0.1695583278
C  C257  1  0.61100000  0.52270000  0.67496000  1.0 -0.1014316445
C  C258  1  0.66007000  0.53090000  0.67439000  1.0 0.0877342076
C  C259  1  0.68210000  0.52630000  0.63927000  1.0 -0.1589891705
C  C260  1  0.72704000  0.53490000  0.63706000  1.0 -0.1014316445
C  C261  1  0.74995000  0.54820000  0.66997000  1.0 -0.107167982
C  C262  1  0.72792000  0.55283000  0.70509000  1.0 -0.0501949977
C  C263  1  0.68298000  0.54417000  0.70730000  1.0 -0.1504846409
C  C264  1  0.75300000  0.56750000  0.73940000  1.0 0.5916278374
C  C265  1  0.79480000  0.65560000  0.82790000  1.0 0.5490370822
C  C266  1  0.79670000  0.70000000  0.85038000  1.0 0.0076862568
C  C267  1  0.83333000  0.72650000  0.84400000  1.0 -0.107167982
C  C268  1  0.83920000  0.76490000  0.86530000  1.0 -0.0935436663
C  C269  1  0.80820000  0.77690000  0.89310000  1.0 -0.1504846409
C  C270  1  0.77150000  0.75050000  0.89951000  1.0 0.0821704833
C  C271  1  0.76571000  0.71210000  0.87810000  1.0 -0.1589891705
C  C272  1  0.82580000  0.52800000  0.83300000  1.0 0.5608123821
C  C273  1  0.85200000  0.49350000  0.85210000  1.0 -0.0412947632
C  C274  1  0.89630000  0.48780000  0.84310000  1.0 -0.1014316445
C  C275  1  0.92100000  0.45590000  0.86220000  1.0 -0.1014316445
C  C276  1  0.90130000  0.42960000  0.89040000  1.0 -0.1392794634
C  C277  1  0.85700000  0.43530000  0.89940000  1.0 0.0877342076
C  C278  1  0.83240000  0.46720000  0.88030000  1.0 -0.1504846409
C  C279  1  0.86230000  0.45890000  0.97800000  1.0 -0.1989840262
C  C280  1  0.84170000  0.41810000  0.96780000  1.0 0.2019494042
C  C281  1  0.83520000  0.40440000  0.92950000  1.0 -0.0935436663
C  C282  1  0.81900000  0.36530000  0.91750000  1.0 0.1804502673
C  C283  1  0.81200000  0.35230000  0.87690000  1.0 -0.179882605
C  C284  1  0.79170000  0.31330000  0.87710000  1.0 -0.188734684
C  C285  1  0.78080000  0.30160000  0.91700000  1.0 0.2019494042
C  C286  1  0.75990000  0.26410000  0.92900000  1.0 -0.0799380903
C  C287  1  0.75420000  0.25050000  0.96840000  1.0 0.159617575
C  C288  1  0.73970000  0.20880000  0.98000000  1.0 -0.1989840262
C  C289  1  0.09670000  0.02130000  0.17604000  1.0 0.2242273652
C  C290  1  0.12870000  0.05990000  0.17730000  1.0 -0.179882605
C  C291  1  0.10420000  0.09570000  0.17670000  1.0 -0.179882605
C  C292  1  0.05740000  0.08400000  0.17514000  1.0 0.1695583278
C  C293  1  0.02270000  0.11100000  0.17496000  1.0 -0.1014316445
C  C294  1  0.03090000  0.16007000  0.17439000  1.0 0.0877342076
C  C295  1  0.02630000  0.18210000  0.13927000  1.0 -0.1589891705
C  C296  1  0.03490000  0.22704000  0.13706000  1.0 -0.1014316445
C  C297  1  0.04820000  0.24995000  0.16997000  1.0 -0.107167982
C  C298  1  0.05283000  0.22792000  0.20509000  1.0 -0.0501949977
C  C299  1  0.04417000  0.18298000  0.20730000  1.0 -0.1504846409
C  C300  1  0.06750000  0.25300000  0.23940000  1.0 0.5916278374
C  C301  1  0.15560000  0.29480000  0.32790000  1.0 0.5490370822
C  C302  1  0.20000000  0.29670000  0.35038000  1.0 0.0076862568
C  C303  1  0.22650000  0.33333333  0.34400000  1.0 -0.1155820283
C  C304  1  0.26490000  0.33920000  0.36530000  1.0 -0.0935436663
C  C305  1  0.27690000  0.30820000  0.39310000  1.0 -0.1504846409
C  C306  1  0.25050000  0.27150000  0.39951000  1.0 0.0821704833
C  C307  1  0.21210000  0.26571000  0.37810000  1.0 -0.1504846409
C  C308  1  0.02800000  0.32580000  0.33300000  1.0 0.5608123821
C  C309  1  0.99350000  0.35200000  0.35210000  1.0 -0.0412947632
C  C310  1  0.98780000  0.39630000  0.34310000  1.0 -0.1014316445
C  C311  1  0.95590000  0.42100000  0.36220000  1.0 -0.1014316445
C  C312  1  0.92960000  0.40130000  0.39040000  1.0 -0.1392794634
C  C313  1  0.93530000  0.35700000  0.39940000  1.0 0.0877342076
C  C314  1  0.96720000  0.33240000  0.38030000  1.0 -0.1504846409
C  C315  1  0.95890000  0.36230000  0.47800000  1.0 -0.1989840262
C  C316  1  0.91810000  0.34170000  0.46780000  1.0 0.2019494042
C  C317  1  0.90440000  0.33520000  0.42950000  1.0 -0.0935436663
C  C318  1  0.86530000  0.31900000  0.41750000  1.0 0.1804502673
C  C319  1  0.85230000  0.31200000  0.37690000  1.0 -0.179882605
C  C320  1  0.81330000  0.29170000  0.37710000  1.0 -0.188734684
C  C321  1  0.80160000  0.28080000  0.41700000  1.0 0.2019494042
C  C322  1  0.76410000  0.25990000  0.42900000  1.0 -0.0799380903
C  C323  1  0.75050000  0.25420000  0.46840000  1.0 0.159617575
C  C324  1  0.70880000  0.23970000  0.48000000  1.0 -0.1989840262
C  C325  1  0.90330000  0.97870000  0.17604000  1.0 0.2242273652
C  C326  1  0.87130000  0.94010000  0.17730000  1.0 -0.179882605
C  C327  1  0.89580000  0.90430000  0.17670000  1.0 -0.179882605
C  C328  1  0.94260000  0.91600000  0.17514000  1.0 0.1695583278
C  C329  1  0.97730000  0.88900000  0.17496000  1.0 -0.1014316445
C  C330  1  0.96910000  0.83993000  0.17439000  1.0 0.0877342076
C  C331  1  0.97370000  0.81790000  0.13927000  1.0 -0.1589891705
C  C332  1  0.96510000  0.77296000  0.13706000  1.0 -0.1014316445
C  C333  1  0.95180000  0.75005000  0.16997000  1.0 -0.107167982
C  C334  1  0.94717000  0.77208000  0.20509000  1.0 -0.0501949977
C  C335  1  0.95583000  0.81702000  0.20730000  1.0 -0.1504846409
C  C336  1  0.93250000  0.74700000  0.23940000  1.0 0.5916278374
C  C337  1  0.84440000  0.70520000  0.32790000  1.0 0.5490370822
C  C338  1  0.80000000  0.70330000  0.35038000  1.0 0.0076862568
C  C339  1  0.77350000  0.66666667  0.34400000  1.0 -0.1155820283
C  C340  1  0.73510000  0.66080000  0.36530000  1.0 -0.0935436663
C  C341  1  0.72310000  0.69180000  0.39310000  1.0 -0.1504846409
C  C342  1  0.74950000  0.72850000  0.39951000  1.0 0.0821704833
C  C343  1  0.78790000  0.73429000  0.37810000  1.0 -0.1504846409
C  C344  1  0.97200000  0.67420000  0.33300000  1.0 0.5608123821
C  C345  1  0.00650000  0.64800000  0.35210000  1.0 -0.0412947632
C  C346  1  0.01220000  0.60370000  0.34310000  1.0 -0.1014316445
C  C347  1  0.04410000  0.57900000  0.36220000  1.0 -0.1014316445
C  C348  1  0.07040000  0.59870000  0.39040000  1.0 -0.1392794634
C  C349  1  0.06470000  0.64300000  0.39940000  1.0 0.0877342076
C  C350  1  0.03280000  0.66760000  0.38030000  1.0 -0.1504846409
C  C351  1  0.04110000  0.63770000  0.47800000  1.0 -0.1989840262
C  C352  1  0.08190000  0.65830000  0.46780000  1.0 0.2019494042
C  C353  1  0.09560000  0.66480000  0.42950000  1.0 -0.0935436663
C  C354  1  0.13470000  0.68100000  0.41750000  1.0 0.1804502673
C  C355  1  0.14770000  0.68800000  0.37690000  1.0 -0.179882605
C  C356  1  0.18670000  0.70830000  0.37710000  1.0 -0.188734684
C  C357  1  0.19840000  0.71920000  0.41700000  1.0 0.2019494042
C  C358  1  0.23590000  0.74010000  0.42900000  1.0 -0.0799380903
C  C359  1  0.24950000  0.74580000  0.46840000  1.0 0.159617575
C  C360  1  0.29120000  0.76030000  0.48000000  1.0 -0.1989840262
C  C361  1  0.97870000  0.09670000  0.17604000  1.0 0.2242273652
C  C362  1  0.94010000  0.12870000  0.17730000  1.0 -0.179882605
C  C363  1  0.90430000  0.10420000  0.17670000  1.0 -0.179882605
C  C364  1  0.91600000  0.05740000  0.17514000  1.0 0.1695583278
C  C365  1  0.88900000  0.02270000  0.17496000  1.0 -0.1014316445
C  C366  1  0.83993000  0.03090000  0.17439000  1.0 0.0877342076
C  C367  1  0.81790000  0.02630000  0.13927000  1.0 -0.1589891705
C  C368  1  0.77296000  0.03490000  0.13706000  1.0 -0.1014316445
C  C369  1  0.75005000  0.04820000  0.16997000  1.0 -0.107167982
C  C370  1  0.77208000  0.05283000  0.20509000  1.0 -0.0501949977
C  C371  1  0.81702000  0.04417000  0.20730000  1.0 -0.1504846409
C  C372  1  0.74700000  0.06750000  0.23940000  1.0 0.5916278374
C  C373  1  0.70520000  0.15560000  0.32790000  1.0 0.5490370822
C  C374  1  0.70330000  0.20000000  0.35038000  1.0 0.0076862568
C  C375  1  0.66666667  0.22650000  0.34400000  1.0 -0.1155820283
C  C376  1  0.66080000  0.26490000  0.36530000  1.0 -0.0935436663
C  C377  1  0.69180000  0.27690000  0.39310000  1.0 -0.1504846409
C  C378  1  0.72850000  0.25050000  0.39951000  1.0 0.0821704833
C  C379  1  0.73429000  0.21210000  0.37810000  1.0 -0.1504846409
C  C380  1  0.67420000  0.02800000  0.33300000  1.0 0.5608123821
C  C381  1  0.64800000  0.99350000  0.35210000  1.0 -0.0412947632
C  C382  1  0.60370000  0.98780000  0.34310000  1.0 -0.1014316445
C  C383  1  0.57900000  0.95590000  0.36220000  1.0 -0.1014316445
C  C384  1  0.59870000  0.92960000  0.39040000  1.0 -0.1392794634
C  C385  1  0.64300000  0.93530000  0.39940000  1.0 0.0877342076
C  C386  1  0.66760000  0.96720000  0.38030000  1.0 -0.1504846409
C  C387  1  0.63770000  0.95890000  0.47800000  1.0 -0.1989840262
C  C388  1  0.65830000  0.91810000  0.46780000  1.0 0.2019494042
C  C389  1  0.66480000  0.90440000  0.42950000  1.0 -0.0935436663
C  C390  1  0.68100000  0.86530000  0.41750000  1.0 0.1804502673
C  C391  1  0.68800000  0.85230000  0.37690000  1.0 -0.179882605
C  C392  1  0.70830000  0.81330000  0.37710000  1.0 -0.188734684
C  C393  1  0.71920000  0.80160000  0.41700000  1.0 0.2019494042
C  C394  1  0.74010000  0.76410000  0.42900000  1.0 -0.0799380903
C  C395  1  0.74580000  0.75050000  0.46840000  1.0 0.159617575
C  C396  1  0.76030000  0.70880000  0.48000000  1.0 -0.1989840262
C  C397  1  0.02130000  0.90330000  0.17604000  1.0 0.2242273652
C  C398  1  0.05990000  0.87130000  0.17730000  1.0 -0.179882605
C  C399  1  0.09570000  0.89580000  0.17670000  1.0 -0.179882605
C  C400  1  0.08400000  0.94260000  0.17514000  1.0 0.1695583278
C  C401  1  0.11100000  0.97730000  0.17496000  1.0 -0.1014316445
C  C402  1  0.16007000  0.96910000  0.17439000  1.0 0.0877342076
C  C403  1  0.18210000  0.97370000  0.13927000  1.0 -0.1589891705
C  C404  1  0.22704000  0.96510000  0.13706000  1.0 -0.1014316445
C  C405  1  0.24995000  0.95180000  0.16997000  1.0 -0.107167982
C  C406  1  0.22792000  0.94717000  0.20509000  1.0 -0.0501949977
C  C407  1  0.18298000  0.95583000  0.20730000  1.0 -0.1504846409
C  C408  1  0.25300000  0.93250000  0.23940000  1.0 0.5916278374
C  C409  1  0.29480000  0.84440000  0.32790000  1.0 0.5490370822
C  C410  1  0.29670000  0.80000000  0.35038000  1.0 0.0076862568
C  C411  1  0.33333333  0.77350000  0.34400000  1.0 -0.1155820283
C  C412  1  0.33920000  0.73510000  0.36530000  1.0 -0.0935436663
C  C413  1  0.30820000  0.72310000  0.39310000  1.0 -0.1504846409
C  C414  1  0.27150000  0.74950000  0.39951000  1.0 0.0821704833
C  C415  1  0.26571000  0.78790000  0.37810000  1.0 -0.1504846409
C  C416  1  0.32580000  0.97200000  0.33300000  1.0 0.5608123821
C  C417  1  0.35200000  0.00650000  0.35210000  1.0 -0.0412947632
C  C418  1  0.39630000  0.01220000  0.34310000  1.0 -0.1014316445
C  C419  1  0.42100000  0.04410000  0.36220000  1.0 -0.1014316445
C  C420  1  0.40130000  0.07040000  0.39040000  1.0 -0.1392794634
C  C421  1  0.35700000  0.06470000  0.39940000  1.0 0.0877342076
C  C422  1  0.33240000  0.03280000  0.38030000  1.0 -0.1504846409
C  C423  1  0.36230000  0.04110000  0.47800000  1.0 -0.1989840262
C  C424  1  0.34170000  0.08190000  0.46780000  1.0 0.2019494042
C  C425  1  0.33520000  0.09560000  0.42950000  1.0 -0.0935436663
C  C426  1  0.31900000  0.13470000  0.41750000  1.0 0.1804502673
C  C427  1  0.31200000  0.14770000  0.37690000  1.0 -0.179882605
C  C428  1  0.29170000  0.18670000  0.37710000  1.0 -0.188734684
C  C429  1  0.28080000  0.19840000  0.41700000  1.0 0.2019494042
C  C430  1  0.25990000  0.23590000  0.42900000  1.0 -0.0799380903
C  C431  1  0.25420000  0.24950000  0.46840000  1.0 0.159617575
C  C432  1  0.23970000  0.29120000  0.48000000  1.0 -0.1989840262
C  C433  1  0.40330000  0.52130000  0.32396000  1.0 0.2242273652
C  C434  1  0.37130000  0.55990000  0.32270000  1.0 -0.179882605
C  C435  1  0.39580000  0.59570000  0.32330000  1.0 -0.179882605
C  C436  1  0.44260000  0.58400000  0.32486000  1.0 0.1695583278
C  C437  1  0.47730000  0.61100000  0.32504000  1.0 -0.1014316445
C  C438  1  0.46910000  0.66007000  0.32561000  1.0 0.0877342076
C  C439  1  0.47370000  0.68210000  0.36073000  1.0 -0.1589891705
C  C440  1  0.46510000  0.72704000  0.36294000  1.0 -0.1014316445
C  C441  1  0.45180000  0.74995000  0.33003000  1.0 -0.107167982
C  C442  1  0.44717000  0.72792000  0.29491000  1.0 -0.0501949977
C  C443  1  0.45583000  0.68298000  0.29270000  1.0 -0.1504846409
C  C444  1  0.43250000  0.75300000  0.26060000  1.0 0.5916278374
C  C445  1  0.34440000  0.79480000  0.17210000  1.0 0.5490370822
C  C446  1  0.30000000  0.79670000  0.14962000  1.0 0.0076862568
C  C447  1  0.27350000  0.83333000  0.15600000  1.0 -0.1155820283
C  C448  1  0.23510000  0.83920000  0.13470000  1.0 -0.0935436663
C  C449  1  0.22310000  0.80820000  0.10690000  1.0 -0.1504846409
C  C450  1  0.24950000  0.77150000  0.10049000  1.0 0.0821704833
C  C451  1  0.28790000  0.76571000  0.12190000  1.0 -0.1589891705
C  C452  1  0.47200000  0.82580000  0.16700000  1.0 0.5608123821
C  C453  1  0.50650000  0.85200000  0.14790000  1.0 -0.0412947632
C  C454  1  0.51220000  0.89630000  0.15690000  1.0 -0.1014316445
C  C455  1  0.54410000  0.92100000  0.13780000  1.0 -0.1014316445
C  C456  1  0.57040000  0.90130000  0.10960000  1.0 -0.1392794634
C  C457  1  0.56470000  0.85700000  0.10060000  1.0 0.0877342076
C  C458  1  0.53280000  0.83240000  0.11970000  1.0 -0.1504846409
C  C459  1  0.54110000  0.86230000  0.02200000  1.0 -0.1989840262
C  C460  1  0.58190000  0.84170000  0.03220000  1.0 0.2019494042
C  C461  1  0.59560000  0.83520000  0.07050000  1.0 -0.0935436663
C  C462  1  0.63470000  0.81900000  0.08250000  1.0 0.1804502673
C  C463  1  0.64770000  0.81200000  0.12310000  1.0 -0.179882605
C  C464  1  0.68670000  0.79170000  0.12290000  1.0 -0.188734684
C  C465  1  0.69840000  0.78080000  0.08300000  1.0 0.2019494042
C  C466  1  0.73590000  0.75990000  0.07100000  1.0 -0.0799380903
C  C467  1  0.74950000  0.75420000  0.03160000  1.0 0.159617575
C  C468  1  0.79120000  0.73970000  0.02000000  1.0 -0.1989840262
C  C469  1  0.59670000  0.47870000  0.32396000  1.0 0.2242273652
C  C470  1  0.62870000  0.44010000  0.32270000  1.0 -0.179882605
C  C471  1  0.60420000  0.40430000  0.32330000  1.0 -0.179882605
C  C472  1  0.55740000  0.41600000  0.32486000  1.0 0.1695583278
C  C473  1  0.52270000  0.38900000  0.32504000  1.0 -0.1014316445
C  C474  1  0.53090000  0.33993000  0.32561000  1.0 0.0877342076
C  C475  1  0.52630000  0.31790000  0.36073000  1.0 -0.1589891705
C  C476  1  0.53490000  0.27296000  0.36294000  1.0 -0.1014316445
C  C477  1  0.54820000  0.25005000  0.33003000  1.0 -0.107167982
C  C478  1  0.55283000  0.27208000  0.29491000  1.0 -0.0501949977
C  C479  1  0.54417000  0.31702000  0.29270000  1.0 -0.1504846409
C  C480  1  0.56750000  0.24700000  0.26060000  1.0 0.5916278374
C  C481  1  0.65560000  0.20520000  0.17210000  1.0 0.5490370822
C  C482  1  0.70000000  0.20330000  0.14962000  1.0 0.0076862568
C  C483  1  0.72650000  0.16667000  0.15600000  1.0 -0.1155820283
C  C484  1  0.76490000  0.16080000  0.13470000  1.0 -0.0935436663
C  C485  1  0.77690000  0.19180000  0.10690000  1.0 -0.1504846409
C  C486  1  0.75050000  0.22850000  0.10049000  1.0 0.0821704833
C  C487  1  0.71210000  0.23429000  0.12190000  1.0 -0.1589891705
C  C488  1  0.52800000  0.17420000  0.16700000  1.0 0.5608123821
C  C489  1  0.49350000  0.14800000  0.14790000  1.0 -0.0412947632
C  C490  1  0.48780000  0.10370000  0.15690000  1.0 -0.1014316445
C  C491  1  0.45590000  0.07900000  0.13780000  1.0 -0.1014316445
C  C492  1  0.42960000  0.09870000  0.10960000  1.0 -0.1392794634
C  C493  1  0.43530000  0.14300000  0.10060000  1.0 0.0877342076
C  C494  1  0.46720000  0.16760000  0.11970000  1.0 -0.1504846409
C  C495  1  0.45890000  0.13770000  0.02200000  1.0 -0.1989840262
C  C496  1  0.41810000  0.15830000  0.03220000  1.0 0.2019494042
C  C497  1  0.40440000  0.16480000  0.07050000  1.0 -0.0935436663
C  C498  1  0.36530000  0.18100000  0.08250000  1.0 0.1804502673
C  C499  1  0.35230000  0.18800000  0.12310000  1.0 -0.179882605
C  C500  1  0.31330000  0.20830000  0.12290000  1.0 -0.188734684
C  C501  1  0.30160000  0.21920000  0.08300000  1.0 0.2019494042
C  C502  1  0.26410000  0.24010000  0.07100000  1.0 -0.0799380903
C  C503  1  0.25050000  0.24580000  0.03160000  1.0 0.159617575
C  C504  1  0.20880000  0.26030000  0.02000000  1.0 -0.1989840262
C  C505  1  0.52130000  0.59670000  0.32396000  1.0 0.2242273652
C  C506  1  0.55990000  0.62870000  0.32270000  1.0 -0.179882605
C  C507  1  0.59570000  0.60420000  0.32330000  1.0 -0.179882605
C  C508  1  0.58400000  0.55740000  0.32486000  1.0 0.1695583278
C  C509  1  0.61100000  0.52270000  0.32504000  1.0 -0.1014316445
C  C510  1  0.66007000  0.53090000  0.32561000  1.0 0.0877342076
C  C511  1  0.68210000  0.52630000  0.36073000  1.0 -0.1589891705
C  C512  1  0.72704000  0.53490000  0.36294000  1.0 -0.1014316445
C  C513  1  0.74995000  0.54820000  0.33003000  1.0 -0.107167982
C  C514  1  0.72792000  0.55283000  0.29491000  1.0 -0.0501949977
C  C515  1  0.68298000  0.54417000  0.29270000  1.0 -0.1504846409
C  C516  1  0.75300000  0.56750000  0.26060000  1.0 0.5916278374
C  C517  1  0.79480000  0.65560000  0.17210000  1.0 0.5490370822
C  C518  1  0.79670000  0.70000000  0.14962000  1.0 0.0076862568
C  C519  1  0.83333000  0.72650000  0.15600000  1.0 -0.107167982
C  C520  1  0.83920000  0.76490000  0.13470000  1.0 -0.0935436663
C  C521  1  0.80820000  0.77690000  0.10690000  1.0 -0.1504846409
C  C522  1  0.77150000  0.75050000  0.10049000  1.0 0.0821704833
C  C523  1  0.76571000  0.71210000  0.12190000  1.0 -0.1589891705
C  C524  1  0.82580000  0.52800000  0.16700000  1.0 0.5608123821
C  C525  1  0.85200000  0.49350000  0.14790000  1.0 -0.0412947632
C  C526  1  0.89630000  0.48780000  0.15690000  1.0 -0.1014316445
C  C527  1  0.92100000  0.45590000  0.13780000  1.0 -0.1014316445
C  C528  1  0.90130000  0.42960000  0.10960000  1.0 -0.1392794634
C  C529  1  0.85700000  0.43530000  0.10060000  1.0 0.0877342076
C  C530  1  0.83240000  0.46720000  0.11970000  1.0 -0.1504846409
C  C531  1  0.86230000  0.45890000  0.02200000  1.0 -0.1989840262
C  C532  1  0.84170000  0.41810000  0.03220000  1.0 0.2019494042
C  C533  1  0.83520000  0.40440000  0.07050000  1.0 -0.0935436663
C  C534  1  0.81900000  0.36530000  0.08250000  1.0 0.1804502673
C  C535  1  0.81200000  0.35230000  0.12310000  1.0 -0.179882605
C  C536  1  0.79170000  0.31330000  0.12290000  1.0 -0.188734684
C  C537  1  0.78080000  0.30160000  0.08300000  1.0 0.2019494042
C  C538  1  0.75990000  0.26410000  0.07100000  1.0 -0.0799380903
C  C539  1  0.75420000  0.25050000  0.03160000  1.0 0.159617575
C  C540  1  0.73970000  0.20880000  0.02000000  1.0 -0.1989840262
C  C541  1  0.47870000  0.40330000  0.32396000  1.0 0.2242273652
C  C542  1  0.44010000  0.37130000  0.32270000  1.0 -0.179882605
C  C543  1  0.40430000  0.39580000  0.32330000  1.0 -0.179882605
C  C544  1  0.41600000  0.44260000  0.32486000  1.0 0.1695583278
C  C545  1  0.38900000  0.47730000  0.32504000  1.0 -0.1014316445
C  C546  1  0.33993000  0.46910000  0.32561000  1.0 0.0877342076
C  C547  1  0.31790000  0.47370000  0.36073000  1.0 -0.1589891705
C  C548  1  0.27296000  0.46510000  0.36294000  1.0 -0.1014316445
C  C549  1  0.25005000  0.45180000  0.33003000  1.0 -0.107167982
C  C550  1  0.27208000  0.44717000  0.29491000  1.0 -0.0501949977
C  C551  1  0.31702000  0.45583000  0.29270000  1.0 -0.1504846409
C  C552  1  0.24700000  0.43250000  0.26060000  1.0 0.5916278374
C  C553  1  0.20520000  0.34440000  0.17210000  1.0 0.5490370822
C  C554  1  0.20330000  0.30000000  0.14962000  1.0 0.0076862568
C  C555  1  0.16667000  0.27350000  0.15600000  1.0 -0.1155820283
C  C556  1  0.16080000  0.23510000  0.13470000  1.0 -0.0935436663
C  C557  1  0.19180000  0.22310000  0.10690000  1.0 -0.1504846409
C  C558  1  0.22850000  0.24950000  0.10049000  1.0 0.0821704833
C  C559  1  0.23429000  0.28790000  0.12190000  1.0 -0.1589891705
C  C560  1  0.17420000  0.47200000  0.16700000  1.0 0.5608123821
C  C561  1  0.14800000  0.50650000  0.14790000  1.0 -0.0412947632
C  C562  1  0.10370000  0.51220000  0.15690000  1.0 -0.1014316445
C  C563  1  0.07900000  0.54410000  0.13780000  1.0 -0.1014316445
C  C564  1  0.09870000  0.57040000  0.10960000  1.0 -0.1392794634
C  C565  1  0.14300000  0.56470000  0.10060000  1.0 0.0877342076
C  C566  1  0.16760000  0.53280000  0.11970000  1.0 -0.1504846409
C  C567  1  0.13770000  0.54110000  0.02200000  1.0 -0.1989840262
C  C568  1  0.15830000  0.58190000  0.03220000  1.0 0.2019494042
C  C569  1  0.16480000  0.59560000  0.07050000  1.0 -0.0935436663
C  C570  1  0.18100000  0.63470000  0.08250000  1.0 0.1804502673
C  C571  1  0.18800000  0.64770000  0.12310000  1.0 -0.179882605
C  C572  1  0.20830000  0.68670000  0.12290000  1.0 -0.188734684
C  C573  1  0.21920000  0.69840000  0.08300000  1.0 0.2019494042
C  C574  1  0.24010000  0.73590000  0.07100000  1.0 -0.0799380903
C  C575  1  0.24580000  0.74950000  0.03160000  1.0 0.159617575
C  C576  1  0.26030000  0.79120000  0.02000000  1.0 -0.1989840262
C  C577  1  0.00000000  0.00000000  0.97840000  1.0 0.0039465037
C  C578  1  0.50000000  0.50000000  0.52160000  1.0 0.0076862568
C  C579  1  0.00000000  0.00000000  0.02160000  1.0 0.0039465037
C  C580  1  0.50000000  0.50000000  0.47840000  1.0 0.0076862568
C  C581  1  0.95820000  0.79890000  0.58210000  0.45 0.1089153956
C  C582  1  0.95530000  0.79980000  0.54190000  0.45 -0.179882605
C  C583  1  0.93920000  0.76340000  0.52193000  0.45 0.1089153956
C  C584  1  0.92600000  0.72600000  0.54220000  0.45 -0.1989840262
C  C585  1  0.92900000  0.72510000  0.58240000  0.45 0.0687159785
C  C586  1  0.04180000  0.20110000  0.58210000  0.45 0.103835351
C  C587  1  0.04470000  0.20020000  0.54190000  0.45 -0.179882605
C  C588  1  0.06080000  0.23660000  0.52193000  0.45 0.1089153956
C  C589  1  0.07400000  0.27400000  0.54220000  0.45 -0.1989840262
C  C590  1  0.07100000  0.27490000  0.58240000  0.45 0.0687159785
C  C591  1  0.20110000  0.95820000  0.58210000  0.45 0.103835351
C  C592  1  0.20020000  0.95530000  0.54190000  0.45 -0.179882605
C  C593  1  0.23660000  0.93920000  0.52193000  0.45 0.1089153956
C  C594  1  0.27400000  0.92600000  0.54220000  0.45 -0.1989840262
C  C595  1  0.27490000  0.92900000  0.58240000  0.45 0.0687159785
C  C596  1  0.79890000  0.04180000  0.58210000  0.45 0.103835351
C  C597  1  0.79980000  0.04470000  0.54190000  0.45 -0.179882605
C  C598  1  0.76340000  0.06080000  0.52193000  0.45 0.1089153956
C  C599  1  0.72600000  0.07400000  0.54220000  0.45 -0.1989840262
C  C600  1  0.72510000  0.07100000  0.58240000  0.45 0.0687159785
C  C601  1  0.54180000  0.29890000  0.91790000  0.45 0.1089153956
C  C602  1  0.54470000  0.29980000  0.95810000  0.45 -0.179882605
C  C603  1  0.56080000  0.26340000  0.97807000  0.45 0.1089153956
C  C604  1  0.57400000  0.22600000  0.95780000  0.45 -0.1989840262
C  C605  1  0.57100000  0.22510000  0.91760000  0.45 0.0687159785
C  C606  1  0.45820000  0.70110000  0.91790000  0.45 0.103835351
C  C607  1  0.45530000  0.70020000  0.95810000  0.45 -0.179882605
C  C608  1  0.43920000  0.73660000  0.97807000  0.45 0.1089153956
C  C609  1  0.42600000  0.77400000  0.95780000  0.45 -0.1989840262
C  C610  1  0.42900000  0.77490000  0.91760000  0.45 0.0687159785
C  C611  1  0.29890000  0.45820000  0.91790000  0.45 0.103835351
C  C612  1  0.29980000  0.45530000  0.95810000  0.45 -0.179882605
C  C613  1  0.26340000  0.43920000  0.97807000  0.45 0.1089153956
C  C614  1  0.22600000  0.42600000  0.95780000  0.45 -0.1989840262
C  C615  1  0.22510000  0.42900000  0.91760000  0.45 0.0687159785
C  C616  1  0.70110000  0.54180000  0.91790000  0.45 0.103835351
C  C617  1  0.70020000  0.54470000  0.95810000  0.45 -0.179882605
C  C618  1  0.73660000  0.56080000  0.97807000  0.45 0.1089153956
C  C619  1  0.77400000  0.57400000  0.95780000  0.45 -0.1989840262
C  C620  1  0.77490000  0.57100000  0.91760000  0.45 0.0687159785
C  C621  1  0.04180000  0.20110000  0.41790000  0.45 0.103835351
C  C622  1  0.04470000  0.20020000  0.45810000  0.45 -0.179882605
C  C623  1  0.06080000  0.23660000  0.47807000  0.45 0.1089153956
C  C624  1  0.07400000  0.27400000  0.45780000  0.45 -0.1989840262
C  C625  1  0.07100000  0.27490000  0.41760000  0.45 0.0687159785
C  C626  1  0.95820000  0.79890000  0.41790000  0.45 0.1089153956
C  C627  1  0.95530000  0.79980000  0.45810000  0.45 -0.179882605
C  C628  1  0.93920000  0.76340000  0.47807000  0.45 0.1089153956
C  C629  1  0.92600000  0.72600000  0.45780000  0.45 -0.1989840262
C  C630  1  0.92900000  0.72510000  0.41760000  0.45 0.0687159785
C  C631  1  0.79890000  0.04180000  0.41790000  0.45 0.103835351
C  C632  1  0.79980000  0.04470000  0.45810000  0.45 -0.179882605
C  C633  1  0.76340000  0.06080000  0.47807000  0.45 0.1089153956
C  C634  1  0.72600000  0.07400000  0.45780000  0.45 -0.1989840262
C  C635  1  0.72510000  0.07100000  0.41760000  0.45 0.0687159785
C  C636  1  0.20110000  0.95820000  0.41790000  0.45 0.103835351
C  C637  1  0.20020000  0.95530000  0.45810000  0.45 -0.179882605
C  C638  1  0.23660000  0.93920000  0.47807000  0.45 0.1089153956
C  C639  1  0.27400000  0.92600000  0.45780000  0.45 -0.1989840262
C  C640  1  0.27490000  0.92900000  0.41760000  0.45 0.0687159785
C  C641  1  0.45820000  0.70110000  0.08210000  0.45 0.103835351
C  C642  1  0.45530000  0.70020000  0.04190000  0.45 -0.179882605
C  C643  1  0.43920000  0.73660000  0.02193000  0.45 0.1089153956
C  C644  1  0.42600000  0.77400000  0.04220000  0.45 -0.1989840262
C  C645  1  0.42900000  0.77490000  0.08240000  0.45 0.0687159785
C  C646  1  0.54180000  0.29890000  0.08210000  0.45 0.103835351
C  C647  1  0.54470000  0.29980000  0.04190000  0.45 -0.179882605
C  C648  1  0.56080000  0.26340000  0.02193000  0.45 0.1089153956
C  C649  1  0.57400000  0.22600000  0.04220000  0.45 -0.1989840262
C  C650  1  0.57100000  0.22510000  0.08240000  0.45 0.0687159785
C  C651  1  0.70110000  0.54180000  0.08210000  0.45 0.103835351
C  C652  1  0.70020000  0.54470000  0.04190000  0.45 -0.179882605
C  C653  1  0.73660000  0.56080000  0.02193000  0.45 0.1089153956
C  C654  1  0.77400000  0.57400000  0.04220000  0.45 -0.1989840262
C  C655  1  0.77490000  0.57100000  0.08240000  0.45 0.0687159785
C  C656  1  0.29890000  0.45820000  0.08210000  0.45 0.103835351
C  C657  1  0.29980000  0.45530000  0.04190000  0.45 -0.179882605
C  C658  1  0.26340000  0.43920000  0.02193000  0.45 0.103835351
C  C659  1  0.22600000  0.42600000  0.04220000  0.45 -0.1989840262
C  C660  1  0.22510000  0.42900000  0.08240000  0.45 0.0687159785
C  C661  1  0.98290000  0.03180000  0.91840000  0.5 -0.0145138371
C  C662  1  0.98080000  0.03240000  0.95760000  0.5 -0.1014316445
C  C663  1  0.01710000  0.96820000  0.91840000  0.5 -0.0145138371
C  C664  1  0.01920000  0.96760000  0.95760000  0.5 -0.1014316445
C  C665  1  0.96820000  0.98290000  0.91840000  0.5 -0.0145138371
C  C666  1  0.96760000  0.98080000  0.95760000  0.5 -0.1014316445
C  C667  1  0.03180000  0.01710000  0.91840000  0.5 -0.0145138371
C  C668  1  0.03240000  0.01920000  0.95760000  0.5 -0.1014316445
C  C669  1  0.51710000  0.53180000  0.58160000  0.5 -0.0145138371
C  C670  1  0.51920000  0.53240000  0.54240000  0.5 -0.1014316445
C  C671  1  0.48290000  0.46820000  0.58160000  0.5 -0.0145138371
C  C672  1  0.48080000  0.46760000  0.54240000  0.5 -0.1014316445
C  C673  1  0.53180000  0.48290000  0.58160000  0.5 -0.0145138371
C  C674  1  0.53240000  0.48080000  0.54240000  0.5 -0.1014316445
C  C675  1  0.46820000  0.51710000  0.58160000  0.5 -0.0145138371
C  C676  1  0.46760000  0.51920000  0.54240000  0.5 -0.1014316445
C  C677  1  0.01710000  0.96820000  0.08160000  0.5 -0.015423919
C  C678  1  0.01920000  0.96760000  0.04240000  0.5 -0.1014316445
C  C679  1  0.98290000  0.03180000  0.08160000  0.5 -0.015423919
C  C680  1  0.98080000  0.03240000  0.04240000  0.5 -0.1014316445
C  C681  1  0.03180000  0.01710000  0.08160000  0.5 -0.015423919
C  C682  1  0.03240000  0.01920000  0.04240000  0.5 -0.1014316445
C  C683  1  0.96820000  0.98290000  0.08160000  0.5 -0.0145138371
C  C684  1  0.96760000  0.98080000  0.04240000  0.5 -0.1014316445
C  C685  1  0.48290000  0.46820000  0.41840000  0.5 -0.0145138371
C  C686  1  0.48080000  0.46760000  0.45760000  0.5 -0.1014316445
C  C687  1  0.51710000  0.53180000  0.41840000  0.5 -0.0145138371
C  C688  1  0.51920000  0.53240000  0.45760000  0.5 -0.1014316445
C  C689  1  0.46820000  0.51710000  0.41840000  0.5 -0.0145138371
C  C690  1  0.46760000  0.51920000  0.45760000  0.5 -0.1014316445
C  C691  1  0.53180000  0.48290000  0.41840000  0.5 -0.0145138371
C  C692  1  0.53240000  0.48080000  0.45760000  0.5 -0.1014316445
N  N1  1  0.94383000  0.96231000  0.82504000  1.0 -0.3589012091
N  N2  1  0.16640000  0.70140000  0.56005000  1.0 -0.3589012091
N  N3  1  0.05617000  0.03769000  0.82504000  1.0 -0.3589012091
N  N4  1  0.83360000  0.29860000  0.56005000  1.0 -0.3589012091
N  N5  1  0.03769000  0.94383000  0.82504000  1.0 -0.3589012091
N  N6  1  0.29860000  0.16640000  0.56005000  1.0 -0.3589012091
N  N7  1  0.96231000  0.05617000  0.82504000  1.0 -0.3589012091
N  N8  1  0.70140000  0.83360000  0.56005000  1.0 -0.3589012091
N  N9  1  0.55617000  0.46231000  0.67496000  1.0 -0.3589012091
N  N10  1  0.33360000  0.20140000  0.93995000  1.0 -0.3589012091
N  N11  1  0.44383000  0.53769000  0.67496000  1.0 -0.3589012091
N  N12  1  0.66640000  0.79860000  0.93995000  1.0 -0.3589012091
N  N13  1  0.46231000  0.44383000  0.67496000  1.0 -0.3589012091
N  N14  1  0.20140000  0.66640000  0.93995000  1.0 -0.3589012091
N  N15  1  0.53769000  0.55617000  0.67496000  1.0 -0.3589012091
N  N16  1  0.79860000  0.33360000  0.93995000  1.0 -0.3589012091
N  N17  1  0.05617000  0.03769000  0.17496000  1.0 -0.3589012091
N  N18  1  0.83360000  0.29860000  0.43995000  1.0 -0.3589012091
N  N19  1  0.94383000  0.96231000  0.17496000  1.0 -0.3589012091
N  N20  1  0.16640000  0.70140000  0.43995000  1.0 -0.3589012091
N  N21  1  0.96231000  0.05617000  0.17496000  1.0 -0.3589012091
N  N22  1  0.70140000  0.83360000  0.43995000  1.0 -0.3589012091
N  N23  1  0.03769000  0.94383000  0.17496000  1.0 -0.3589012091
N  N24  1  0.29860000  0.16640000  0.43995000  1.0 -0.3589012091
N  N25  1  0.44383000  0.53769000  0.32504000  1.0 -0.3589012091
N  N26  1  0.66640000  0.79860000  0.06005000  1.0 -0.3589012091
N  N27  1  0.55617000  0.46231000  0.32504000  1.0 -0.3589012091
N  N28  1  0.33360000  0.20140000  0.06005000  1.0 -0.3589012091
N  N29  1  0.53769000  0.55617000  0.32504000  1.0 -0.3589012091
N  N30  1  0.79860000  0.33360000  0.06005000  1.0 -0.3589012091
N  N31  1  0.46231000  0.44383000  0.32504000  1.0 -0.3589012091
N  N32  1  0.20140000  0.66640000  0.06005000  1.0 -0.3589012091
N  N33  1  0.00000000  0.00000000  0.89740000  1.0 -0.1392794634
N  N34  1  0.50000000  0.50000000  0.60260000  1.0 -0.1392794634
N  N35  1  0.00000000  0.00000000  0.10260000  1.0 -0.1392794634
N  N36  1  0.50000000  0.50000000  0.39740000  1.0 -0.1392794634
N  N37  1  0.10520000  0.67070000  0.50000000  1.0 -0.3539445976
N  N38  1  0.22390000  0.73050000  0.50000000  1.0 -0.3774817939
N  N39  1  0.89480000  0.32930000  0.50000000  1.0 -0.3539445976
N  N40  1  0.77610000  0.26950000  0.50000000  1.0 -0.3774817939
N  N41  1  0.32930000  0.10520000  0.50000000  1.0 -0.3539445976
N  N42  1  0.26950000  0.22390000  0.50000000  1.0 -0.3774817939
N  N43  1  0.67070000  0.89480000  0.50000000  1.0 -0.3539445976
N  N44  1  0.73050000  0.77610000  0.50000000  1.0 -0.3774817939
N  N45  1  0.39480000  0.17070000  0.00000000  1.0 -0.3539445976
N  N46  1  0.27610000  0.23050000  0.00000000  1.0 -0.3774817939
N  N47  1  0.60520000  0.82930000  0.00000000  1.0 -0.3539445976
N  N48  1  0.72390000  0.76950000  0.00000000  1.0 -0.3774817939
N  N49  1  0.17070000  0.60520000  0.00000000  1.0 -0.3539445976
N  N50  1  0.23050000  0.72390000  0.00000000  1.0 -0.3774817939
N  N51  1  0.82930000  0.39480000  0.00000000  1.0 -0.3539445976
N  N52  1  0.76950000  0.27610000  0.00000000  1.0 -0.3774817939
N  N53  1  0.94510000  0.76160000  0.60238000  0.45 -0.1703403684
N  N54  1  0.05490000  0.23840000  0.60238000  0.45 -0.1703403684
N  N55  1  0.23840000  0.94510000  0.60238000  0.45 -0.1703403684
N  N56  1  0.76160000  0.05490000  0.60238000  0.45 -0.1703403684
N  N57  1  0.55490000  0.26160000  0.89762000  0.45 -0.1703403684
N  N58  1  0.44510000  0.73840000  0.89762000  0.45 -0.1703403684
N  N59  1  0.26160000  0.44510000  0.89762000  0.45 -0.1703403684
N  N60  1  0.73840000  0.55490000  0.89762000  0.45 -0.1703403684
N  N61  1  0.05490000  0.23840000  0.39762000  0.45 -0.1703403684
N  N62  1  0.94510000  0.76160000  0.39762000  0.45 -0.1703403684
N  N63  1  0.76160000  0.05490000  0.39762000  0.45 -0.1703403684
N  N64  1  0.23840000  0.94510000  0.39762000  0.45 -0.1703403684
N  N65  1  0.44510000  0.73840000  0.10238000  0.45 -0.1703403684
N  N66  1  0.55490000  0.26160000  0.10238000  0.45 -0.1703403684
N  N67  1  0.73840000  0.55490000  0.10238000  0.45 -0.1703403684
N  N68  1  0.26160000  0.44510000  0.10238000  0.45 -0.1703403684
O  O1  1  0.91860000  0.70860000  0.76542000  1.0 -0.517532071
O  O2  1  0.93630000  0.76600000  0.72773000  1.0 -0.4666826731
O  O3  1  0.84820000  0.68030000  0.69890000  1.0 -0.4613560934
O  O4  1  0.87030000  0.73620000  0.66096000  1.0 -0.4511032196
O  O5  1  0.95030000  0.65310000  0.69330000  1.0 -0.517532071
O  O6  1  0.96700000  0.71410000  0.65880000  1.0 -0.4432870279
O  O7  1  0.91860000  0.82060000  0.65670000  1.0 -0.7123949809
O  O8  1  0.08140000  0.29140000  0.76542000  1.0 -0.517532071
O  O9  1  0.06370000  0.23400000  0.72773000  1.0 -0.4613560934
O  O10  1  0.15180000  0.31970000  0.69890000  1.0 -0.4613560934
O  O11  1  0.12970000  0.26380000  0.66096000  1.0 -0.4511032196
O  O12  1  0.04970000  0.34690000  0.69330000  1.0 -0.517532071
O  O13  1  0.03300000  0.28590000  0.65880000  1.0 -0.4432870279
O  O14  1  0.08140000  0.17940000  0.65670000  1.0 -0.7175938951
O  O15  1  0.29140000  0.91860000  0.76542000  1.0 -0.517532071
O  O16  1  0.23400000  0.93630000  0.72773000  1.0 -0.4666826731
O  O17  1  0.31970000  0.84820000  0.69890000  1.0 -0.4613560934
O  O18  1  0.26380000  0.87030000  0.66096000  1.0 -0.4511032196
O  O19  1  0.34690000  0.95030000  0.69330000  1.0 -0.517532071
O  O20  1  0.28590000  0.96700000  0.65880000  1.0 -0.4432870279
O  O21  1  0.17940000  0.91860000  0.65670000  1.0 -0.7123949809
O  O22  1  0.70860000  0.08140000  0.76542000  1.0 -0.517532071
O  O23  1  0.76600000  0.06370000  0.72773000  1.0 -0.4666826731
O  O24  1  0.68030000  0.15180000  0.69890000  1.0 -0.4613560934
O  O25  1  0.73620000  0.12970000  0.66096000  1.0 -0.4511032196
O  O26  1  0.65310000  0.04970000  0.69330000  1.0 -0.517532071
O  O27  1  0.71410000  0.03300000  0.65880000  1.0 -0.4432870279
O  O28  1  0.82060000  0.08140000  0.65670000  1.0 -0.7175938951
O  O29  1  0.58140000  0.20860000  0.73458000  1.0 -0.517532071
O  O30  1  0.56370000  0.26600000  0.77227000  1.0 -0.4666826731
O  O31  1  0.65180000  0.18030000  0.80110000  1.0 -0.4613560934
O  O32  1  0.62970000  0.23620000  0.83904000  1.0 -0.4511032196
O  O33  1  0.54970000  0.15310000  0.80670000  1.0 -0.517532071
O  O34  1  0.53300000  0.21410000  0.84120000  1.0 -0.4432870279
O  O35  1  0.58140000  0.32060000  0.84330000  1.0 -0.7123949809
O  O36  1  0.41860000  0.79140000  0.73458000  1.0 -0.517532071
O  O37  1  0.43630000  0.73400000  0.77227000  1.0 -0.4613560934
O  O38  1  0.34820000  0.81970000  0.80110000  1.0 -0.4613560934
O  O39  1  0.37030000  0.76380000  0.83904000  1.0 -0.4511032196
O  O40  1  0.45030000  0.84690000  0.80670000  1.0 -0.517532071
O  O41  1  0.46700000  0.78590000  0.84120000  1.0 -0.4432870279
O  O42  1  0.41860000  0.67940000  0.84330000  1.0 -0.7123949809
O  O43  1  0.20860000  0.41860000  0.73458000  1.0 -0.517532071
O  O44  1  0.26600000  0.43630000  0.77227000  1.0 -0.4666826731
O  O45  1  0.18030000  0.34820000  0.80110000  1.0 -0.4613560934
O  O46  1  0.23620000  0.37030000  0.83904000  1.0 -0.4511032196
O  O47  1  0.15310000  0.45030000  0.80670000  1.0 -0.517532071
O  O48  1  0.21410000  0.46700000  0.84120000  1.0 -0.4432870279
O  O49  1  0.32060000  0.41860000  0.84330000  1.0 -0.7123949809
O  O50  1  0.79140000  0.58140000  0.73458000  1.0 -0.517532071
O  O51  1  0.73400000  0.56370000  0.77227000  1.0 -0.4666826731
O  O52  1  0.81970000  0.65180000  0.80110000  1.0 -0.4613560934
O  O53  1  0.76380000  0.62970000  0.83904000  1.0 -0.4511032196
O  O54  1  0.84690000  0.54970000  0.80670000  1.0 -0.517532071
O  O55  1  0.78590000  0.53300000  0.84120000  1.0 -0.4432870279
O  O56  1  0.67940000  0.58140000  0.84330000  1.0 -0.7123949809
O  O57  1  0.08140000  0.29140000  0.23458000  1.0 -0.517532071
O  O58  1  0.06370000  0.23400000  0.27227000  1.0 -0.4613560934
O  O59  1  0.15180000  0.31970000  0.30110000  1.0 -0.4613560934
O  O60  1  0.12970000  0.26380000  0.33904000  1.0 -0.4511032196
O  O61  1  0.04970000  0.34690000  0.30670000  1.0 -0.517532071
O  O62  1  0.03300000  0.28590000  0.34120000  1.0 -0.4432870279
O  O63  1  0.08140000  0.17940000  0.34330000  1.0 -0.7175938951
O  O64  1  0.91860000  0.70860000  0.23458000  1.0 -0.517532071
O  O65  1  0.93630000  0.76600000  0.27227000  1.0 -0.4666826731
O  O66  1  0.84820000  0.68030000  0.30110000  1.0 -0.4613560934
O  O67  1  0.87030000  0.73620000  0.33904000  1.0 -0.4511032196
O  O68  1  0.95030000  0.65310000  0.30670000  1.0 -0.517532071
O  O69  1  0.96700000  0.71410000  0.34120000  1.0 -0.4432870279
O  O70  1  0.91860000  0.82060000  0.34330000  1.0 -0.7123949809
O  O71  1  0.70860000  0.08140000  0.23458000  1.0 -0.517532071
O  O72  1  0.76600000  0.06370000  0.27227000  1.0 -0.4666826731
O  O73  1  0.68030000  0.15180000  0.30110000  1.0 -0.4613560934
O  O74  1  0.73620000  0.12970000  0.33904000  1.0 -0.4511032196
O  O75  1  0.65310000  0.04970000  0.30670000  1.0 -0.517532071
O  O76  1  0.71410000  0.03300000  0.34120000  1.0 -0.4432870279
O  O77  1  0.82060000  0.08140000  0.34330000  1.0 -0.7123949809
O  O78  1  0.29140000  0.91860000  0.23458000  1.0 -0.517532071
O  O79  1  0.23400000  0.93630000  0.27227000  1.0 -0.4666826731
O  O80  1  0.31970000  0.84820000  0.30110000  1.0 -0.4613560934
O  O81  1  0.26380000  0.87030000  0.33904000  1.0 -0.4511032196
O  O82  1  0.34690000  0.95030000  0.30670000  1.0 -0.517532071
O  O83  1  0.28590000  0.96700000  0.34120000  1.0 -0.4432870279
O  O84  1  0.17940000  0.91860000  0.34330000  1.0 -0.7123949809
O  O85  1  0.41860000  0.79140000  0.26542000  1.0 -0.517532071
O  O86  1  0.43630000  0.73400000  0.22773000  1.0 -0.4666826731
O  O87  1  0.34820000  0.81970000  0.19890000  1.0 -0.4613560934
O  O88  1  0.37030000  0.76380000  0.16096000  1.0 -0.4511032196
O  O89  1  0.45030000  0.84690000  0.19330000  1.0 -0.517532071
O  O90  1  0.46700000  0.78590000  0.15880000  1.0 -0.4432870279
O  O91  1  0.41860000  0.67940000  0.15670000  1.0 -0.7123949809
O  O92  1  0.58140000  0.20860000  0.26542000  1.0 -0.517532071
O  O93  1  0.56370000  0.26600000  0.22773000  1.0 -0.4666826731
O  O94  1  0.65180000  0.18030000  0.19890000  1.0 -0.4613560934
O  O95  1  0.62970000  0.23620000  0.16096000  1.0 -0.4511032196
O  O96  1  0.54970000  0.15310000  0.19330000  1.0 -0.517532071
O  O97  1  0.53300000  0.21410000  0.15880000  1.0 -0.4432870279
O  O98  1  0.58140000  0.32060000  0.15670000  1.0 -0.7123949809
O  O99  1  0.79140000  0.58140000  0.26542000  1.0 -0.517532071
O  O100  1  0.73400000  0.56370000  0.22773000  1.0 -0.4666826731
O  O101  1  0.81970000  0.65180000  0.19890000  1.0 -0.4613560934
O  O102  1  0.76380000  0.62970000  0.16096000  1.0 -0.4511032196
O  O103  1  0.84690000  0.54970000  0.19330000  1.0 -0.517532071
O  O104  1  0.78590000  0.53300000  0.15880000  1.0 -0.4432870279
O  O105  1  0.67940000  0.58140000  0.15670000  1.0 -0.7123949809
O  O106  1  0.20860000  0.41860000  0.26542000  1.0 -0.517532071
O  O107  1  0.26600000  0.43630000  0.22773000  1.0 -0.4666826731
O  O108  1  0.18030000  0.34820000  0.19890000  1.0 -0.4613560934
O  O109  1  0.23620000  0.37030000  0.16096000  1.0 -0.4511032196
O  O110  1  0.15310000  0.45030000  0.19330000  1.0 -0.517532071
O  O111  1  0.21410000  0.46700000  0.15880000  1.0 -0.4432870279
O  O112  1  0.32060000  0.41860000  0.15670000  1.0 -0.7123949809
O  O113  1  0.88831000  0.61169000  0.75000000  1.0 -0.8295522946
O  O114  1  0.11169000  0.38831000  0.75000000  1.0 -0.8295522946
O  O115  1  0.38831000  0.88831000  0.75000000  1.0 -0.8295522946
O  O116  1  0.61169000  0.11169000  0.75000000  1.0 -0.8295522946
O  O117  1  0.11169000  0.38831000  0.25000000  1.0 -0.8295522946
O  O118  1  0.88831000  0.61169000  0.25000000  1.0 -0.8295522946
O  O119  1  0.61169000  0.11169000  0.25000000  1.0 -0.8295522946
O  O120  1  0.38831000  0.88831000  0.25000000  1.0 -0.8295522946
