# DDEC6 charges by PACMAN v1.1 (https://github.com/mtap-research/PACMAN-charge/)
data_2024[Zn][crb]3[FSR]5
_chemical_formula_sum              "Zn16 H96 C96 N64"
_cell_length_a       9.63356
_cell_length_b       24.0923
_cell_length_c       24.4097
_cell_angle_alpha    90
_cell_angle_beta     90
_cell_angle_gamma    90

_symmetry_space_group_name_H-M    "P 1"
_symmetry_Int_Tables_number       1

loop_
  _symmetry_equiv_pos_as_xyz
  'x, y, z'

loop_
  _atom_site_type_symbol
  _atom_site_label
  _atom_site_symmetry_multiplicity
  _atom_site_fract_x
  _atom_site_fract_y
  _atom_site_fract_z
  _atom_site_occupancy
  _atom_site_charge
Zn  Zn1       1.0  0.01231  0.17443  0.50140  1.0000 0.6189923398
Zn  Zn2       1.0  0.51231  0.32557  0.49860  1.0000 0.6189923398
Zn  Zn3       1.0  0.98769  0.67443  0.99860  1.0000 0.6189923398
Zn  Zn4       1.0  0.48769  0.82557  0.00140  1.0000 0.6189923398
Zn  Zn5       1.0  0.98769  0.82557  0.49860  1.0000 0.6189923398
Zn  Zn6       1.0  0.48769  0.67443  0.50140  1.0000 0.6189923398
Zn  Zn7       1.0  0.01231  0.32557  0.00140  1.0000 0.6189923398
Zn  Zn8       1.0  0.51231  0.17443  0.99860  1.0000 0.6189923398
Zn  Zn9       1.0  0.00267  0.00175  0.32393  1.0000 0.6189923398
Zn  Zn10      1.0  0.50267  0.49825  0.67607  1.0000 0.6189923398
Zn  Zn11      1.0  0.99733  0.50175  0.17607  1.0000 0.6189923398
Zn  Zn12      1.0  0.49733  0.99825  0.82393  1.0000 0.6189923398
Zn  Zn13      1.0  0.99733  0.99825  0.67607  1.0000 0.6189923398
Zn  Zn14      1.0  0.49733  0.50175  0.32393  1.0000 0.6189923398
Zn  Zn15      1.0  0.00267  0.49825  0.82393  1.0000 0.6189923398
Zn  Zn16      1.0  0.50267  0.00175  0.17607  1.0000 0.6189923398
H   H1        1.0  0.75600  0.33790  0.40880  1.0000 0.1004415692
H   H2        1.0  0.25600  0.16210  0.59120  1.0000 0.1004415692
H   H3        1.0  0.24400  0.83790  0.09120  1.0000 0.1004415692
H   H4        1.0  0.74400  0.66210  0.90880  1.0000 0.1004415692
H   H5        1.0  0.24400  0.66210  0.59120  1.0000 0.1004415692
H   H6        1.0  0.74400  0.83790  0.40880  1.0000 0.1004415692
H   H7        1.0  0.75600  0.16210  0.90880  1.0000 0.1004415692
H   H8        1.0  0.25600  0.33790  0.09120  1.0000 0.1004415692
H   H9        1.0  0.48600  0.94790  0.29380  1.0000 0.1004415692
H   H10       1.0  0.98600  0.55210  0.70620  1.0000 0.1004415692
H   H11       1.0  0.51400  0.44790  0.20620  1.0000 0.1004415692
H   H12       1.0  0.01400  0.05210  0.79380  1.0000 0.1004415692
H   H13       1.0  0.51400  0.05210  0.70620  1.0000 0.1004415692
H   H14       1.0  0.01400  0.44790  0.29380  1.0000 0.1004415692
H   H15       1.0  0.48600  0.55210  0.79380  1.0000 0.1004415692
H   H16       1.0  0.98600  0.94790  0.20620  1.0000 0.1004415692
H   H17       1.0  0.96000  0.05220  0.44340  1.0000 0.0789353047
H   H18       1.0  0.46000  0.44780  0.55660  1.0000 0.0789353047
H   H19       1.0  0.04000  0.55220  0.05660  1.0000 0.0789353047
H   H20       1.0  0.54000  0.94780  0.94340  1.0000 0.0789353047
H   H21       1.0  0.04000  0.94780  0.55660  1.0000 0.0789353047
H   H22       1.0  0.54000  0.55220  0.44340  1.0000 0.0789353047
H   H23       1.0  0.96000  0.44780  0.94340  1.0000 0.0789353047
H   H24       1.0  0.46000  0.05220  0.05660  1.0000 0.0789353047
H   H25       1.0  0.20300  0.81800  0.39970  1.0000 0.1004415692
H   H26       1.0  0.70300  0.68200  0.60030  1.0000 0.1004415692
H   H27       1.0  0.79700  0.31800  0.10030  1.0000 0.1004415692
H   H28       1.0  0.29700  0.18200  0.89970  1.0000 0.1004415692
H   H29       1.0  0.79700  0.18200  0.60030  1.0000 0.1004415692
H   H30       1.0  0.29700  0.31800  0.39970  1.0000 0.1004415692
H   H31       1.0  0.20300  0.68200  0.89970  1.0000 0.1004415692
H   H32       1.0  0.70300  0.81800  0.10030  1.0000 0.1004415692
H   H33       1.0  0.14600  0.12220  0.30510  1.0000 0.1004415692
H   H34       1.0  0.64600  0.37780  0.69490  1.0000 0.1004415692
H   H35       1.0  0.85400  0.62220  0.19490  1.0000 0.1004415692
H   H36       1.0  0.35400  0.87780  0.80510  1.0000 0.1004415692
H   H37       1.0  0.85400  0.87780  0.69490  1.0000 0.1004415692
H   H38       1.0  0.35400  0.62220  0.30510  1.0000 0.1004415692
H   H39       1.0  0.14600  0.37780  0.80510  1.0000 0.1004415692
H   H40       1.0  0.64600  0.12220  0.19490  1.0000 0.1004415692
H   H41       1.0  0.14200  0.19580  0.38640  1.0000 0.1004415692
H   H42       1.0  0.64200  0.30420  0.61360  1.0000 0.1004415692
H   H43       1.0  0.85800  0.69580  0.11360  1.0000 0.1004415692
H   H44       1.0  0.35800  0.80420  0.88640  1.0000 0.1004415692
H   H45       1.0  0.85800  0.80420  0.61360  1.0000 0.1004415692
H   H46       1.0  0.35800  0.69580  0.38640  1.0000 0.1004415692
H   H47       1.0  0.14200  0.30420  0.88640  1.0000 0.1004415692
H   H48       1.0  0.64200  0.19580  0.11360  1.0000 0.1004415692
H   H49       1.0  0.92200  0.94200  0.44210  1.0000 0.0697228573
H   H50       1.0  0.42200  0.55800  0.55790  1.0000 0.0697228573
H   H51       1.0  0.07800  0.44200  0.05790  1.0000 0.0697228573
H   H52       1.0  0.57800  0.05800  0.94210  1.0000 0.0697228573
H   H53       1.0  0.07800  0.05800  0.55790  1.0000 0.0697228573
H   H54       1.0  0.57800  0.44200  0.44210  1.0000 0.0697228573
H   H55       1.0  0.92200  0.55800  0.94210  1.0000 0.0697228573
H   H56       1.0  0.42200  0.94200  0.05790  1.0000 0.0697228573
H   H57       1.0  0.20000  0.89620  0.31840  1.0000 0.1066833772
H   H58       1.0  0.70000  0.60380  0.68160  1.0000 0.1066833772
H   H59       1.0  0.80000  0.39620  0.18160  1.0000 0.1066833772
H   H60       1.0  0.30000  0.10380  0.81840  1.0000 0.1066833772
H   H61       1.0  0.80000  0.10380  0.68160  1.0000 0.1066833772
H   H62       1.0  0.30000  0.39620  0.31840  1.0000 0.1066833772
H   H63       1.0  0.20000  0.60380  0.81840  1.0000 0.1066833772
H   H64       1.0  0.70000  0.89620  0.18160  1.0000 0.1066833772
H   H65       1.0  0.71400  0.22580  0.53910  1.0000 0.0449101925
H   H66       1.0  0.21400  0.27420  0.46090  1.0000 0.0449101925
H   H67       1.0  0.28600  0.72580  0.96090  1.0000 0.0449101925
H   H68       1.0  0.78600  0.77420  0.03910  1.0000 0.0449101925
H   H69       1.0  0.28600  0.77420  0.46090  1.0000 0.0449101925
H   H70       1.0  0.78600  0.72580  0.53910  1.0000 0.0449101925
H   H71       1.0  0.71400  0.27420  0.03910  1.0000 0.0449101925
H   H72       1.0  0.21400  0.22580  0.96090  1.0000 0.0449101925
H   H73       1.0  0.97900  0.27220  0.41270  1.0000 0.1004415692
H   H74       1.0  0.47900  0.22780  0.58730  1.0000 0.1004415692
H   H75       1.0  0.02100  0.77220  0.08730  1.0000 0.1004415692
H   H76       1.0  0.52100  0.72780  0.91270  1.0000 0.1004415692
H   H77       1.0  0.02100  0.72780  0.58730  1.0000 0.1004415692
H   H78       1.0  0.52100  0.77220  0.41270  1.0000 0.1004415692
H   H79       1.0  0.97900  0.22780  0.91270  1.0000 0.1004415692
H   H80       1.0  0.47900  0.27220  0.08730  1.0000 0.1004415692
H   H81       1.0  0.70700  0.95060  0.36500  1.0000 0.1004415692
H   H82       1.0  0.20700  0.54940  0.63500  1.0000 0.1004415692
H   H83       1.0  0.29300  0.45060  0.13500  1.0000 0.1004415692
H   H84       1.0  0.79300  0.04940  0.86500  1.0000 0.1004415692
H   H85       1.0  0.29300  0.04940  0.63500  1.0000 0.1004415692
H   H86       1.0  0.79300  0.45060  0.36500  1.0000 0.1004415692
H   H87       1.0  0.70700  0.54940  0.86500  1.0000 0.1004415692
H   H88       1.0  0.20700  0.95060  0.13500  1.0000 0.1004415692
H   H89       1.0  0.80600  0.03750  0.22040  1.0000 0.0789353047
H   H90       1.0  0.30600  0.46250  0.77960  1.0000 0.0789353047
H   H91       1.0  0.19400  0.53750  0.27960  1.0000 0.0789353047
H   H92       1.0  0.69400  0.96250  0.72040  1.0000 0.0789353047
H   H93       1.0  0.19400  0.96250  0.77960  1.0000 0.0789353047
H   H94       1.0  0.69400  0.53750  0.22040  1.0000 0.0789353047
H   H95       1.0  0.80600  0.46250  0.72040  1.0000 0.0789353047
H   H96       1.0  0.30600  0.03750  0.27960  1.0000 0.0789353047
C   C1        1.0  0.78070  0.30484  0.43650  1.0000 -0.0523705892
C   C2        1.0  0.28070  0.19516  0.56350  1.0000 -0.0523705892
C   C3        1.0  0.21930  0.80484  0.06350  1.0000 -0.0523705892
C   C4        1.0  0.71930  0.69516  0.93650  1.0000 -0.0523705892
C   C5        1.0  0.21930  0.69516  0.56350  1.0000 -0.0523705892
C   C6        1.0  0.71930  0.80484  0.43650  1.0000 -0.0523705892
C   C7        1.0  0.78070  0.19516  0.93650  1.0000 -0.0523705892
C   C8        1.0  0.28070  0.30484  0.06350  1.0000 -0.0523705892
C   C9        1.0  0.58850  0.96598  0.28955  1.0000 -0.0714481063
C   C10       1.0  0.08850  0.53402  0.71045  1.0000 -0.0714481063
C   C11       1.0  0.41150  0.46598  0.21045  1.0000 -0.0714481063
C   C12       1.0  0.91150  0.03402  0.78955  1.0000 -0.0714481063
C   C13       1.0  0.41150  0.03402  0.71045  1.0000 -0.0714481063
C   C14       1.0  0.91150  0.46598  0.28955  1.0000 -0.0714481063
C   C15       1.0  0.58850  0.53402  0.78955  1.0000 -0.0714481063
C   C16       1.0  0.08850  0.96598  0.21045  1.0000 -0.0714481063
C   C17       1.0  0.01470  0.08045  0.41802  1.0000 0.1299361103
C   C18       1.0  0.51470  0.41955  0.58198  1.0000 0.1299361103
C   C19       1.0  0.98530  0.58045  0.08198  1.0000 0.1299361103
C   C20       1.0  0.48530  0.91955  0.91802  1.0000 0.1299361103
C   C21       1.0  0.98530  0.91955  0.58198  1.0000 0.1299361103
C   C22       1.0  0.48530  0.58045  0.41802  1.0000 0.1299361103
C   C23       1.0  0.01470  0.41955  0.91802  1.0000 0.1299361103
C   C24       1.0  0.51470  0.08045  0.08198  1.0000 0.1299361103
C   C25       1.0  0.14370  0.85571  0.39549  1.0000 -0.0714481063
C   C26       1.0  0.64370  0.64429  0.60451  1.0000 -0.0714481063
C   C27       1.0  0.85630  0.35571  0.10451  1.0000 -0.0714481063
C   C28       1.0  0.35630  0.14429  0.89549  1.0000 -0.0714481063
C   C29       1.0  0.85630  0.14429  0.60451  1.0000 -0.0714481063
C   C30       1.0  0.35630  0.35571  0.39549  1.0000 -0.0714481063
C   C31       1.0  0.14370  0.64429  0.89549  1.0000 -0.0714481063
C   C32       1.0  0.64370  0.85571  0.10451  1.0000 -0.0714481063
C   C33       1.0  0.10520  0.11768  0.34599  1.0000 -0.0614057196
C   C34       1.0  0.60520  0.38232  0.65401  1.0000 -0.0614057196
C   C35       1.0  0.89480  0.61768  0.15401  1.0000 -0.0614057196
C   C36       1.0  0.39480  0.88232  0.84599  1.0000 -0.0614057196
C   C37       1.0  0.89480  0.88232  0.65401  1.0000 -0.0614057196
C   C38       1.0  0.39480  0.61768  0.34599  1.0000 -0.0614057196
C   C39       1.0  0.10520  0.38232  0.84599  1.0000 -0.0614057196
C   C40       1.0  0.60520  0.11768  0.15401  1.0000 -0.0614057196
C   C41       1.0  0.10910  0.15520  0.38797  1.0000 -0.0714481063
C   C42       1.0  0.60910  0.34480  0.61203  1.0000 -0.0714481063
C   C43       1.0  0.89090  0.65520  0.11203  1.0000 -0.0714481063
C   C44       1.0  0.39090  0.84480  0.88797  1.0000 -0.0714481063
C   C45       1.0  0.89090  0.84480  0.61203  1.0000 -0.0714481063
C   C46       1.0  0.39090  0.65520  0.38797  1.0000 -0.0714481063
C   C47       1.0  0.10910  0.34480  0.88797  1.0000 -0.0714481063
C   C48       1.0  0.60910  0.15520  0.11203  1.0000 -0.0714481063
C   C49       1.0  0.99520  0.91861  0.41785  1.0000 0.1223728955
C   C50       1.0  0.49520  0.58139  0.58215  1.0000 0.1223728955
C   C51       1.0  0.00480  0.41861  0.08215  1.0000 0.1223728955
C   C52       1.0  0.50480  0.08139  0.91785  1.0000 0.1223728955
C   C53       1.0  0.00480  0.08139  0.58215  1.0000 0.1223728955
C   C54       1.0  0.50480  0.41861  0.41785  1.0000 0.1223728955
C   C55       1.0  0.99520  0.58139  0.91785  1.0000 0.1223728955
C   C56       1.0  0.49520  0.91861  0.08215  1.0000 0.1223728955
C   C57       1.0  0.14200  0.89521  0.35526  1.0000 -0.0614057196
C   C58       1.0  0.64200  0.60479  0.64474  1.0000 -0.0614057196
C   C59       1.0  0.85800  0.39521  0.14474  1.0000 -0.0614057196
C   C60       1.0  0.35800  0.10479  0.85526  1.0000 -0.0614057196
C   C61       1.0  0.85800  0.10479  0.64474  1.0000 -0.0614057196
C   C62       1.0  0.35800  0.39521  0.35526  1.0000 -0.0614057196
C   C63       1.0  0.14200  0.60479  0.85526  1.0000 -0.0614057196
C   C64       1.0  0.64200  0.89521  0.14474  1.0000 -0.0614057196
C   C65       1.0  0.75580  0.24735  0.50270  1.0000 0.1527877711
C   C66       1.0  0.25580  0.25265  0.49730  1.0000 0.1527877711
C   C67       1.0  0.24420  0.74735  0.99730  1.0000 0.1527877711
C   C68       1.0  0.74420  0.75265  0.00270  1.0000 0.1527877711
C   C69       1.0  0.24420  0.75265  0.49730  1.0000 0.1527877711
C   C70       1.0  0.74420  0.74735  0.50270  1.0000 0.1527877711
C   C71       1.0  0.75580  0.25265  0.00270  1.0000 0.1527877711
C   C72       1.0  0.25580  0.24735  0.99730  1.0000 0.1527877711
C   C73       1.0  0.89490  0.27109  0.43823  1.0000 -0.0847073384
C   C74       1.0  0.39490  0.22891  0.56177  1.0000 -0.0850272067
C   C75       1.0  0.10510  0.77109  0.06177  1.0000 -0.0847073384
C   C76       1.0  0.60510  0.72891  0.93823  1.0000 -0.0850272067
C   C77       1.0  0.10510  0.72891  0.56177  1.0000 -0.0850272067
C   C78       1.0  0.60510  0.77109  0.43823  1.0000 -0.0847073384
C   C79       1.0  0.89490  0.22891  0.93823  1.0000 -0.0850272067
C   C80       1.0  0.39490  0.27109  0.06177  1.0000 -0.0847073384
C   C81       1.0  0.70160  0.96617  0.32355  1.0000 -0.0614057196
C   C82       1.0  0.20160  0.53383  0.67645  1.0000 -0.0614057196
C   C83       1.0  0.29840  0.46617  0.17645  1.0000 -0.0614057196
C   C84       1.0  0.79840  0.03383  0.82355  1.0000 -0.0614057196
C   C85       1.0  0.29840  0.03383  0.67645  1.0000 -0.0614057196
C   C86       1.0  0.79840  0.46617  0.32355  1.0000 -0.0614057196
C   C87       1.0  0.70160  0.53383  0.82355  1.0000 -0.0614057196
C   C88       1.0  0.20160  0.96617  0.17645  1.0000 -0.0614057196
C   C89       1.0  0.75270  0.01237  0.25068  1.0000 0.1299361103
C   C90       1.0  0.25270  0.48763  0.74932  1.0000 0.1299361103
C   C91       1.0  0.24730  0.51237  0.24932  1.0000 0.1299361103
C   C92       1.0  0.74730  0.98763  0.75068  1.0000 0.1299361103
C   C93       1.0  0.24730  0.98763  0.74932  1.0000 0.1299361103
C   C94       1.0  0.74730  0.51237  0.25068  1.0000 0.1299361103
C   C95       1.0  0.75270  0.48763  0.75068  1.0000 0.1299361103
C   C96       1.0  0.25270  0.01237  0.24932  1.0000 0.1299361103
N   N1        1.0  0.04565  0.06993  0.36550  1.0000 -0.2979098595
N   N2        1.0  0.54565  0.43007  0.63450  1.0000 -0.2979098595
N   N3        1.0  0.95435  0.56993  0.13450  1.0000 -0.2979098595
N   N4        1.0  0.45435  0.93007  0.86550  1.0000 -0.2979098595
N   N5        1.0  0.95435  0.93007  0.63450  1.0000 -0.2979098595
N   N6        1.0  0.45435  0.56993  0.36550  1.0000 -0.2979098595
N   N7        1.0  0.04565  0.43007  0.86550  1.0000 -0.2979098595
N   N8        1.0  0.54565  0.06993  0.13450  1.0000 -0.2979098595
N   N9        1.0  0.87890  0.23447  0.48078  1.0000 -0.2896172733
N   N10       1.0  0.37890  0.26553  0.51922  1.0000 -0.2896172733
N   N11       1.0  0.12110  0.73447  0.01922  1.0000 -0.2896172733
N   N12       1.0  0.62110  0.76553  0.98078  1.0000 -0.2896172733
N   N13       1.0  0.12110  0.76553  0.51922  1.0000 -0.2896172733
N   N14       1.0  0.62110  0.73447  0.48078  1.0000 -0.2896172733
N   N15       1.0  0.87890  0.26553  0.98078  1.0000 -0.2896172733
N   N16       1.0  0.37890  0.23447  0.01922  1.0000 -0.2896172733
N   N17       1.0  0.69254  0.28962  0.47776  1.0000 -0.2896172733
N   N18       1.0  0.19254  0.21038  0.52224  1.0000 -0.2896172733
N   N19       1.0  0.30746  0.78962  0.02224  1.0000 -0.2896172733
N   N20       1.0  0.80746  0.71038  0.97776  1.0000 -0.2896172733
N   N21       1.0  0.30746  0.71038  0.52224  1.0000 -0.2896172733
N   N22       1.0  0.80746  0.78962  0.47776  1.0000 -0.2896172733
N   N23       1.0  0.69254  0.21038  0.97776  1.0000 -0.2896172733
N   N24       1.0  0.19254  0.28962  0.02224  1.0000 -0.2896172733
N   N25       1.0  0.04723  0.93517  0.36961  1.0000 -0.2896172733
N   N26       1.0  0.54723  0.56483  0.63039  1.0000 -0.2896172733
N   N27       1.0  0.95277  0.43517  0.13039  1.0000 -0.2896172733
N   N28       1.0  0.45277  0.06483  0.86961  1.0000 -0.2896172733
N   N29       1.0  0.95277  0.06483  0.63039  1.0000 -0.2896172733
N   N30       1.0  0.45277  0.43517  0.36961  1.0000 -0.2896172733
N   N31       1.0  0.04723  0.56483  0.86961  1.0000 -0.2896172733
N   N32       1.0  0.54723  0.93517  0.13039  1.0000 -0.2896172733
N   N33       1.0  0.05144  0.13157  0.43353  1.0000 -0.2838827483
N   N34       1.0  0.55144  0.36843  0.56647  1.0000 -0.2838827483
N   N35       1.0  0.94856  0.63157  0.06647  1.0000 -0.2838827483
N   N36       1.0  0.44856  0.86843  0.93353  1.0000 -0.2838827483
N   N37       1.0  0.94856  0.86843  0.56647  1.0000 -0.2838827483
N   N38       1.0  0.44856  0.63157  0.43353  1.0000 -0.2838827483
N   N39       1.0  0.05144  0.36843  0.93353  1.0000 -0.2838827483
N   N40       1.0  0.55144  0.13157  0.06647  1.0000 -0.2838827483
N   N41       1.0  0.04930  0.87059  0.43520  1.0000 -0.2896172733
N   N42       1.0  0.54930  0.62941  0.56480  1.0000 -0.2896172733
N   N43       1.0  0.95070  0.37059  0.06480  1.0000 -0.2896172733
N   N44       1.0  0.45070  0.12941  0.93520  1.0000 -0.2896172733
N   N45       1.0  0.95070  0.12941  0.56480  1.0000 -0.2896172733
N   N46       1.0  0.45070  0.37059  0.43520  1.0000 -0.2896172733
N   N47       1.0  0.04930  0.62941  0.93520  1.0000 -0.2896172733
N   N48       1.0  0.54930  0.87059  0.06480  1.0000 -0.2896172733
N   N49       1.0  0.12139  0.99575  0.25693  1.0000 -0.2896172733
N   N50       1.0  0.62139  0.50425  0.74307  1.0000 -0.2896172733
N   N51       1.0  0.87861  0.49575  0.24307  1.0000 -0.2896172733
N   N52       1.0  0.37861  0.00425  0.75693  1.0000 -0.2896172733
N   N53       1.0  0.87861  0.00425  0.74307  1.0000 -0.2896172733
N   N54       1.0  0.37861  0.49575  0.25693  1.0000 -0.2896172733
N   N55       1.0  0.12139  0.50425  0.75693  1.0000 -0.2896172733
N   N56       1.0  0.62139  0.99575  0.24307  1.0000 -0.2896172733
N   N57       1.0  0.80612  0.99551  0.29853  1.0000 -0.2896172733
N   N58       1.0  0.30612  0.50449  0.70147  1.0000 -0.2896172733
N   N59       1.0  0.19388  0.49551  0.20147  1.0000 -0.2896172733
N   N60       1.0  0.69388  0.00449  0.79853  1.0000 -0.2896172733
N   N61       1.0  0.19388  0.00449  0.70147  1.0000 -0.2896172733
N   N62       1.0  0.69388  0.49551  0.29853  1.0000 -0.2896172733
N   N63       1.0  0.80612  0.50449  0.79853  1.0000 -0.2896172733
N   N64       1.0  0.30612  0.99551  0.20147  1.0000 -0.2896172733
