# DDEC6 charges by PACMAN v1.1 (https://github.com/mtap-research/PACMAN-charge/)
data_c8cc01561a2_FSR_pacman
_symmetry_space_group_name_H-M   'P 1'
_cell_length_a   19.94120000
_cell_length_b   19.94120000
_cell_length_c   24.13420000
_cell_angle_alpha   90.00000000
_cell_angle_beta   90.00000000
_cell_angle_gamma   90.00000000
_symmetry_Int_Tables_number   1
_chemical_formula_structural   FeH20C24N16F
_chemical_formula_sum   'Fe12 H240 C288 N192 F12'
_cell_volume   9596.99980415
_cell_formula_units_Z   12
loop_
 _symmetry_equiv_pos_site_id
 _symmetry_equiv_pos_as_xyz
  1  'x, y, z'
loop_
 _atom_site_type_symbol
 _atom_site_label
 _atom_site_symmetry_multiplicity
 _atom_site_fract_x
 _atom_site_fract_y
 _atom_site_fract_z
 _atom_site_occupancy
 _atom_site_charge
Fe  Fe1  1  0.00000000  0.50000000  0.62159000  1.0 0.7829554259
Fe  Fe2  1  0.00000000  0.50000000  0.78878000  1.0 0.8120384543
Fe  Fe3  1  0.00000000  0.50000000  0.95293000  1.0 0.799147877
Fe  Fe4  1  0.50000000  0.00000000  0.87841000  1.0 0.7829554259
Fe  Fe5  1  0.50000000  0.00000000  0.71122000  1.0 0.8120384543
Fe  Fe6  1  0.50000000  0.00000000  0.54707000  1.0 0.799147877
Fe  Fe7  1  0.50000000  0.00000000  0.37841000  1.0 0.7829554259
Fe  Fe8  1  0.50000000  0.00000000  0.21122000  1.0 0.8120384543
Fe  Fe9  1  0.50000000  0.00000000  0.04707000  1.0 0.799147877
Fe  Fe10  1  0.00000000  0.50000000  0.12159000  1.0 0.7829554259
Fe  Fe11  1  0.00000000  0.50000000  0.28878000  1.0 0.8120384543
Fe  Fe12  1  0.00000000  0.50000000  0.45293000  1.0 0.799147877
H  H1  1  0.91370000  0.40310000  0.54690000  1.0 0.111320044
H  H2  1  0.74310000  0.46510000  0.61490000  1.0 0.1020350817
H  H3  1  0.73840000  0.09660000  0.21310000  1.0 0.111320044
H  H4  1  0.55980000  0.11920000  0.28510000  1.0 0.1020350817
H  H5  1  0.90650000  0.39590000  0.88430000  1.0 0.111320044
H  H6  1  0.01660000  0.23950000  0.92820000  1.0 0.0927324776
H  H7  1  0.08630000  0.59690000  0.54690000  1.0 0.111320044
H  H8  1  0.25690000  0.53490000  0.61490000  1.0 0.1020350817
H  H9  1  0.26160000  0.90340000  0.21310000  1.0 0.111320044
H  H10  1  0.44020000  0.88080000  0.28510000  1.0 0.1020350817
H  H11  1  0.09350000  0.60410000  0.88430000  1.0 0.111320044
H  H12  1  0.98340000  0.76050000  0.92820000  1.0 0.0927324776
H  H13  1  0.09690000  0.41370000  0.54690000  1.0 0.111320044
H  H14  1  0.03490000  0.24310000  0.61490000  1.0 0.1020350817
H  H15  1  0.40340000  0.23840000  0.21310000  1.0 0.111320044
H  H16  1  0.38080000  0.05980000  0.28510000  1.0 0.1020350817
H  H17  1  0.10410000  0.40650000  0.88430000  1.0 0.111320044
H  H18  1  0.26050000  0.51660000  0.92820000  1.0 0.0927324776
H  H19  1  0.90310000  0.58630000  0.54690000  1.0 0.111320044
H  H20  1  0.96510000  0.75690000  0.61490000  1.0 0.1020350817
H  H21  1  0.59660000  0.76160000  0.21310000  1.0 0.111320044
H  H22  1  0.61920000  0.94020000  0.28510000  1.0 0.1020350817
H  H23  1  0.89590000  0.59350000  0.88430000  1.0 0.111320044
H  H24  1  0.73950000  0.48340000  0.92820000  1.0 0.0927324776
H  H25  1  0.58630000  0.90310000  0.95310000  1.0 0.111320044
H  H26  1  0.75690000  0.96510000  0.88510000  1.0 0.1020350817
H  H27  1  0.76160000  0.59660000  0.28690000  1.0 0.111320044
H  H28  1  0.94020000  0.61920000  0.21490000  1.0 0.1020350817
H  H29  1  0.59350000  0.89590000  0.61570000  1.0 0.111320044
H  H30  1  0.48340000  0.73950000  0.57180000  1.0 0.0927324776
H  H31  1  0.41370000  0.09690000  0.95310000  1.0 0.111320044
H  H32  1  0.24310000  0.03490000  0.88510000  1.0 0.1020350817
H  H33  1  0.23840000  0.40340000  0.28690000  1.0 0.111320044
H  H34  1  0.05980000  0.38080000  0.21490000  1.0 0.1020350817
H  H35  1  0.40650000  0.10410000  0.61570000  1.0 0.111320044
H  H36  1  0.51660000  0.26050000  0.57180000  1.0 0.0927324776
H  H37  1  0.40310000  0.91370000  0.95310000  1.0 0.111320044
H  H38  1  0.46510000  0.74310000  0.88510000  1.0 0.1020350817
H  H39  1  0.09660000  0.73840000  0.28690000  1.0 0.111320044
H  H40  1  0.11920000  0.55980000  0.21490000  1.0 0.1020350817
H  H41  1  0.39590000  0.90650000  0.61570000  1.0 0.111320044
H  H42  1  0.23950000  0.01660000  0.57180000  1.0 0.0927324776
H  H43  1  0.59690000  0.08630000  0.95310000  1.0 0.111320044
H  H44  1  0.53490000  0.25690000  0.88510000  1.0 0.1020350817
H  H45  1  0.90340000  0.26160000  0.28690000  1.0 0.111320044
H  H46  1  0.88080000  0.44020000  0.21490000  1.0 0.1020350817
H  H47  1  0.60410000  0.09350000  0.61570000  1.0 0.111320044
H  H48  1  0.76050000  0.98340000  0.57180000  1.0 0.0927324776
H  H49  1  0.58630000  0.09690000  0.45310000  1.0 0.111320044
H  H50  1  0.75690000  0.03490000  0.38510000  1.0 0.1020350817
H  H51  1  0.76160000  0.40340000  0.78690000  1.0 0.111320044
H  H52  1  0.94020000  0.38080000  0.71490000  1.0 0.1020350817
H  H53  1  0.59350000  0.10410000  0.11570000  1.0 0.111320044
H  H54  1  0.48340000  0.26050000  0.07180000  1.0 0.0927324776
H  H55  1  0.41370000  0.90310000  0.45310000  1.0 0.111320044
H  H56  1  0.24310000  0.96510000  0.38510000  1.0 0.1020350817
H  H57  1  0.23840000  0.59660000  0.78690000  1.0 0.111320044
H  H58  1  0.05980000  0.61920000  0.71490000  1.0 0.1020350817
H  H59  1  0.40650000  0.89590000  0.11570000  1.0 0.111320044
H  H60  1  0.51660000  0.73950000  0.07180000  1.0 0.0927324776
H  H61  1  0.40310000  0.08630000  0.45310000  1.0 0.111320044
H  H62  1  0.46510000  0.25690000  0.38510000  1.0 0.1020350817
H  H63  1  0.09660000  0.26160000  0.78690000  1.0 0.111320044
H  H64  1  0.11920000  0.44020000  0.71490000  1.0 0.1020350817
H  H65  1  0.39590000  0.09350000  0.11570000  1.0 0.111320044
H  H66  1  0.23950000  0.98340000  0.07180000  1.0 0.0927324776
H  H67  1  0.59690000  0.91370000  0.45310000  1.0 0.111320044
H  H68  1  0.53490000  0.74310000  0.38510000  1.0 0.1020350817
H  H69  1  0.90340000  0.73840000  0.78690000  1.0 0.111320044
H  H70  1  0.88080000  0.55980000  0.71490000  1.0 0.1020350817
H  H71  1  0.60410000  0.90650000  0.11570000  1.0 0.111320044
H  H72  1  0.76050000  0.01660000  0.07180000  1.0 0.0927324776
H  H73  1  0.91370000  0.59690000  0.04690000  1.0 0.111320044
H  H74  1  0.74310000  0.53490000  0.11490000  1.0 0.1020350817
H  H75  1  0.73840000  0.90340000  0.71310000  1.0 0.111320044
H  H76  1  0.55980000  0.88080000  0.78510000  1.0 0.1020350817
H  H77  1  0.90650000  0.60410000  0.38430000  1.0 0.111320044
H  H78  1  0.01660000  0.76050000  0.42820000  1.0 0.0927324776
H  H79  1  0.08630000  0.40310000  0.04690000  1.0 0.111320044
H  H80  1  0.25690000  0.46510000  0.11490000  1.0 0.1020350817
H  H81  1  0.26160000  0.09660000  0.71310000  1.0 0.111320044
H  H82  1  0.44020000  0.11920000  0.78510000  1.0 0.1020350817
H  H83  1  0.09350000  0.39590000  0.38430000  1.0 0.111320044
H  H84  1  0.98340000  0.23950000  0.42820000  1.0 0.0927324776
H  H85  1  0.09690000  0.58630000  0.04690000  1.0 0.111320044
H  H86  1  0.03490000  0.75690000  0.11490000  1.0 0.1020350817
H  H87  1  0.40340000  0.76160000  0.71310000  1.0 0.111320044
H  H88  1  0.38080000  0.94020000  0.78510000  1.0 0.1020350817
H  H89  1  0.10410000  0.59350000  0.38430000  1.0 0.111320044
H  H90  1  0.26050000  0.48340000  0.42820000  1.0 0.0927324776
H  H91  1  0.90310000  0.41370000  0.04690000  1.0 0.111320044
H  H92  1  0.96510000  0.24310000  0.11490000  1.0 0.1020350817
H  H93  1  0.59660000  0.23840000  0.71310000  1.0 0.111320044
H  H94  1  0.61920000  0.05980000  0.78510000  1.0 0.1020350817
H  H95  1  0.89590000  0.40650000  0.38430000  1.0 0.111320044
H  H96  1  0.73950000  0.51660000  0.42820000  1.0 0.0927324776
H  H97  1  0.70340000  0.39920000  0.53420000  0.26 0.0825852439
H  H98  1  0.61100000  0.36040000  0.47060000  0.26 0.0825852439
H  H99  1  0.57200000  0.28320000  0.40530000  0.26 0.0699184884
H  H100  1  0.76410000  0.22350000  0.37610000  0.26 0.0605555662
H  H101  1  0.80140000  0.29930000  0.44310000  0.26 0.1020350817
H  H102  1  0.59220000  0.20580000  0.32970000  0.26 0.0699184884
H  H103  1  0.29660000  0.60080000  0.53420000  0.26 0.0825852439
H  H104  1  0.38900000  0.63960000  0.47060000  0.26 0.0825852439
H  H105  1  0.42800000  0.71680000  0.40530000  0.26 0.0699184884
H  H106  1  0.23590000  0.77650000  0.37610000  0.26 0.0605555662
H  H107  1  0.19860000  0.70070000  0.44310000  0.26 0.1020350817
H  H108  1  0.40780000  0.79420000  0.32970000  0.26 0.0699184884
H  H109  1  0.10080000  0.20340000  0.53420000  0.26 0.0825852439
H  H110  1  0.13960000  0.11100000  0.47060000  0.26 0.0825852439
H  H111  1  0.21680000  0.07200000  0.40530000  0.26 0.0699184884
H  H112  1  0.27650000  0.26410000  0.37610000  0.26 0.0605555662
H  H113  1  0.20070000  0.30140000  0.44310000  0.26 0.1020350817
H  H114  1  0.29420000  0.09220000  0.32970000  0.26 0.0699184884
H  H115  1  0.89920000  0.79660000  0.53420000  0.26 0.0825852439
H  H116  1  0.86040000  0.88900000  0.47060000  0.26 0.0825852439
H  H117  1  0.78320000  0.92800000  0.40530000  0.26 0.0699184884
H  H118  1  0.72350000  0.73590000  0.37610000  0.26 0.0605555662
H  H119  1  0.79930000  0.69860000  0.44310000  0.26 0.1020350817
H  H120  1  0.70580000  0.90780000  0.32970000  0.26 0.0699184884
H  H121  1  0.79660000  0.89920000  0.96580000  0.26 0.0825852439
H  H122  1  0.88900000  0.86040000  0.02940000  0.26 0.0825852439
H  H123  1  0.92800000  0.78320000  0.09470000  0.26 0.0699184884
H  H124  1  0.73590000  0.72350000  0.12390000  0.26 0.0605555662
H  H125  1  0.69860000  0.79930000  0.05690000  0.26 0.1020350817
H  H126  1  0.90780000  0.70580000  0.17030000  0.26 0.0699184884
H  H127  1  0.20340000  0.10080000  0.96580000  0.26 0.0825852439
H  H128  1  0.11100000  0.13960000  0.02940000  0.26 0.0825852439
H  H129  1  0.07200000  0.21680000  0.09470000  0.26 0.0699184884
H  H130  1  0.26410000  0.27650000  0.12390000  0.26 0.0605555662
H  H131  1  0.30140000  0.20070000  0.05690000  0.26 0.1020350817
H  H132  1  0.09220000  0.29420000  0.17030000  0.26 0.0699184884
H  H133  1  0.39920000  0.70340000  0.96580000  0.26 0.0825852439
H  H134  1  0.36040000  0.61100000  0.02940000  0.26 0.0825852439
H  H135  1  0.28320000  0.57200000  0.09470000  0.26 0.0699184884
H  H136  1  0.22350000  0.76410000  0.12390000  0.26 0.0605555662
H  H137  1  0.29930000  0.80140000  0.05690000  0.26 0.1020350817
H  H138  1  0.20580000  0.59220000  0.17030000  0.26 0.0699184884
H  H139  1  0.60080000  0.29660000  0.96580000  0.26 0.0825852439
H  H140  1  0.63960000  0.38900000  0.02940000  0.26 0.0825852439
H  H141  1  0.71680000  0.42800000  0.09470000  0.26 0.0699184884
H  H142  1  0.77650000  0.23590000  0.12390000  0.26 0.0605555662
H  H143  1  0.70070000  0.19860000  0.05690000  0.26 0.1020350817
H  H144  1  0.79420000  0.40780000  0.17030000  0.26 0.0699184884
H  H145  1  0.79660000  0.10080000  0.46580000  0.26 0.0825852439
H  H146  1  0.88900000  0.13960000  0.52940000  0.26 0.0825852439
H  H147  1  0.92800000  0.21680000  0.59470000  0.26 0.0699184884
H  H148  1  0.73590000  0.27650000  0.62390000  0.26 0.0605555662
H  H149  1  0.69860000  0.20070000  0.55690000  0.26 0.1020350817
H  H150  1  0.90780000  0.29420000  0.67030000  0.26 0.0699184884
H  H151  1  0.20340000  0.89920000  0.46580000  0.26 0.0825852439
H  H152  1  0.11100000  0.86040000  0.52940000  0.26 0.0825852439
H  H153  1  0.07200000  0.78320000  0.59470000  0.26 0.0699184884
H  H154  1  0.26410000  0.72350000  0.62390000  0.26 0.0605555662
H  H155  1  0.30140000  0.79930000  0.55690000  0.26 0.1020350817
H  H156  1  0.09220000  0.70580000  0.67030000  0.26 0.0699184884
H  H157  1  0.39920000  0.29660000  0.46580000  0.26 0.0825852439
H  H158  1  0.36040000  0.38900000  0.52940000  0.26 0.0825852439
H  H159  1  0.28320000  0.42800000  0.59470000  0.26 0.0699184884
H  H160  1  0.22350000  0.23590000  0.62390000  0.26 0.0605555662
H  H161  1  0.29930000  0.19860000  0.55690000  0.26 0.1020350817
H  H162  1  0.20580000  0.40780000  0.67030000  0.26 0.0699184884
H  H163  1  0.60080000  0.70340000  0.46580000  0.26 0.0825852439
H  H164  1  0.63960000  0.61100000  0.52940000  0.26 0.0825852439
H  H165  1  0.71680000  0.57200000  0.59470000  0.26 0.0699184884
H  H166  1  0.77650000  0.76410000  0.62390000  0.26 0.0605555662
H  H167  1  0.70070000  0.80140000  0.55690000  0.26 0.1020350817
H  H168  1  0.79420000  0.59220000  0.67030000  0.26 0.0699184884
H  H169  1  0.70340000  0.60080000  0.03420000  0.26 0.0825852439
H  H170  1  0.61100000  0.63960000  0.97060000  0.26 0.0825852439
H  H171  1  0.57200000  0.71680000  0.90530000  0.26 0.0699184884
H  H172  1  0.76410000  0.77650000  0.87610000  0.26 0.0605555662
H  H173  1  0.80140000  0.70070000  0.94310000  0.26 0.1020350817
H  H174  1  0.59220000  0.79420000  0.82970000  0.26 0.0699184884
H  H175  1  0.29660000  0.39920000  0.03420000  0.26 0.0825852439
H  H176  1  0.38900000  0.36040000  0.97060000  0.26 0.0825852439
H  H177  1  0.42800000  0.28320000  0.90530000  0.26 0.0699184884
H  H178  1  0.23590000  0.22350000  0.87610000  0.26 0.0605555662
H  H179  1  0.19860000  0.29930000  0.94310000  0.26 0.1020350817
H  H180  1  0.40780000  0.20580000  0.82970000  0.26 0.0699184884
H  H181  1  0.10080000  0.79660000  0.03420000  0.26 0.0825852439
H  H182  1  0.13960000  0.88900000  0.97060000  0.26 0.0825852439
H  H183  1  0.21680000  0.92800000  0.90530000  0.26 0.0699184884
H  H184  1  0.27650000  0.73590000  0.87610000  0.26 0.0605555662
H  H185  1  0.20070000  0.69860000  0.94310000  0.26 0.1020350817
H  H186  1  0.29420000  0.90780000  0.82970000  0.26 0.0699184884
H  H187  1  0.89920000  0.20340000  0.03420000  0.26 0.0825852439
H  H188  1  0.86040000  0.11100000  0.97060000  0.26 0.0825852439
H  H189  1  0.78320000  0.07200000  0.90530000  0.26 0.0699184884
H  H190  1  0.72350000  0.26410000  0.87610000  0.26 0.0605555662
H  H191  1  0.79930000  0.30140000  0.94310000  0.26 0.1020350817
H  H192  1  0.70580000  0.09220000  0.82970000  0.26 0.0699184884
H  H193  1  0.95610000  0.18500000  0.86450000  0.5 0.0605555662
H  H194  1  0.82140000  0.24870000  0.77630000  0.5 0.0825852439
H  H195  1  0.77280000  0.18760000  0.70400000  0.5 0.0825852439
H  H196  1  0.87840000  0.02710000  0.73780000  0.5 0.1020350817
H  H197  1  0.93430000  0.07990000  0.81100000  0.5 0.1020350817
H  H198  1  0.79430000  0.01740000  0.66520000  0.5 0.0699184884
H  H199  1  0.04390000  0.81500000  0.86450000  0.5 0.0605555662
H  H200  1  0.17860000  0.75130000  0.77630000  0.5 0.0825852439
H  H201  1  0.22720000  0.81240000  0.70400000  0.5 0.0825852439
H  H202  1  0.12160000  0.97290000  0.73780000  0.5 0.1020350817
H  H203  1  0.06570000  0.92010000  0.81100000  0.5 0.1020350817
H  H204  1  0.20570000  0.98260000  0.66520000  0.5 0.0699184884
H  H205  1  0.31500000  0.45610000  0.86450000  0.5 0.0605555662
H  H206  1  0.25130000  0.32140000  0.77630000  0.5 0.0825852439
H  H207  1  0.31240000  0.27280000  0.70400000  0.5 0.0825852439
H  H208  1  0.47290000  0.37840000  0.73780000  0.5 0.1020350817
H  H209  1  0.42010000  0.43430000  0.81100000  0.5 0.1020350817
H  H210  1  0.48260000  0.29430000  0.66520000  0.5 0.0699184884
H  H211  1  0.68500000  0.54390000  0.86450000  0.5 0.0605555662
H  H212  1  0.74870000  0.67860000  0.77630000  0.5 0.0825852439
H  H213  1  0.68760000  0.72720000  0.70400000  0.5 0.0825852439
H  H214  1  0.52710000  0.62160000  0.73780000  0.5 0.1020350817
H  H215  1  0.57990000  0.56570000  0.81100000  0.5 0.1020350817
H  H216  1  0.51740000  0.70570000  0.66520000  0.5 0.0699184884
H  H217  1  0.54390000  0.68500000  0.63550000  0.5 0.0605555662
H  H218  1  0.67860000  0.74870000  0.72370000  0.5 0.0825852439
H  H219  1  0.72720000  0.68760000  0.79600000  0.5 0.0825852439
H  H220  1  0.62160000  0.52710000  0.76220000  0.5 0.1020350817
H  H221  1  0.56570000  0.57990000  0.68900000  0.5 0.1020350817
H  H222  1  0.70570000  0.51740000  0.83480000  0.5 0.0699184884
H  H223  1  0.45610000  0.31500000  0.63550000  0.5 0.0605555662
H  H224  1  0.32140000  0.25130000  0.72370000  0.5 0.0825852439
H  H225  1  0.27280000  0.31240000  0.79600000  0.5 0.0825852439
H  H226  1  0.37840000  0.47290000  0.76220000  0.5 0.1020350817
H  H227  1  0.43430000  0.42010000  0.68900000  0.5 0.1020350817
H  H228  1  0.29430000  0.48260000  0.83480000  0.5 0.0699184884
H  H229  1  0.18500000  0.95610000  0.63550000  0.5 0.0605555662
H  H230  1  0.24870000  0.82140000  0.72370000  0.5 0.0825852439
H  H231  1  0.18760000  0.77280000  0.79600000  0.5 0.0825852439
H  H232  1  0.02710000  0.87840000  0.76220000  0.5 0.1020350817
H  H233  1  0.07990000  0.93430000  0.68900000  0.5 0.1020350817
H  H234  1  0.01740000  0.79430000  0.83480000  0.5 0.0699184884
H  H235  1  0.81500000  0.04390000  0.63550000  0.5 0.0605555662
H  H236  1  0.75130000  0.17860000  0.72370000  0.5 0.0825852439
H  H237  1  0.81240000  0.22720000  0.79600000  0.5 0.0825852439
H  H238  1  0.97290000  0.12160000  0.76220000  0.5 0.1020350817
H  H239  1  0.92010000  0.06570000  0.68900000  0.5 0.1020350817
H  H240  1  0.98260000  0.20570000  0.83480000  0.5 0.0699184884
H  H241  1  0.54390000  0.31500000  0.13550000  0.5 0.0605555662
H  H242  1  0.67860000  0.25130000  0.22370000  0.5 0.0825852439
H  H243  1  0.72720000  0.31240000  0.29600000  0.5 0.0825852439
H  H244  1  0.62160000  0.47290000  0.26220000  0.5 0.1020350817
H  H245  1  0.56570000  0.42010000  0.18900000  0.5 0.1020350817
H  H246  1  0.70570000  0.48260000  0.33480000  0.5 0.0699184884
H  H247  1  0.45610000  0.68500000  0.13550000  0.5 0.0605555662
H  H248  1  0.32140000  0.74870000  0.22370000  0.5 0.0825852439
H  H249  1  0.27280000  0.68760000  0.29600000  0.5 0.0825852439
H  H250  1  0.37840000  0.52710000  0.26220000  0.5 0.1020350817
H  H251  1  0.43430000  0.57990000  0.18900000  0.5 0.1020350817
H  H252  1  0.29430000  0.51740000  0.33480000  0.5 0.0699184884
H  H253  1  0.18500000  0.04390000  0.13550000  0.5 0.0605555662
H  H254  1  0.24870000  0.17860000  0.22370000  0.5 0.0825852439
H  H255  1  0.18760000  0.22720000  0.29600000  0.5 0.0825852439
H  H256  1  0.02710000  0.12160000  0.26220000  0.5 0.1020350817
H  H257  1  0.07990000  0.06570000  0.18900000  0.5 0.1020350817
H  H258  1  0.01740000  0.20570000  0.33480000  0.5 0.0699184884
H  H259  1  0.81500000  0.95610000  0.13550000  0.5 0.0605555662
H  H260  1  0.75130000  0.82140000  0.22370000  0.5 0.0825852439
H  H261  1  0.81240000  0.77280000  0.29600000  0.5 0.0825852439
H  H262  1  0.97290000  0.87840000  0.26220000  0.5 0.1020350817
H  H263  1  0.92010000  0.93430000  0.18900000  0.5 0.1020350817
H  H264  1  0.98260000  0.79430000  0.33480000  0.5 0.0699184884
H  H265  1  0.95610000  0.81500000  0.36450000  0.5 0.0605555662
H  H266  1  0.82140000  0.75130000  0.27630000  0.5 0.0825852439
H  H267  1  0.77280000  0.81240000  0.20400000  0.5 0.0825852439
H  H268  1  0.87840000  0.97290000  0.23780000  0.5 0.1020350817
H  H269  1  0.93430000  0.92010000  0.31100000  0.5 0.1020350817
H  H270  1  0.79430000  0.98260000  0.16520000  0.5 0.0699184884
H  H271  1  0.04390000  0.18500000  0.36450000  0.5 0.0605555662
H  H272  1  0.17860000  0.24870000  0.27630000  0.5 0.0825852439
H  H273  1  0.22720000  0.18760000  0.20400000  0.5 0.0825852439
H  H274  1  0.12160000  0.02710000  0.23780000  0.5 0.1020350817
H  H275  1  0.06570000  0.07990000  0.31100000  0.5 0.1020350817
H  H276  1  0.20570000  0.01740000  0.16520000  0.5 0.0699184884
H  H277  1  0.31500000  0.54390000  0.36450000  0.5 0.0605555662
H  H278  1  0.25130000  0.67860000  0.27630000  0.5 0.0825852439
H  H279  1  0.31240000  0.72720000  0.20400000  0.5 0.0825852439
H  H280  1  0.47290000  0.62160000  0.23780000  0.5 0.1020350817
H  H281  1  0.42010000  0.56570000  0.31100000  0.5 0.1020350817
H  H282  1  0.48260000  0.70570000  0.16520000  0.5 0.0699184884
H  H283  1  0.68500000  0.45610000  0.36450000  0.5 0.0605555662
H  H284  1  0.74870000  0.32140000  0.27630000  0.5 0.0825852439
H  H285  1  0.68760000  0.27280000  0.20400000  0.5 0.0825852439
H  H286  1  0.52710000  0.37840000  0.23780000  0.5 0.1020350817
H  H287  1  0.57990000  0.43430000  0.31100000  0.5 0.1020350817
H  H288  1  0.51740000  0.29430000  0.16520000  0.5 0.0699184884
H  H289  1  0.85030000  0.34250000  0.50050000  0.74 0.1020350817
H  H290  1  0.67180000  0.34100000  0.47590000  0.74 0.1020350817
H  H291  1  0.61520000  0.27700000  0.40950000  0.74 0.0699184884
H  H292  1  0.79400000  0.20150000  0.35690000  0.74 0.0699184884
H  H293  1  0.84930000  0.26540000  0.42370000  0.74 0.0699184884
H  H294  1  0.61580000  0.19020000  0.33590000  0.74 0.1020350817
H  H295  1  0.14970000  0.65750000  0.50050000  0.74 0.1020350817
H  H296  1  0.32820000  0.65900000  0.47590000  0.74 0.1020350817
H  H297  1  0.38480000  0.72300000  0.40950000  0.74 0.0699184884
H  H298  1  0.20600000  0.79850000  0.35690000  0.74 0.0699184884
H  H299  1  0.15070000  0.73460000  0.42370000  0.74 0.0699184884
H  H300  1  0.38420000  0.80980000  0.33590000  0.74 0.1020350817
H  H301  1  0.15750000  0.35030000  0.50050000  0.74 0.1020350817
H  H302  1  0.15900000  0.17180000  0.47590000  0.74 0.1020350817
H  H303  1  0.22300000  0.11520000  0.40950000  0.74 0.0699184884
H  H304  1  0.29850000  0.29400000  0.35690000  0.74 0.0699184884
H  H305  1  0.23460000  0.34930000  0.42370000  0.74 0.0699184884
H  H306  1  0.30980000  0.11580000  0.33590000  0.74 0.1020350817
H  H307  1  0.84250000  0.64970000  0.50050000  0.74 0.1020350817
H  H308  1  0.84100000  0.82820000  0.47590000  0.74 0.1020350817
H  H309  1  0.77700000  0.88480000  0.40950000  0.74 0.0699184884
H  H310  1  0.70150000  0.70600000  0.35690000  0.74 0.0699184884
H  H311  1  0.76540000  0.65070000  0.42370000  0.74 0.0699184884
H  H312  1  0.69020000  0.88420000  0.33590000  0.74 0.1020350817
H  H313  1  0.64970000  0.84250000  0.99950000  0.74 0.1020350817
H  H314  1  0.82820000  0.84100000  0.02410000  0.74 0.1020350817
H  H315  1  0.88480000  0.77700000  0.09050000  0.74 0.0699184884
H  H316  1  0.70600000  0.70150000  0.14310000  0.74 0.0699184884
H  H317  1  0.65070000  0.76540000  0.07630000  0.74 0.0699184884
H  H318  1  0.88420000  0.69020000  0.16410000  0.74 0.1020350817
H  H319  1  0.35030000  0.15750000  0.99950000  0.74 0.1020350817
H  H320  1  0.17180000  0.15900000  0.02410000  0.74 0.1020350817
H  H321  1  0.11520000  0.22300000  0.09050000  0.74 0.0699184884
H  H322  1  0.29400000  0.29850000  0.14310000  0.74 0.0699184884
H  H323  1  0.34930000  0.23460000  0.07630000  0.74 0.0699184884
H  H324  1  0.11580000  0.30980000  0.16410000  0.74 0.1020350817
H  H325  1  0.34250000  0.85030000  0.99950000  0.74 0.1020350817
H  H326  1  0.34100000  0.67180000  0.02410000  0.74 0.1020350817
H  H327  1  0.27700000  0.61520000  0.09050000  0.74 0.0699184884
H  H328  1  0.20150000  0.79400000  0.14310000  0.74 0.0699184884
H  H329  1  0.26540000  0.84930000  0.07630000  0.74 0.0699184884
H  H330  1  0.19020000  0.61580000  0.16410000  0.74 0.1020350817
H  H331  1  0.65750000  0.14970000  0.99950000  0.74 0.1020350817
H  H332  1  0.65900000  0.32820000  0.02410000  0.74 0.1020350817
H  H333  1  0.72300000  0.38480000  0.09050000  0.74 0.0699184884
H  H334  1  0.79850000  0.20600000  0.14310000  0.74 0.0699184884
H  H335  1  0.73460000  0.15070000  0.07630000  0.74 0.0699184884
H  H336  1  0.80980000  0.38420000  0.16410000  0.74 0.1020350817
H  H337  1  0.64970000  0.15750000  0.49950000  0.74 0.1020350817
H  H338  1  0.82820000  0.15900000  0.52410000  0.74 0.1020350817
H  H339  1  0.88480000  0.22300000  0.59050000  0.74 0.0699184884
H  H340  1  0.70600000  0.29850000  0.64310000  0.74 0.0699184884
H  H341  1  0.65070000  0.23460000  0.57630000  0.74 0.0699184884
H  H342  1  0.88420000  0.30980000  0.66410000  0.74 0.1020350817
H  H343  1  0.35030000  0.84250000  0.49950000  0.74 0.1020350817
H  H344  1  0.17180000  0.84100000  0.52410000  0.74 0.1020350817
H  H345  1  0.11520000  0.77700000  0.59050000  0.74 0.0699184884
H  H346  1  0.29400000  0.70150000  0.64310000  0.74 0.0699184884
H  H347  1  0.34930000  0.76540000  0.57630000  0.74 0.0699184884
H  H348  1  0.11580000  0.69020000  0.66410000  0.74 0.1020350817
H  H349  1  0.34250000  0.14970000  0.49950000  0.74 0.1020350817
H  H350  1  0.34100000  0.32820000  0.52410000  0.74 0.1020350817
H  H351  1  0.27700000  0.38480000  0.59050000  0.74 0.0699184884
H  H352  1  0.20150000  0.20600000  0.64310000  0.74 0.0699184884
H  H353  1  0.26540000  0.15070000  0.57630000  0.74 0.0699184884
H  H354  1  0.19020000  0.38420000  0.66410000  0.74 0.1020350817
H  H355  1  0.65750000  0.85030000  0.49950000  0.74 0.1020350817
H  H356  1  0.65900000  0.67180000  0.52410000  0.74 0.1020350817
H  H357  1  0.72300000  0.61520000  0.59050000  0.74 0.0699184884
H  H358  1  0.79850000  0.79400000  0.64310000  0.74 0.0699184884
H  H359  1  0.73460000  0.84930000  0.57630000  0.74 0.0699184884
H  H360  1  0.80980000  0.61580000  0.66410000  0.74 0.1020350817
H  H361  1  0.85030000  0.65750000  0.00050000  0.74 0.1020350817
H  H362  1  0.67180000  0.65900000  0.97590000  0.74 0.1020350817
H  H363  1  0.61520000  0.72300000  0.90950000  0.74 0.0699184884
H  H364  1  0.79400000  0.79850000  0.85690000  0.74 0.0699184884
H  H365  1  0.84930000  0.73460000  0.92370000  0.74 0.0699184884
H  H366  1  0.61580000  0.80980000  0.83590000  0.74 0.1020350817
H  H367  1  0.14970000  0.34250000  0.00050000  0.74 0.1020350817
H  H368  1  0.32820000  0.34100000  0.97590000  0.74 0.1020350817
H  H369  1  0.38480000  0.27700000  0.90950000  0.74 0.0699184884
H  H370  1  0.20600000  0.20150000  0.85690000  0.74 0.0699184884
H  H371  1  0.15070000  0.26540000  0.92370000  0.74 0.0699184884
H  H372  1  0.38420000  0.19020000  0.83590000  0.74 0.1020350817
H  H373  1  0.15750000  0.64970000  0.00050000  0.74 0.1020350817
H  H374  1  0.15900000  0.82820000  0.97590000  0.74 0.1020350817
H  H375  1  0.22300000  0.88480000  0.90950000  0.74 0.0699184884
H  H376  1  0.29850000  0.70600000  0.85690000  0.74 0.0699184884
H  H377  1  0.23460000  0.65070000  0.92370000  0.74 0.0699184884
H  H378  1  0.30980000  0.88420000  0.83590000  0.74 0.1020350817
H  H379  1  0.84250000  0.35030000  0.00050000  0.74 0.1020350817
H  H380  1  0.84100000  0.17180000  0.97590000  0.74 0.1020350817
H  H381  1  0.77700000  0.11520000  0.90950000  0.74 0.0699184884
H  H382  1  0.70150000  0.29400000  0.85690000  0.74 0.0699184884
H  H383  1  0.76540000  0.34930000  0.92370000  0.74 0.0699184884
H  H384  1  0.69020000  0.11580000  0.83590000  0.74 0.1020350817
C  C1  1  0.88230000  0.42470000  0.57047000  1.0 -0.1001275642
C  C2  1  0.78940000  0.45870000  0.60760000  1.0 -0.1566925388
C  C3  1  0.69200000  0.09220000  0.22144000  1.0 -0.0695398877
C  C4  1  0.59460000  0.10460000  0.26116000  1.0 -0.0539660364
C  C5  1  0.93910000  0.36863000  0.90213000  1.0 0.0825852439
C  C6  1  0.99910000  0.28370000  0.92619000  1.0 -0.029485286
C  C7  1  0.11770000  0.57530000  0.57047000  1.0 -0.1001275642
C  C8  1  0.21060000  0.54130000  0.60760000  1.0 -0.1566925388
C  C9  1  0.30800000  0.90780000  0.22144000  1.0 -0.0695398877
C  C10  1  0.40540000  0.89540000  0.26116000  1.0 -0.0539660364
C  C11  1  0.06090000  0.63137000  0.90213000  1.0 0.0825852439
C  C12  1  0.00090000  0.71630000  0.92619000  1.0 -0.029485286
C  C13  1  0.07530000  0.38230000  0.57047000  1.0 -0.1001275642
C  C14  1  0.04130000  0.28940000  0.60760000  1.0 -0.1566925388
C  C15  1  0.40780000  0.19200000  0.22144000  1.0 -0.0695398877
C  C16  1  0.39540000  0.09460000  0.26116000  1.0 -0.0539660364
C  C17  1  0.13137000  0.43910000  0.90213000  1.0 0.0825852439
C  C18  1  0.21630000  0.49910000  0.92619000  1.0 -0.029485286
C  C19  1  0.92470000  0.61770000  0.57047000  1.0 -0.1001275642
C  C20  1  0.95870000  0.71060000  0.60760000  1.0 -0.1566925388
C  C21  1  0.59220000  0.80800000  0.22144000  1.0 -0.0695398877
C  C22  1  0.60460000  0.90540000  0.26116000  1.0 -0.0539660364
C  C23  1  0.86863000  0.56090000  0.90213000  1.0 0.0825852439
C  C24  1  0.78370000  0.50090000  0.92619000  1.0 -0.029485286
C  C25  1  0.61770000  0.92470000  0.92953000  1.0 -0.1001275642
C  C26  1  0.71060000  0.95870000  0.89240000  1.0 -0.1566925388
C  C27  1  0.80800000  0.59220000  0.27856000  1.0 -0.0695398877
C  C28  1  0.90540000  0.60460000  0.23884000  1.0 -0.0539660364
C  C29  1  0.56090000  0.86863000  0.59787000  1.0 0.0825852439
C  C30  1  0.50090000  0.78370000  0.57381000  1.0 -0.029485286
C  C31  1  0.38230000  0.07530000  0.92953000  1.0 -0.1001275642
C  C32  1  0.28940000  0.04130000  0.89240000  1.0 -0.1566925388
C  C33  1  0.19200000  0.40780000  0.27856000  1.0 -0.0695398877
C  C34  1  0.09460000  0.39540000  0.23884000  1.0 -0.0539660364
C  C35  1  0.43910000  0.13137000  0.59787000  1.0 0.0825852439
C  C36  1  0.49910000  0.21630000  0.57381000  1.0 -0.029485286
C  C37  1  0.42470000  0.88230000  0.92953000  1.0 -0.1001275642
C  C38  1  0.45870000  0.78940000  0.89240000  1.0 -0.1566925388
C  C39  1  0.09220000  0.69200000  0.27856000  1.0 -0.0695398877
C  C40  1  0.10460000  0.59460000  0.23884000  1.0 -0.0539660364
C  C41  1  0.36863000  0.93910000  0.59787000  1.0 0.0825852439
C  C42  1  0.28370000  0.99910000  0.57381000  1.0 -0.029485286
C  C43  1  0.57530000  0.11770000  0.92953000  1.0 -0.1001275642
C  C44  1  0.54130000  0.21060000  0.89240000  1.0 -0.1566925388
C  C45  1  0.90780000  0.30800000  0.27856000  1.0 -0.0695398877
C  C46  1  0.89540000  0.40540000  0.23884000  1.0 -0.0539660364
C  C47  1  0.63137000  0.06090000  0.59787000  1.0 0.0825852439
C  C48  1  0.71630000  0.00090000  0.57381000  1.0 -0.029485286
C  C49  1  0.61770000  0.07530000  0.42953000  1.0 -0.1001275642
C  C50  1  0.71060000  0.04130000  0.39240000  1.0 -0.1566925388
C  C51  1  0.80800000  0.40780000  0.77856000  1.0 -0.0695398877
C  C52  1  0.90540000  0.39540000  0.73884000  1.0 -0.0539660364
C  C53  1  0.56090000  0.13137000  0.09787000  1.0 0.0825852439
C  C54  1  0.50090000  0.21630000  0.07381000  1.0 -0.029485286
C  C55  1  0.38230000  0.92470000  0.42953000  1.0 -0.1001275642
C  C56  1  0.28940000  0.95870000  0.39240000  1.0 -0.1566925388
C  C57  1  0.19200000  0.59220000  0.77856000  1.0 -0.0695398877
C  C58  1  0.09460000  0.60460000  0.73884000  1.0 -0.0539660364
C  C59  1  0.43910000  0.86863000  0.09787000  1.0 0.0825852439
C  C60  1  0.49910000  0.78370000  0.07381000  1.0 -0.029485286
C  C61  1  0.42470000  0.11770000  0.42953000  1.0 -0.1001275642
C  C62  1  0.45870000  0.21060000  0.39240000  1.0 -0.1566925388
C  C63  1  0.09220000  0.30800000  0.77856000  1.0 -0.0695398877
C  C64  1  0.10460000  0.40540000  0.73884000  1.0 -0.0539660364
C  C65  1  0.36863000  0.06090000  0.09787000  1.0 0.0825852439
C  C66  1  0.28370000  0.00090000  0.07381000  1.0 -0.029485286
C  C67  1  0.57530000  0.88230000  0.42953000  1.0 -0.1001275642
C  C68  1  0.54130000  0.78940000  0.39240000  1.0 -0.1566925388
C  C69  1  0.90780000  0.69200000  0.77856000  1.0 -0.0695398877
C  C70  1  0.89540000  0.59460000  0.73884000  1.0 -0.0539660364
C  C71  1  0.63137000  0.93910000  0.09787000  1.0 0.0825852439
C  C72  1  0.71630000  0.99910000  0.07381000  1.0 -0.029485286
C  C73  1  0.88230000  0.57530000  0.07047000  1.0 -0.1001275642
C  C74  1  0.78940000  0.54130000  0.10760000  1.0 -0.1566925388
C  C75  1  0.69200000  0.90780000  0.72144000  1.0 -0.0695398877
C  C76  1  0.59460000  0.89540000  0.76116000  1.0 -0.0539660364
C  C77  1  0.93910000  0.63137000  0.40213000  1.0 0.0825852439
C  C78  1  0.99910000  0.71630000  0.42619000  1.0 -0.029485286
C  C79  1  0.11770000  0.42470000  0.07047000  1.0 -0.1001275642
C  C80  1  0.21060000  0.45870000  0.10760000  1.0 -0.1566925388
C  C81  1  0.30800000  0.09220000  0.72144000  1.0 -0.0695398877
C  C82  1  0.40540000  0.10460000  0.76116000  1.0 -0.0539660364
C  C83  1  0.06090000  0.36863000  0.40213000  1.0 0.0825852439
C  C84  1  0.00090000  0.28370000  0.42619000  1.0 -0.029485286
C  C85  1  0.07530000  0.61770000  0.07047000  1.0 -0.1001275642
C  C86  1  0.04130000  0.71060000  0.10760000  1.0 -0.1566925388
C  C87  1  0.40780000  0.80800000  0.72144000  1.0 -0.0695398877
C  C88  1  0.39540000  0.90540000  0.76116000  1.0 -0.0539660364
C  C89  1  0.13137000  0.56090000  0.40213000  1.0 0.0825852439
C  C90  1  0.21630000  0.50090000  0.42619000  1.0 -0.029485286
C  C91  1  0.92470000  0.38230000  0.07047000  1.0 -0.1001275642
C  C92  1  0.95870000  0.28940000  0.10760000  1.0 -0.1566925388
C  C93  1  0.59220000  0.19200000  0.72144000  1.0 -0.0695398877
C  C94  1  0.60460000  0.09460000  0.76116000  1.0 -0.0539660364
C  C95  1  0.86863000  0.43910000  0.40213000  1.0 0.0825852439
C  C96  1  0.78370000  0.49910000  0.42619000  1.0 -0.029485286
C  C97  1  0.73390000  0.37500000  0.51150000  0.26 0.0438380235
C  C98  1  0.70910000  0.33230000  0.46630000  0.26 -0.0400217305
C  C99  1  0.64150000  0.33110000  0.45240000  0.26 -0.1088847794
C  C100  1  0.61870000  0.28720000  0.41230000  0.26 -0.1088847794
C  C101  1  0.66460000  0.24870000  0.38180000  0.26 0.0127339656
C  C102  1  0.73290000  0.25140000  0.39500000  0.26 0.0127339656
C  C103  1  0.75480000  0.29490000  0.43590000  0.26 -0.0109096699
C  C104  1  0.63900000  0.20660000  0.33720000  0.26 0.0127339656
C  C105  1  0.26610000  0.62500000  0.51150000  0.26 0.0438380235
C  C106  1  0.29090000  0.66770000  0.46630000  0.26 -0.0400217305
C  C107  1  0.35850000  0.66890000  0.45240000  0.26 -0.1088847794
C  C108  1  0.38130000  0.71280000  0.41230000  0.26 -0.1088847794
C  C109  1  0.33540000  0.75130000  0.38180000  0.26 0.0127339656
C  C110  1  0.26710000  0.74860000  0.39500000  0.26 0.0127339656
C  C111  1  0.24520000  0.70510000  0.43590000  0.26 -0.0109096699
C  C112  1  0.36100000  0.79340000  0.33720000  0.26 0.0127339656
C  C113  1  0.12500000  0.23390000  0.51150000  0.26 0.0438380235
C  C114  1  0.16770000  0.20910000  0.46630000  0.26 -0.0400217305
C  C115  1  0.16890000  0.14150000  0.45240000  0.26 -0.1088847794
C  C116  1  0.21280000  0.11870000  0.41230000  0.26 -0.1088847794
C  C117  1  0.25130000  0.16460000  0.38180000  0.26 0.0127339656
C  C118  1  0.24860000  0.23290000  0.39500000  0.26 0.0127339656
C  C119  1  0.20510000  0.25480000  0.43590000  0.26 -0.0109096699
C  C120  1  0.29340000  0.13900000  0.33720000  0.26 0.0127339656
C  C121  1  0.87500000  0.76610000  0.51150000  0.26 0.0438380235
C  C122  1  0.83230000  0.79090000  0.46630000  0.26 -0.0400217305
C  C123  1  0.83110000  0.85850000  0.45240000  0.26 -0.1088847794
C  C124  1  0.78720000  0.88130000  0.41230000  0.26 -0.1088847794
C  C125  1  0.74870000  0.83540000  0.38180000  0.26 0.0127339656
C  C126  1  0.75140000  0.76710000  0.39500000  0.26 0.0127339656
C  C127  1  0.79490000  0.74520000  0.43590000  0.26 -0.0109096699
C  C128  1  0.70660000  0.86100000  0.33720000  0.26 0.0127339656
C  C129  1  0.76610000  0.87500000  0.98850000  0.26 0.0438380235
C  C130  1  0.79090000  0.83230000  0.03370000  0.26 -0.0400217305
C  C131  1  0.85850000  0.83110000  0.04760000  0.26 -0.1088847794
C  C132  1  0.88130000  0.78720000  0.08770000  0.26 -0.1088847794
C  C133  1  0.83540000  0.74870000  0.11820000  0.26 0.0127339656
C  C134  1  0.76710000  0.75140000  0.10500000  0.26 0.0127339656
C  C135  1  0.74520000  0.79490000  0.06410000  0.26 -0.0109096699
C  C136  1  0.86100000  0.70660000  0.16280000  0.26 0.0127339656
C  C137  1  0.23390000  0.12500000  0.98850000  0.26 0.0438380235
C  C138  1  0.20910000  0.16770000  0.03370000  0.26 -0.0400217305
C  C139  1  0.14150000  0.16890000  0.04760000  0.26 -0.1088847794
C  C140  1  0.11870000  0.21280000  0.08770000  0.26 -0.1088847794
C  C141  1  0.16460000  0.25130000  0.11820000  0.26 0.0127339656
C  C142  1  0.23290000  0.24860000  0.10500000  0.26 0.0127339656
C  C143  1  0.25480000  0.20510000  0.06410000  0.26 -0.0109096699
C  C144  1  0.13900000  0.29340000  0.16280000  0.26 0.0127339656
C  C145  1  0.37500000  0.73390000  0.98850000  0.26 0.0438380235
C  C146  1  0.33230000  0.70910000  0.03370000  0.26 -0.0400217305
C  C147  1  0.33110000  0.64150000  0.04760000  0.26 -0.1088847794
C  C148  1  0.28720000  0.61870000  0.08770000  0.26 -0.1088847794
C  C149  1  0.24870000  0.66460000  0.11820000  0.26 0.0127339656
C  C150  1  0.25140000  0.73290000  0.10500000  0.26 0.0127339656
C  C151  1  0.29490000  0.75480000  0.06410000  0.26 -0.0109096699
C  C152  1  0.20660000  0.63900000  0.16280000  0.26 0.0127339656
C  C153  1  0.62500000  0.26610000  0.98850000  0.26 0.0438380235
C  C154  1  0.66770000  0.29090000  0.03370000  0.26 -0.0400217305
C  C155  1  0.66890000  0.35850000  0.04760000  0.26 -0.1088847794
C  C156  1  0.71280000  0.38130000  0.08770000  0.26 -0.1088847794
C  C157  1  0.75130000  0.33540000  0.11820000  0.26 0.0127339656
C  C158  1  0.74860000  0.26710000  0.10500000  0.26 0.0127339656
C  C159  1  0.70510000  0.24520000  0.06410000  0.26 -0.0109096699
C  C160  1  0.79340000  0.36100000  0.16280000  0.26 0.0127339656
C  C161  1  0.76610000  0.12500000  0.48850000  0.26 0.0438380235
C  C162  1  0.79090000  0.16770000  0.53370000  0.26 -0.0400217305
C  C163  1  0.85850000  0.16890000  0.54760000  0.26 -0.1088847794
C  C164  1  0.88130000  0.21280000  0.58770000  0.26 -0.1088847794
C  C165  1  0.83540000  0.25130000  0.61820000  0.26 0.0127339656
C  C166  1  0.76710000  0.24860000  0.60500000  0.26 0.0127339656
C  C167  1  0.74520000  0.20510000  0.56410000  0.26 -0.0109096699
C  C168  1  0.86100000  0.29340000  0.66280000  0.26 0.0127339656
C  C169  1  0.23390000  0.87500000  0.48850000  0.26 0.0438380235
C  C170  1  0.20910000  0.83230000  0.53370000  0.26 -0.0400217305
C  C171  1  0.14150000  0.83110000  0.54760000  0.26 -0.1088847794
C  C172  1  0.11870000  0.78720000  0.58770000  0.26 -0.1088847794
C  C173  1  0.16460000  0.74870000  0.61820000  0.26 0.0127339656
C  C174  1  0.23290000  0.75140000  0.60500000  0.26 0.0127339656
C  C175  1  0.25480000  0.79490000  0.56410000  0.26 -0.0109096699
C  C176  1  0.13900000  0.70660000  0.66280000  0.26 0.0127339656
C  C177  1  0.37500000  0.26610000  0.48850000  0.26 0.0438380235
C  C178  1  0.33230000  0.29090000  0.53370000  0.26 -0.0400217305
C  C179  1  0.33110000  0.35850000  0.54760000  0.26 -0.1088847794
C  C180  1  0.28720000  0.38130000  0.58770000  0.26 -0.1088847794
C  C181  1  0.24870000  0.33540000  0.61820000  0.26 0.0127339656
C  C182  1  0.25140000  0.26710000  0.60500000  0.26 0.0127339656
C  C183  1  0.29490000  0.24520000  0.56410000  0.26 -0.0109096699
C  C184  1  0.20660000  0.36100000  0.66280000  0.26 0.0127339656
C  C185  1  0.62500000  0.73390000  0.48850000  0.26 0.0438380235
C  C186  1  0.66770000  0.70910000  0.53370000  0.26 -0.0400217305
C  C187  1  0.66890000  0.64150000  0.54760000  0.26 -0.1088847794
C  C188  1  0.71280000  0.61870000  0.58770000  0.26 -0.1088847794
C  C189  1  0.75130000  0.66460000  0.61820000  0.26 0.0127339656
C  C190  1  0.74860000  0.73290000  0.60500000  0.26 0.0127339656
C  C191  1  0.70510000  0.75480000  0.56410000  0.26 -0.0109096699
C  C192  1  0.79340000  0.63900000  0.66280000  0.26 0.0127339656
C  C193  1  0.73390000  0.62500000  0.01150000  0.26 0.0438380235
C  C194  1  0.70910000  0.66770000  0.96630000  0.26 -0.0400217305
C  C195  1  0.64150000  0.66890000  0.95240000  0.26 -0.1088847794
C  C196  1  0.61870000  0.71280000  0.91230000  0.26 -0.1088847794
C  C197  1  0.66460000  0.75130000  0.88180000  0.26 0.0127339656
C  C198  1  0.73290000  0.74860000  0.89500000  0.26 0.0127339656
C  C199  1  0.75480000  0.70510000  0.93590000  0.26 -0.0109096699
C  C200  1  0.63900000  0.79340000  0.83720000  0.26 0.0127339656
C  C201  1  0.26610000  0.37500000  0.01150000  0.26 0.0438380235
C  C202  1  0.29090000  0.33230000  0.96630000  0.26 -0.0400217305
C  C203  1  0.35850000  0.33110000  0.95240000  0.26 -0.1088847794
C  C204  1  0.38130000  0.28720000  0.91230000  0.26 -0.1088847794
C  C205  1  0.33540000  0.24870000  0.88180000  0.26 0.0127339656
C  C206  1  0.26710000  0.25140000  0.89500000  0.26 0.0127339656
C  C207  1  0.24520000  0.29490000  0.93590000  0.26 -0.0109096699
C  C208  1  0.36100000  0.20660000  0.83720000  0.26 0.0127339656
C  C209  1  0.12500000  0.76610000  0.01150000  0.26 0.0438380235
C  C210  1  0.16770000  0.79090000  0.96630000  0.26 -0.0400217305
C  C211  1  0.16890000  0.85850000  0.95240000  0.26 -0.1088847794
C  C212  1  0.21280000  0.88130000  0.91230000  0.26 -0.1088847794
C  C213  1  0.25130000  0.83540000  0.88180000  0.26 0.0127339656
C  C214  1  0.24860000  0.76710000  0.89500000  0.26 0.0127339656
C  C215  1  0.20510000  0.74520000  0.93590000  0.26 -0.0109096699
C  C216  1  0.29340000  0.86100000  0.83720000  0.26 0.0127339656
C  C217  1  0.87500000  0.23390000  0.01150000  0.26 0.0438380235
C  C218  1  0.83230000  0.20910000  0.96630000  0.26 -0.0400217305
C  C219  1  0.83110000  0.14150000  0.95240000  0.26 -0.1088847794
C  C220  1  0.78720000  0.11870000  0.91230000  0.26 -0.1088847794
C  C221  1  0.74870000  0.16460000  0.88180000  0.26 0.0127339656
C  C222  1  0.75140000  0.23290000  0.89500000  0.26 0.0127339656
C  C223  1  0.79490000  0.25480000  0.93590000  0.26 -0.0109096699
C  C224  1  0.70660000  0.13900000  0.83720000  0.26 0.0127339656
C  C225  1  0.92480000  0.20800000  0.84170000  0.5 0.0127339656
C  C226  1  0.88830000  0.17210000  0.79640000  0.5 0.1020350817
C  C227  1  0.83490000  0.20410000  0.76810000  0.5 -0.2004088367
C  C228  1  0.80370000  0.16570000  0.72780000  0.5 -0.1779882824
C  C229  1  0.81380000  0.09930000  0.71980000  0.5 0.0927324776
C  C230  1  0.86590000  0.07150000  0.74750000  0.5 -0.0817204781
C  C231  1  0.90220000  0.10300000  0.78900000  0.5 -0.1001275642
C  C232  1  0.77920000  0.06090000  0.67520000  0.5 0.0250768895
C  C233  1  0.07520000  0.79200000  0.84170000  0.5 0.0127339656
C  C234  1  0.11170000  0.82790000  0.79640000  0.5 0.1020350817
C  C235  1  0.16510000  0.79590000  0.76810000  0.5 -0.2004088367
C  C236  1  0.19630000  0.83430000  0.72780000  0.5 -0.1779882824
C  C237  1  0.18620000  0.90070000  0.71980000  0.5 0.0927324776
C  C238  1  0.13410000  0.92850000  0.74750000  0.5 -0.0817204781
C  C239  1  0.09780000  0.89700000  0.78900000  0.5 -0.1001275642
C  C240  1  0.22080000  0.93910000  0.67520000  0.5 0.0250768895
C  C241  1  0.29200000  0.42480000  0.84170000  0.5 0.0127339656
C  C242  1  0.32790000  0.38830000  0.79640000  0.5 0.1020350817
C  C243  1  0.29590000  0.33490000  0.76810000  0.5 -0.2004088367
C  C244  1  0.33430000  0.30370000  0.72780000  0.5 -0.1779882824
C  C245  1  0.40070000  0.31380000  0.71980000  0.5 0.0927324776
C  C246  1  0.42850000  0.36590000  0.74750000  0.5 -0.0817204781
C  C247  1  0.39700000  0.40220000  0.78900000  0.5 -0.1001275642
C  C248  1  0.43910000  0.27920000  0.67520000  0.5 0.0250768895
C  C249  1  0.70800000  0.57520000  0.84170000  0.5 0.0127339656
C  C250  1  0.67210000  0.61170000  0.79640000  0.5 0.1020350817
C  C251  1  0.70410000  0.66510000  0.76810000  0.5 -0.2004088367
C  C252  1  0.66570000  0.69630000  0.72780000  0.5 -0.1779882824
C  C253  1  0.59930000  0.68620000  0.71980000  0.5 0.0927324776
C  C254  1  0.57150000  0.63410000  0.74750000  0.5 -0.0817204781
C  C255  1  0.60300000  0.59780000  0.78900000  0.5 -0.1001275642
C  C256  1  0.56090000  0.72080000  0.67520000  0.5 0.0250768895
C  C257  1  0.57520000  0.70800000  0.65830000  0.5 0.0127339656
C  C258  1  0.61170000  0.67210000  0.70360000  0.5 0.1020350817
C  C259  1  0.66510000  0.70410000  0.73190000  0.5 -0.2004088367
C  C260  1  0.69630000  0.66570000  0.77220000  0.5 -0.1779882824
C  C261  1  0.68620000  0.59930000  0.78020000  0.5 0.0927324776
C  C262  1  0.63410000  0.57150000  0.75250000  0.5 -0.0817204781
C  C263  1  0.59780000  0.60300000  0.71100000  0.5 -0.1001275642
C  C264  1  0.72080000  0.56090000  0.82480000  0.5 0.0250768895
C  C265  1  0.42480000  0.29200000  0.65830000  0.5 0.0127339656
C  C266  1  0.38830000  0.32790000  0.70360000  0.5 0.1020350817
C  C267  1  0.33490000  0.29590000  0.73190000  0.5 -0.2004088367
C  C268  1  0.30370000  0.33430000  0.77220000  0.5 -0.1779882824
C  C269  1  0.31380000  0.40070000  0.78020000  0.5 0.0927324776
C  C270  1  0.36590000  0.42850000  0.75250000  0.5 -0.0817204781
C  C271  1  0.40220000  0.39700000  0.71100000  0.5 -0.1001275642
C  C272  1  0.27920000  0.43910000  0.82480000  0.5 0.0250768895
C  C273  1  0.20800000  0.92480000  0.65830000  0.5 0.0127339656
C  C274  1  0.17210000  0.88830000  0.70360000  0.5 0.1020350817
C  C275  1  0.20410000  0.83490000  0.73190000  0.5 -0.2004088367
C  C276  1  0.16570000  0.80370000  0.77220000  0.5 -0.1779882824
C  C277  1  0.09930000  0.81380000  0.78020000  0.5 0.0927324776
C  C278  1  0.07150000  0.86590000  0.75250000  0.5 -0.0817204781
C  C279  1  0.10300000  0.90220000  0.71100000  0.5 -0.1001275642
C  C280  1  0.06090000  0.77920000  0.82480000  0.5 0.0250768895
C  C281  1  0.79200000  0.07520000  0.65830000  0.5 0.0127339656
C  C282  1  0.82790000  0.11170000  0.70360000  0.5 0.1020350817
C  C283  1  0.79590000  0.16510000  0.73190000  0.5 -0.2004088367
C  C284  1  0.83430000  0.19630000  0.77220000  0.5 -0.1779882824
C  C285  1  0.90070000  0.18620000  0.78020000  0.5 0.0927324776
C  C286  1  0.92850000  0.13410000  0.75250000  0.5 -0.0817204781
C  C287  1  0.89700000  0.09780000  0.71100000  0.5 -0.1001275642
C  C288  1  0.93910000  0.22080000  0.82480000  0.5 0.0250768895
C  C289  1  0.57520000  0.29200000  0.15830000  0.5 0.0127339656
C  C290  1  0.61170000  0.32790000  0.20360000  0.5 0.1020350817
C  C291  1  0.66510000  0.29590000  0.23190000  0.5 -0.2004088367
C  C292  1  0.69630000  0.33430000  0.27220000  0.5 -0.1779882824
C  C293  1  0.68620000  0.40070000  0.28020000  0.5 0.0927324776
C  C294  1  0.63410000  0.42850000  0.25250000  0.5 -0.0817204781
C  C295  1  0.59780000  0.39700000  0.21100000  0.5 -0.1001275642
C  C296  1  0.72080000  0.43910000  0.32480000  0.5 0.0250768895
C  C297  1  0.42480000  0.70800000  0.15830000  0.5 0.0127339656
C  C298  1  0.38830000  0.67210000  0.20360000  0.5 0.1020350817
C  C299  1  0.33490000  0.70410000  0.23190000  0.5 -0.2004088367
C  C300  1  0.30370000  0.66570000  0.27220000  0.5 -0.1779882824
C  C301  1  0.31380000  0.59930000  0.28020000  0.5 0.0927324776
C  C302  1  0.36590000  0.57150000  0.25250000  0.5 -0.0817204781
C  C303  1  0.40220000  0.60300000  0.21100000  0.5 -0.1001275642
C  C304  1  0.27920000  0.56090000  0.32480000  0.5 0.0250768895
C  C305  1  0.20800000  0.07520000  0.15830000  0.5 0.0127339656
C  C306  1  0.17210000  0.11170000  0.20360000  0.5 0.1020350817
C  C307  1  0.20410000  0.16510000  0.23190000  0.5 -0.2004088367
C  C308  1  0.16570000  0.19630000  0.27220000  0.5 -0.1779882824
C  C309  1  0.09930000  0.18620000  0.28020000  0.5 0.0927324776
C  C310  1  0.07150000  0.13410000  0.25250000  0.5 -0.0817204781
C  C311  1  0.10300000  0.09780000  0.21100000  0.5 -0.1001275642
C  C312  1  0.06090000  0.22080000  0.32480000  0.5 0.0250768895
C  C313  1  0.79200000  0.92480000  0.15830000  0.5 0.0127339656
C  C314  1  0.82790000  0.88830000  0.20360000  0.5 0.1020350817
C  C315  1  0.79590000  0.83490000  0.23190000  0.5 -0.2004088367
C  C316  1  0.83430000  0.80370000  0.27220000  0.5 -0.1779882824
C  C317  1  0.90070000  0.81380000  0.28020000  0.5 0.0927324776
C  C318  1  0.92850000  0.86590000  0.25250000  0.5 -0.0817204781
C  C319  1  0.89700000  0.90220000  0.21100000  0.5 -0.1001275642
C  C320  1  0.93910000  0.77920000  0.32480000  0.5 0.0250768895
C  C321  1  0.92480000  0.79200000  0.34170000  0.5 0.0127339656
C  C322  1  0.88830000  0.82790000  0.29640000  0.5 0.1020350817
C  C323  1  0.83490000  0.79590000  0.26810000  0.5 -0.2004088367
C  C324  1  0.80370000  0.83430000  0.22780000  0.5 -0.1779882824
C  C325  1  0.81380000  0.90070000  0.21980000  0.5 0.0927324776
C  C326  1  0.86590000  0.92850000  0.24750000  0.5 -0.0817204781
C  C327  1  0.90220000  0.89700000  0.28900000  0.5 -0.1001275642
C  C328  1  0.77920000  0.93910000  0.17520000  0.5 0.0250768895
C  C329  1  0.07520000  0.20800000  0.34170000  0.5 0.0127339656
C  C330  1  0.11170000  0.17210000  0.29640000  0.5 0.1020350817
C  C331  1  0.16510000  0.20410000  0.26810000  0.5 -0.2004088367
C  C332  1  0.19630000  0.16570000  0.22780000  0.5 -0.1779882824
C  C333  1  0.18620000  0.09930000  0.21980000  0.5 0.0927324776
C  C334  1  0.13410000  0.07150000  0.24750000  0.5 -0.0817204781
C  C335  1  0.09780000  0.10300000  0.28900000  0.5 -0.1001275642
C  C336  1  0.22080000  0.06090000  0.17520000  0.5 0.0250768895
C  C337  1  0.29200000  0.57520000  0.34170000  0.5 0.0127339656
C  C338  1  0.32790000  0.61170000  0.29640000  0.5 0.1020350817
C  C339  1  0.29590000  0.66510000  0.26810000  0.5 -0.2004088367
C  C340  1  0.33430000  0.69630000  0.22780000  0.5 -0.1779882824
C  C341  1  0.40070000  0.68620000  0.21980000  0.5 0.0927324776
C  C342  1  0.42850000  0.63410000  0.24750000  0.5 -0.0817204781
C  C343  1  0.39700000  0.59780000  0.28900000  0.5 -0.1001275642
C  C344  1  0.43910000  0.72080000  0.17520000  0.5 0.0250768895
C  C345  1  0.70800000  0.42480000  0.34170000  0.5 0.0127339656
C  C346  1  0.67210000  0.38830000  0.29640000  0.5 0.1020350817
C  C347  1  0.70410000  0.33490000  0.26810000  0.5 -0.2004088367
C  C348  1  0.66570000  0.30370000  0.22780000  0.5 -0.1779882824
C  C349  1  0.59930000  0.31380000  0.21980000  0.5 0.0927324776
C  C350  1  0.57150000  0.36590000  0.24750000  0.5 -0.0817204781
C  C351  1  0.60300000  0.40220000  0.28900000  0.5 -0.1001275642
C  C352  1  0.56090000  0.27920000  0.17520000  0.5 0.0250768895
C  C353  1  0.80310000  0.34750000  0.49740000  0.74 0.0495960835
C  C354  1  0.76560000  0.30930000  0.45560000  0.74 -0.029485286
C  C355  1  0.69620000  0.31260000  0.45160000  0.74 -0.0188431835
C  C356  1  0.66260000  0.27460000  0.41240000  0.74 0.0008222813
C  C357  1  0.69910000  0.23270000  0.37700000  0.74 0.0008222813
C  C358  1  0.76920000  0.22960000  0.38110000  0.74 -0.1088847794
C  C359  1  0.80190000  0.26770000  0.42050000  0.74 -0.1088847794
C  C360  1  0.66340000  0.19250000  0.33610000  0.74 0.1020350817
C  C361  1  0.19690000  0.65250000  0.49740000  0.74 0.0495960835
C  C362  1  0.23440000  0.69070000  0.45560000  0.74 -0.029485286
C  C363  1  0.30380000  0.68740000  0.45160000  0.74 -0.0188431835
C  C364  1  0.33740000  0.72540000  0.41240000  0.74 0.0008222813
C  C365  1  0.30090000  0.76730000  0.37700000  0.74 -0.0004616691
C  C366  1  0.23080000  0.77040000  0.38110000  0.74 -0.1088847794
C  C367  1  0.19810000  0.73230000  0.42050000  0.74 -0.1088847794
C  C368  1  0.33660000  0.80750000  0.33610000  0.74 0.1020350817
C  C369  1  0.15250000  0.30310000  0.49740000  0.74 0.0495960835
C  C370  1  0.19070000  0.26560000  0.45560000  0.74 -0.029485286
C  C371  1  0.18740000  0.19620000  0.45160000  0.74 -0.0188431835
C  C372  1  0.22540000  0.16260000  0.41240000  0.74 0.0008222813
C  C373  1  0.26730000  0.19910000  0.37700000  0.74 0.0008222813
C  C374  1  0.27040000  0.26920000  0.38110000  0.74 -0.1088847794
C  C375  1  0.23230000  0.30190000  0.42050000  0.74 -0.1088847794
C  C376  1  0.30750000  0.16340000  0.33610000  0.74 0.1020350817
C  C377  1  0.84750000  0.69690000  0.49740000  0.74 0.0495960835
C  C378  1  0.80930000  0.73440000  0.45560000  0.74 -0.029485286
C  C379  1  0.81260000  0.80380000  0.45160000  0.74 -0.0188431835
C  C380  1  0.77460000  0.83740000  0.41240000  0.74 0.0008222813
C  C381  1  0.73270000  0.80090000  0.37700000  0.74 0.0008222813
C  C382  1  0.72960000  0.73080000  0.38110000  0.74 -0.1088847794
C  C383  1  0.76770000  0.69810000  0.42050000  0.74 -0.1088847794
C  C384  1  0.69250000  0.83660000  0.33610000  0.74 0.1020350817
C  C385  1  0.69690000  0.84750000  0.00260000  0.74 0.0495960835
C  C386  1  0.73440000  0.80930000  0.04440000  0.74 -0.029485286
C  C387  1  0.80380000  0.81260000  0.04840000  0.74 -0.0188431835
C  C388  1  0.83740000  0.77460000  0.08760000  0.74 0.0008222813
C  C389  1  0.80090000  0.73270000  0.12300000  0.74 0.0008222813
C  C390  1  0.73080000  0.72960000  0.11890000  0.74 -0.1088847794
C  C391  1  0.69810000  0.76770000  0.07950000  0.74 -0.1088847794
C  C392  1  0.83660000  0.69250000  0.16390000  0.74 0.1020350817
C  C393  1  0.30310000  0.15250000  0.00260000  0.74 0.0495960835
C  C394  1  0.26560000  0.19070000  0.04440000  0.74 -0.029485286
C  C395  1  0.19620000  0.18740000  0.04840000  0.74 -0.0188431835
C  C396  1  0.16260000  0.22540000  0.08760000  0.74 0.0008222813
C  C397  1  0.19910000  0.26730000  0.12300000  0.74 -0.0004616691
C  C398  1  0.26920000  0.27040000  0.11890000  0.74 -0.1088847794
C  C399  1  0.30190000  0.23230000  0.07950000  0.74 -0.1088847794
C  C400  1  0.16340000  0.30750000  0.16390000  0.74 0.1020350817
C  C401  1  0.34750000  0.80310000  0.00260000  0.74 0.0495960835
C  C402  1  0.30930000  0.76560000  0.04440000  0.74 -0.029485286
C  C403  1  0.31260000  0.69620000  0.04840000  0.74 -0.0188431835
C  C404  1  0.27460000  0.66260000  0.08760000  0.74 0.0008222813
C  C405  1  0.23270000  0.69910000  0.12300000  0.74 -0.0004616691
C  C406  1  0.22960000  0.76920000  0.11890000  0.74 -0.1088847794
C  C407  1  0.26770000  0.80190000  0.07950000  0.74 -0.1088847794
C  C408  1  0.19250000  0.66340000  0.16390000  0.74 0.1020350817
C  C409  1  0.65250000  0.19690000  0.00260000  0.74 0.0495960835
C  C410  1  0.69070000  0.23440000  0.04440000  0.74 -0.029485286
C  C411  1  0.68740000  0.30380000  0.04840000  0.74 -0.0188431835
C  C412  1  0.72540000  0.33740000  0.08760000  0.74 0.0008222813
C  C413  1  0.76730000  0.30090000  0.12300000  0.74 0.0008222813
C  C414  1  0.77040000  0.23080000  0.11890000  0.74 -0.1088847794
C  C415  1  0.73230000  0.19810000  0.07950000  0.74 -0.1088847794
C  C416  1  0.80750000  0.33660000  0.16390000  0.74 0.1020350817
C  C417  1  0.69690000  0.15250000  0.50260000  0.74 0.0495960835
C  C418  1  0.73440000  0.19070000  0.54440000  0.74 -0.029485286
C  C419  1  0.80380000  0.18740000  0.54840000  0.74 -0.0188431835
C  C420  1  0.83740000  0.22540000  0.58760000  0.74 0.0008222813
C  C421  1  0.80090000  0.26730000  0.62300000  0.74 0.0008222813
C  C422  1  0.73080000  0.27040000  0.61890000  0.74 -0.1088847794
C  C423  1  0.69810000  0.23230000  0.57950000  0.74 -0.1088847794
C  C424  1  0.83660000  0.30750000  0.66390000  0.74 0.1020350817
C  C425  1  0.30310000  0.84750000  0.50260000  0.74 0.0495960835
C  C426  1  0.26560000  0.80930000  0.54440000  0.74 -0.029485286
C  C427  1  0.19620000  0.81260000  0.54840000  0.74 -0.0188431835
C  C428  1  0.16260000  0.77460000  0.58760000  0.74 0.0008222813
C  C429  1  0.19910000  0.73270000  0.62300000  0.74 -0.0004616691
C  C430  1  0.26920000  0.72960000  0.61890000  0.74 -0.1088847794
C  C431  1  0.30190000  0.76770000  0.57950000  0.74 -0.1088847794
C  C432  1  0.16340000  0.69250000  0.66390000  0.74 0.1020350817
C  C433  1  0.34750000  0.19690000  0.50260000  0.74 0.0495960835
C  C434  1  0.30930000  0.23440000  0.54440000  0.74 -0.029485286
C  C435  1  0.31260000  0.30380000  0.54840000  0.74 -0.0188431835
C  C436  1  0.27460000  0.33740000  0.58760000  0.74 0.0008222813
C  C437  1  0.23270000  0.30090000  0.62300000  0.74 -0.0004616691
C  C438  1  0.22960000  0.23080000  0.61890000  0.74 -0.1088847794
C  C439  1  0.26770000  0.19810000  0.57950000  0.74 -0.1088847794
C  C440  1  0.19250000  0.33660000  0.66390000  0.74 0.1020350817
C  C441  1  0.65250000  0.80310000  0.50260000  0.74 0.0495960835
C  C442  1  0.69070000  0.76560000  0.54440000  0.74 -0.029485286
C  C443  1  0.68740000  0.69620000  0.54840000  0.74 -0.0188431835
C  C444  1  0.72540000  0.66260000  0.58760000  0.74 0.0008222813
C  C445  1  0.76730000  0.69910000  0.62300000  0.74 0.0008222813
C  C446  1  0.77040000  0.76920000  0.61890000  0.74 -0.1088847794
C  C447  1  0.73230000  0.80190000  0.57950000  0.74 -0.1088847794
C  C448  1  0.80750000  0.66340000  0.66390000  0.74 0.1020350817
C  C449  1  0.80310000  0.65250000  0.99740000  0.74 0.0495960835
C  C450  1  0.76560000  0.69070000  0.95560000  0.74 -0.029485286
C  C451  1  0.69620000  0.68740000  0.95160000  0.74 -0.0188431835
C  C452  1  0.66260000  0.72540000  0.91240000  0.74 0.0008222813
C  C453  1  0.69910000  0.76730000  0.87700000  0.74 0.0008222813
C  C454  1  0.76920000  0.77040000  0.88110000  0.74 -0.1088847794
C  C455  1  0.80190000  0.73230000  0.92050000  0.74 -0.1088847794
C  C456  1  0.66340000  0.80750000  0.83610000  0.74 0.1020350817
C  C457  1  0.19690000  0.34750000  0.99740000  0.74 0.0495960835
C  C458  1  0.23440000  0.30930000  0.95560000  0.74 -0.029485286
C  C459  1  0.30380000  0.31260000  0.95160000  0.74 -0.0188431835
C  C460  1  0.33740000  0.27460000  0.91240000  0.74 0.0008222813
C  C461  1  0.30090000  0.23270000  0.87700000  0.74 0.0008222813
C  C462  1  0.23080000  0.22960000  0.88110000  0.74 -0.1088847794
C  C463  1  0.19810000  0.26770000  0.92050000  0.74 -0.1088847794
C  C464  1  0.33660000  0.19250000  0.83610000  0.74 0.1020350817
C  C465  1  0.15250000  0.69690000  0.99740000  0.74 0.0495960835
C  C466  1  0.19070000  0.73440000  0.95560000  0.74 -0.029485286
C  C467  1  0.18740000  0.80380000  0.95160000  0.74 -0.0188431835
C  C468  1  0.22540000  0.83740000  0.91240000  0.74 0.0008222813
C  C469  1  0.26730000  0.80090000  0.87700000  0.74 -0.0004616691
C  C470  1  0.27040000  0.73080000  0.88110000  0.74 -0.1088847794
C  C471  1  0.23230000  0.69810000  0.92050000  0.74 -0.1088847794
C  C472  1  0.30750000  0.83660000  0.83610000  0.74 0.1020350817
C  C473  1  0.84750000  0.30310000  0.99740000  0.74 0.0495960835
C  C474  1  0.80930000  0.26560000  0.95560000  0.74 -0.029485286
C  C475  1  0.81260000  0.19620000  0.95160000  0.74 -0.0188431835
C  C476  1  0.77460000  0.16260000  0.91240000  0.74 0.0008222813
C  C477  1  0.73270000  0.19910000  0.87700000  0.74 0.0008222813
C  C478  1  0.72960000  0.26920000  0.88110000  0.74 -0.1088847794
C  C479  1  0.76770000  0.30190000  0.92050000  0.74 -0.1088847794
C  C480  1  0.69250000  0.16340000  0.83610000  0.74 0.1020350817
N  N1  1  0.89824000  0.46416000  0.61176000  1.0 -0.1726735885
N  N2  1  0.83860000  0.48630000  0.63576000  1.0 -0.2281425436
N  N3  1  0.81506000  0.41920000  0.56611000  1.0 0.0699184884
N  N4  1  0.66039000  0.12380000  0.26386000  1.0 0.0927324776
N  N5  1  0.58810000  0.06269000  0.21977000  1.0 -0.1566925388
N  N6  1  0.98015000  0.38934000  0.94121000  1.0 -0.2004088367
N  N7  1  0.64997000  0.05511000  0.19373000  1.0 -0.1885009863
N  N8  1  0.01940000  0.33344000  0.95686000  1.0 -0.2457207562
N  N9  1  0.94979000  0.30303000  0.89101000  1.0 -0.1779882824
N  N10  1  0.91284000  0.27084000  0.84914000  1.0 -0.1779882824
N  N11  1  0.10176000  0.53584000  0.61176000  1.0 -0.1726735885
N  N12  1  0.16140000  0.51370000  0.63576000  1.0 -0.2281425436
N  N13  1  0.18494000  0.58080000  0.56611000  1.0 0.0699184884
N  N14  1  0.33961000  0.87620000  0.26386000  1.0 0.0927324776
N  N15  1  0.41190000  0.93731000  0.21977000  1.0 -0.1566925388
N  N16  1  0.01985000  0.61066000  0.94121000  1.0 -0.2004088367
N  N17  1  0.35003000  0.94489000  0.19373000  1.0 -0.1885009863
N  N18  1  0.98060000  0.66656000  0.95686000  1.0 -0.2449871422
N  N19  1  0.05021000  0.69697000  0.89101000  1.0 -0.1779882824
N  N20  1  0.08716000  0.72916000  0.84914000  1.0 -0.1779882824
N  N21  1  0.03584000  0.39824000  0.61176000  1.0 -0.1726735885
N  N22  1  0.01370000  0.33860000  0.63576000  1.0 -0.2281425436
N  N23  1  0.08080000  0.31506000  0.56611000  1.0 0.0699184884
N  N24  1  0.37620000  0.16039000  0.26386000  1.0 0.0927324776
N  N25  1  0.43731000  0.08810000  0.21977000  1.0 -0.1566925388
N  N26  1  0.11066000  0.48015000  0.94121000  1.0 -0.2004088367
N  N27  1  0.44489000  0.14997000  0.19373000  1.0 -0.1885009863
N  N28  1  0.16656000  0.51940000  0.95686000  1.0 -0.2457207562
N  N29  1  0.19697000  0.44979000  0.89101000  1.0 -0.1779882824
N  N30  1  0.22916000  0.41284000  0.84914000  1.0 -0.1779882824
N  N31  1  0.96416000  0.60176000  0.61176000  1.0 -0.1726735885
N  N32  1  0.98630000  0.66140000  0.63576000  1.0 -0.2281425436
N  N33  1  0.91920000  0.68494000  0.56611000  1.0 0.0699184884
N  N34  1  0.62380000  0.83961000  0.26386000  1.0 0.0927324776
N  N35  1  0.56269000  0.91190000  0.21977000  1.0 -0.1566925388
N  N36  1  0.88934000  0.51985000  0.94121000  1.0 -0.2004088367
N  N37  1  0.55511000  0.85003000  0.19373000  1.0 -0.1885009863
N  N38  1  0.83344000  0.48060000  0.95686000  1.0 -0.2457207562
N  N39  1  0.80303000  0.55021000  0.89101000  1.0 -0.1779882824
N  N40  1  0.77084000  0.58716000  0.84914000  1.0 -0.1779882824
N  N41  1  0.60176000  0.96416000  0.88824000  1.0 -0.1726735885
N  N42  1  0.66140000  0.98630000  0.86424000  1.0 -0.2281425436
N  N43  1  0.68494000  0.91920000  0.93389000  1.0 0.0699184884
N  N44  1  0.83961000  0.62380000  0.23614000  1.0 0.0927324776
N  N45  1  0.91190000  0.56269000  0.28023000  1.0 -0.1566925388
N  N46  1  0.51985000  0.88934000  0.55879000  1.0 -0.2004088367
N  N47  1  0.85003000  0.55511000  0.30627000  1.0 -0.1885009863
N  N48  1  0.48060000  0.83344000  0.54314000  1.0 -0.2457207562
N  N49  1  0.55021000  0.80303000  0.60899000  1.0 -0.1779882824
N  N50  1  0.58716000  0.77084000  0.65086000  1.0 -0.1779882824
N  N51  1  0.39824000  0.03584000  0.88824000  1.0 -0.1726735885
N  N52  1  0.33860000  0.01370000  0.86424000  1.0 -0.2281425436
N  N53  1  0.31506000  0.08080000  0.93389000  1.0 0.0699184884
N  N54  1  0.16039000  0.37620000  0.23614000  1.0 0.0927324776
N  N55  1  0.08810000  0.43731000  0.28023000  1.0 -0.1566925388
N  N56  1  0.48015000  0.11066000  0.55879000  1.0 -0.2004088367
N  N57  1  0.14997000  0.44489000  0.30627000  1.0 -0.1885009863
N  N58  1  0.51940000  0.16656000  0.54314000  1.0 -0.2449871422
N  N59  1  0.44979000  0.19697000  0.60899000  1.0 -0.1779882824
N  N60  1  0.41284000  0.22916000  0.65086000  1.0 -0.1779882824
N  N61  1  0.46416000  0.89824000  0.88824000  1.0 -0.1726735885
N  N62  1  0.48630000  0.83860000  0.86424000  1.0 -0.2281425436
N  N63  1  0.41920000  0.81506000  0.93389000  1.0 0.0699184884
N  N64  1  0.12380000  0.66039000  0.23614000  1.0 0.0927324776
N  N65  1  0.06269000  0.58810000  0.28023000  1.0 -0.1566925388
N  N66  1  0.38934000  0.98015000  0.55879000  1.0 -0.2004088367
N  N67  1  0.05511000  0.64997000  0.30627000  1.0 -0.1885009863
N  N68  1  0.33344000  0.01940000  0.54314000  1.0 -0.2457207562
N  N69  1  0.30303000  0.94979000  0.60899000  1.0 -0.1779882824
N  N70  1  0.27084000  0.91284000  0.65086000  1.0 -0.1779882824
N  N71  1  0.53584000  0.10176000  0.88824000  1.0 -0.1726735885
N  N72  1  0.51370000  0.16140000  0.86424000  1.0 -0.2281425436
N  N73  1  0.58080000  0.18494000  0.93389000  1.0 0.0699184884
N  N74  1  0.87620000  0.33961000  0.23614000  1.0 0.0927324776
N  N75  1  0.93731000  0.41190000  0.28023000  1.0 -0.1566925388
N  N76  1  0.61066000  0.01985000  0.55879000  1.0 -0.2004088367
N  N77  1  0.94489000  0.35003000  0.30627000  1.0 -0.1885009863
N  N78  1  0.66656000  0.98060000  0.54314000  1.0 -0.2457207562
N  N79  1  0.69697000  0.05021000  0.60899000  1.0 -0.1779882824
N  N80  1  0.72916000  0.08716000  0.65086000  1.0 -0.1779882824
N  N81  1  0.60176000  0.03584000  0.38824000  1.0 -0.1726735885
N  N82  1  0.66140000  0.01370000  0.36424000  1.0 -0.2281425436
N  N83  1  0.68494000  0.08080000  0.43389000  1.0 0.0699184884
N  N84  1  0.83961000  0.37620000  0.73614000  1.0 0.0927324776
N  N85  1  0.91190000  0.43731000  0.78023000  1.0 -0.1566925388
N  N86  1  0.51985000  0.11066000  0.05879000  1.0 -0.2004088367
N  N87  1  0.85003000  0.44489000  0.80627000  1.0 -0.1885009863
N  N88  1  0.48060000  0.16656000  0.04314000  1.0 -0.2449871422
N  N89  1  0.55021000  0.19697000  0.10899000  1.0 -0.1779882824
N  N90  1  0.58716000  0.22916000  0.15086000  1.0 -0.1779882824
N  N91  1  0.39824000  0.96416000  0.38824000  1.0 -0.1726735885
N  N92  1  0.33860000  0.98630000  0.36424000  1.0 -0.2281425436
N  N93  1  0.31506000  0.91920000  0.43389000  1.0 0.0699184884
N  N94  1  0.16039000  0.62380000  0.73614000  1.0 0.0927324776
N  N95  1  0.08810000  0.56269000  0.78023000  1.0 -0.1566925388
N  N96  1  0.48015000  0.88934000  0.05879000  1.0 -0.2004088367
N  N97  1  0.14997000  0.55511000  0.80627000  1.0 -0.1885009863
N  N98  1  0.51940000  0.83344000  0.04314000  1.0 -0.2449871422
N  N99  1  0.44979000  0.80303000  0.10899000  1.0 -0.1779882824
N  N100  1  0.41284000  0.77084000  0.15086000  1.0 -0.1779882824
N  N101  1  0.46416000  0.10176000  0.38824000  1.0 -0.1726735885
N  N102  1  0.48630000  0.16140000  0.36424000  1.0 -0.2281425436
N  N103  1  0.41920000  0.18494000  0.43389000  1.0 0.0699184884
N  N104  1  0.12380000  0.33961000  0.73614000  1.0 0.0927324776
N  N105  1  0.06269000  0.41190000  0.78023000  1.0 -0.1566925388
N  N106  1  0.38934000  0.01985000  0.05879000  1.0 -0.2004088367
N  N107  1  0.05511000  0.35003000  0.80627000  1.0 -0.1885009863
N  N108  1  0.33344000  0.98060000  0.04314000  1.0 -0.2457207562
N  N109  1  0.30303000  0.05021000  0.10899000  1.0 -0.1779882824
N  N110  1  0.27084000  0.08716000  0.15086000  1.0 -0.1779882824
N  N111  1  0.53584000  0.89824000  0.38824000  1.0 -0.1726735885
N  N112  1  0.51370000  0.83860000  0.36424000  1.0 -0.2281425436
N  N113  1  0.58080000  0.81506000  0.43389000  1.0 0.0699184884
N  N114  1  0.87620000  0.66039000  0.73614000  1.0 0.0927324776
N  N115  1  0.93731000  0.58810000  0.78023000  1.0 -0.1566925388
N  N116  1  0.61066000  0.98015000  0.05879000  1.0 -0.2004088367
N  N117  1  0.94489000  0.64997000  0.80627000  1.0 -0.1885009863
N  N118  1  0.66656000  0.01940000  0.04314000  1.0 -0.2449871422
N  N119  1  0.69697000  0.94979000  0.10899000  1.0 -0.1779882824
N  N120  1  0.72916000  0.91284000  0.15086000  1.0 -0.1779882824
N  N121  1  0.89824000  0.53584000  0.11176000  1.0 -0.1726735885
N  N122  1  0.83860000  0.51370000  0.13576000  1.0 -0.2281425436
N  N123  1  0.81506000  0.58080000  0.06611000  1.0 0.0699184884
N  N124  1  0.66039000  0.87620000  0.76386000  1.0 0.0927324776
N  N125  1  0.58810000  0.93731000  0.71977000  1.0 -0.1566925388
N  N126  1  0.98015000  0.61066000  0.44121000  1.0 -0.2004088367
N  N127  1  0.64997000  0.94489000  0.69373000  1.0 -0.1885009863
N  N128  1  0.01940000  0.66656000  0.45686000  1.0 -0.2457207562
N  N129  1  0.94979000  0.69697000  0.39101000  1.0 -0.1779882824
N  N130  1  0.91284000  0.72916000  0.34914000  1.0 -0.1779882824
N  N131  1  0.10176000  0.46416000  0.11176000  1.0 -0.1726735885
N  N132  1  0.16140000  0.48630000  0.13576000  1.0 -0.2281425436
N  N133  1  0.18494000  0.41920000  0.06611000  1.0 0.0699184884
N  N134  1  0.33961000  0.12380000  0.76386000  1.0 0.0927324776
N  N135  1  0.41190000  0.06269000  0.71977000  1.0 -0.1566925388
N  N136  1  0.01985000  0.38934000  0.44121000  1.0 -0.2004088367
N  N137  1  0.35003000  0.05511000  0.69373000  1.0 -0.1885009863
N  N138  1  0.98060000  0.33344000  0.45686000  1.0 -0.2449871422
N  N139  1  0.05021000  0.30303000  0.39101000  1.0 -0.1779882824
N  N140  1  0.08716000  0.27084000  0.34914000  1.0 -0.1779882824
N  N141  1  0.03584000  0.60176000  0.11176000  1.0 -0.1726735885
N  N142  1  0.01370000  0.66140000  0.13576000  1.0 -0.2281425436
N  N143  1  0.08080000  0.68494000  0.06611000  1.0 0.0699184884
N  N144  1  0.37620000  0.83961000  0.76386000  1.0 0.0927324776
N  N145  1  0.43731000  0.91190000  0.71977000  1.0 -0.1566925388
N  N146  1  0.11066000  0.51985000  0.44121000  1.0 -0.2004088367
N  N147  1  0.44489000  0.85003000  0.69373000  1.0 -0.1885009863
N  N148  1  0.16656000  0.48060000  0.45686000  1.0 -0.2457207562
N  N149  1  0.19697000  0.55021000  0.39101000  1.0 -0.1779882824
N  N150  1  0.22916000  0.58716000  0.34914000  1.0 -0.1779882824
N  N151  1  0.96416000  0.39824000  0.11176000  1.0 -0.1726735885
N  N152  1  0.98630000  0.33860000  0.13576000  1.0 -0.2281425436
N  N153  1  0.91920000  0.31506000  0.06611000  1.0 0.0699184884
N  N154  1  0.62380000  0.16039000  0.76386000  1.0 0.0927324776
N  N155  1  0.56269000  0.08810000  0.71977000  1.0 -0.1566925388
N  N156  1  0.88934000  0.48015000  0.44121000  1.0 -0.2004088367
N  N157  1  0.55511000  0.14997000  0.69373000  1.0 -0.1885009863
N  N158  1  0.83344000  0.51940000  0.45686000  1.0 -0.2449871422
N  N159  1  0.80303000  0.44979000  0.39101000  1.0 -0.1779882824
N  N160  1  0.77084000  0.41284000  0.34914000  1.0 -0.1779882824
N  N161  1  0.79620000  0.37920000  0.51980000  0.26 0.0605555662
N  N162  1  0.67840000  0.17120000  0.30830000  0.26 -0.0400217305
N  N163  1  0.20380000  0.62080000  0.51980000  0.26 0.0605555662
N  N164  1  0.32160000  0.82880000  0.30830000  0.26 -0.0400217305
N  N165  1  0.12080000  0.29620000  0.51980000  0.26 0.0605555662
N  N166  1  0.32880000  0.17840000  0.30830000  0.26 -0.0400217305
N  N167  1  0.87920000  0.70380000  0.51980000  0.26 0.0605555662
N  N168  1  0.67120000  0.82160000  0.30830000  0.26 -0.0400217305
N  N169  1  0.70380000  0.87920000  0.98020000  0.26 0.0605555662
N  N170  1  0.82160000  0.67120000  0.19170000  0.26 -0.0400217305
N  N171  1  0.29620000  0.12080000  0.98020000  0.26 0.0605555662
N  N172  1  0.17840000  0.32880000  0.19170000  0.26 -0.0400217305
N  N173  1  0.37920000  0.79620000  0.98020000  0.26 0.0605555662
N  N174  1  0.17120000  0.67840000  0.19170000  0.26 -0.0400217305
N  N175  1  0.62080000  0.20380000  0.98020000  0.26 0.0605555662
N  N176  1  0.82880000  0.32160000  0.19170000  0.26 -0.0400217305
N  N177  1  0.70380000  0.12080000  0.48020000  0.26 0.0605555662
N  N178  1  0.82160000  0.32880000  0.69170000  0.26 -0.0400217305
N  N179  1  0.29620000  0.87920000  0.48020000  0.26 0.0605555662
N  N180  1  0.17840000  0.67120000  0.69170000  0.26 -0.0400217305
N  N181  1  0.37920000  0.20380000  0.48020000  0.26 0.0605555662
N  N182  1  0.17120000  0.32160000  0.69170000  0.26 -0.0400217305
N  N183  1  0.62080000  0.79620000  0.48020000  0.26 0.0605555662
N  N184  1  0.82880000  0.67840000  0.69170000  0.26 -0.0400217305
N  N185  1  0.79620000  0.62080000  0.01980000  0.26 0.0605555662
N  N186  1  0.67840000  0.82880000  0.80830000  0.26 -0.0400217305
N  N187  1  0.20380000  0.37920000  0.01980000  0.26 0.0605555662
N  N188  1  0.32160000  0.17120000  0.80830000  0.26 -0.0400217305
N  N189  1  0.12080000  0.70380000  0.01980000  0.26 0.0605555662
N  N190  1  0.32880000  0.82160000  0.80830000  0.26 -0.0400217305
N  N191  1  0.87920000  0.29620000  0.01980000  0.26 0.0605555662
N  N192  1  0.67120000  0.17840000  0.80830000  0.26 -0.0400217305
N  N193  1  0.77220000  0.38700000  0.52910000  0.74 0.0438380235
N  N194  1  0.69810000  0.16050000  0.30070000  0.74 -0.0817204781
N  N195  1  0.22780000  0.61300000  0.52910000  0.74 0.0438380235
N  N196  1  0.30190000  0.83950000  0.30070000  0.74 -0.0817204781
N  N197  1  0.11300000  0.27220000  0.52910000  0.74 0.0438380235
N  N198  1  0.33950000  0.19810000  0.30070000  0.74 -0.0817204781
N  N199  1  0.88700000  0.72780000  0.52910000  0.74 0.0438380235
N  N200  1  0.66050000  0.80190000  0.30070000  0.74 -0.0817204781
N  N201  1  0.72780000  0.88700000  0.97090000  0.74 0.0438380235
N  N202  1  0.80190000  0.66050000  0.19930000  0.74 -0.0817204781
N  N203  1  0.27220000  0.11300000  0.97090000  0.74 0.0438380235
N  N204  1  0.19810000  0.33950000  0.19930000  0.74 -0.0817204781
N  N205  1  0.38700000  0.77220000  0.97090000  0.74 0.0438380235
N  N206  1  0.16050000  0.69810000  0.19930000  0.74 -0.0817204781
N  N207  1  0.61300000  0.22780000  0.97090000  0.74 0.0438380235
N  N208  1  0.83950000  0.30190000  0.19930000  0.74 -0.0817204781
N  N209  1  0.72780000  0.11300000  0.47090000  0.74 0.0438380235
N  N210  1  0.80190000  0.33950000  0.69930000  0.74 -0.0817204781
N  N211  1  0.27220000  0.88700000  0.47090000  0.74 0.0438380235
N  N212  1  0.19810000  0.66050000  0.69930000  0.74 -0.0817204781
N  N213  1  0.38700000  0.22780000  0.47090000  0.74 0.0438380235
N  N214  1  0.16050000  0.30190000  0.69930000  0.74 -0.0817204781
N  N215  1  0.61300000  0.77220000  0.47090000  0.74 0.0438380235
N  N216  1  0.83950000  0.69810000  0.69930000  0.74 -0.0817204781
N  N217  1  0.77220000  0.61300000  0.02910000  0.74 0.0438380235
N  N218  1  0.69810000  0.83950000  0.80070000  0.74 -0.0817204781
N  N219  1  0.22780000  0.38700000  0.02910000  0.74 0.0438380235
N  N220  1  0.30190000  0.16050000  0.80070000  0.74 -0.0817204781
N  N221  1  0.11300000  0.72780000  0.02910000  0.74 0.0438380235
N  N222  1  0.33950000  0.80190000  0.80070000  0.74 -0.0817204781
N  N223  1  0.88700000  0.27220000  0.02910000  0.74 0.0438380235
N  N224  1  0.66050000  0.19810000  0.80070000  0.74 -0.0817204781
F  F1  1  0.00000000  0.50000000  0.70210000  1.0 -0.468684663
F  F2  1  0.00000000  0.50000000  0.86860000  1.0 -0.4831170411
F  F3  1  0.00000000  0.50000000  0.03390000  1.0 -0.468684663
F  F4  1  0.50000000  0.00000000  0.79790000  1.0 -0.468684663
F  F5  1  0.50000000  0.00000000  0.63140000  1.0 -0.4831170411
F  F6  1  0.50000000  0.00000000  0.46610000  1.0 -0.468684663
F  F7  1  0.50000000  0.00000000  0.29790000  1.0 -0.468684663
F  F8  1  0.50000000  0.00000000  0.13140000  1.0 -0.4831170411
F  F9  1  0.50000000  0.00000000  0.96610000  1.0 -0.468684663
F  F10  1  0.00000000  0.50000000  0.20210000  1.0 -0.468684663
F  F11  1  0.00000000  0.50000000  0.36860000  1.0 -0.4831170411
F  F12  1  0.00000000  0.50000000  0.53390000  1.0 -0.468684663
