# DDEC6 charges by PACMAN v1.1 (https://github.com/mtap-research/PACMAN-charge/)
data_2024[Zn][crb]3[FSR]3
_chemical_formula_sum              "Zn16 H96 C96 N64"
_cell_length_a       9.63356
_cell_length_b       24.0923
_cell_length_c       24.4097
_cell_angle_alpha    90
_cell_angle_beta     90
_cell_angle_gamma    90

_symmetry_space_group_name_H-M    "P 1"
_symmetry_Int_Tables_number       1

loop_
  _symmetry_equiv_pos_as_xyz
  'x, y, z'

loop_
  _atom_site_type_symbol
  _atom_site_label
  _atom_site_symmetry_multiplicity
  _atom_site_fract_x
  _atom_site_fract_y
  _atom_site_fract_z
  _atom_site_occupancy
  _atom_site_charge
Zn  Zn1       1.0  0.01229  0.17442  0.50141  1.0000 0.6190034148
Zn  Zn2       1.0  0.51229  0.32558  0.49859  1.0000 0.6190034148
Zn  Zn3       1.0  0.98771  0.67442  0.99859  1.0000 0.6190034148
Zn  Zn4       1.0  0.48771  0.82558  0.00141  1.0000 0.6190034148
Zn  Zn5       1.0  0.98771  0.82558  0.49859  1.0000 0.6190034148
Zn  Zn6       1.0  0.48771  0.67442  0.50141  1.0000 0.6190034148
Zn  Zn7       1.0  0.01229  0.32558  0.00141  1.0000 0.6190034148
Zn  Zn8       1.0  0.51229  0.17442  0.99859  1.0000 0.6190034148
Zn  Zn9       1.0  0.00268  0.00175  0.32394  1.0000 0.6190034148
Zn  Zn10      1.0  0.50268  0.49825  0.67606  1.0000 0.6190034148
Zn  Zn11      1.0  0.99732  0.50175  0.17606  1.0000 0.6190034148
Zn  Zn12      1.0  0.49732  0.99825  0.82394  1.0000 0.6190034148
Zn  Zn13      1.0  0.99732  0.99825  0.67606  1.0000 0.6190034148
Zn  Zn14      1.0  0.49732  0.50175  0.32394  1.0000 0.6190034148
Zn  Zn15      1.0  0.00268  0.49825  0.82394  1.0000 0.6190034148
Zn  Zn16      1.0  0.50268  0.00175  0.17606  1.0000 0.6190034148
H   H1        1.0  0.75490  0.33770  0.40830  1.0000 0.100774286
H   H2        1.0  0.25490  0.16230  0.59170  1.0000 0.100774286
H   H3        1.0  0.24510  0.83770  0.09170  1.0000 0.100774286
H   H4        1.0  0.74510  0.66230  0.90830  1.0000 0.100774286
H   H5        1.0  0.24510  0.66230  0.59170  1.0000 0.100774286
H   H6        1.0  0.74510  0.83770  0.40830  1.0000 0.100774286
H   H7        1.0  0.75490  0.16230  0.90830  1.0000 0.100774286
H   H8        1.0  0.25490  0.33770  0.09170  1.0000 0.100774286
H   H9        1.0  0.48850  0.94560  0.29380  1.0000 0.100774286
H   H10       1.0  0.98850  0.55440  0.70620  1.0000 0.100774286
H   H11       1.0  0.51150  0.44560  0.20620  1.0000 0.100774286
H   H12       1.0  0.01150  0.05440  0.79380  1.0000 0.100774286
H   H13       1.0  0.51150  0.05440  0.70620  1.0000 0.100774286
H   H14       1.0  0.01150  0.44560  0.29380  1.0000 0.100774286
H   H15       1.0  0.48850  0.55440  0.79380  1.0000 0.100774286
H   H16       1.0  0.98850  0.94560  0.20620  1.0000 0.100774286
H   H17       1.0  0.96170  0.05140  0.44490  1.0000 0.0704270384
H   H18       1.0  0.46170  0.44860  0.55510  1.0000 0.0704270384
H   H19       1.0  0.03830  0.55140  0.05510  1.0000 0.0704270384
H   H20       1.0  0.53830  0.94860  0.94490  1.0000 0.0704270384
H   H21       1.0  0.03830  0.94860  0.55510  1.0000 0.0704270384
H   H22       1.0  0.53830  0.55140  0.44490  1.0000 0.0704270384
H   H23       1.0  0.96170  0.44860  0.94490  1.0000 0.0704270384
H   H24       1.0  0.46170  0.05140  0.05510  1.0000 0.0704270384
H   H25       1.0  0.20500  0.81890  0.39840  1.0000 0.100774286
H   H26       1.0  0.70500  0.68110  0.60160  1.0000 0.100774286
H   H27       1.0  0.79500  0.31890  0.10160  1.0000 0.100774286
H   H28       1.0  0.29500  0.18110  0.89840  1.0000 0.100774286
H   H29       1.0  0.79500  0.18110  0.60160  1.0000 0.100774286
H   H30       1.0  0.29500  0.31890  0.39840  1.0000 0.100774286
H   H31       1.0  0.20500  0.68110  0.89840  1.0000 0.100774286
H   H32       1.0  0.70500  0.81890  0.10160  1.0000 0.100774286
H   H33       1.0  0.14100  0.12140  0.30400  1.0000 0.100774286
H   H34       1.0  0.64100  0.37860  0.69600  1.0000 0.100774286
H   H35       1.0  0.85900  0.62140  0.19600  1.0000 0.100774286
H   H36       1.0  0.35900  0.87860  0.80400  1.0000 0.100774286
H   H37       1.0  0.85900  0.87860  0.69600  1.0000 0.100774286
H   H38       1.0  0.35900  0.62140  0.30400  1.0000 0.100774286
H   H39       1.0  0.14100  0.37860  0.80400  1.0000 0.100774286
H   H40       1.0  0.64100  0.12140  0.19600  1.0000 0.100774286
H   H41       1.0  0.14700  0.19770  0.38970  1.0000 0.0919326546
H   H42       1.0  0.64700  0.30230  0.61030  1.0000 0.0919326546
H   H43       1.0  0.85300  0.69770  0.11030  1.0000 0.0919326546
H   H44       1.0  0.35300  0.80230  0.88970  1.0000 0.0919326546
H   H45       1.0  0.85300  0.80230  0.61030  1.0000 0.0919326546
H   H46       1.0  0.35300  0.69770  0.38970  1.0000 0.0919326546
H   H47       1.0  0.14700  0.30230  0.88970  1.0000 0.0919326546
H   H48       1.0  0.64700  0.19770  0.11030  1.0000 0.0919326546
H   H49       1.0  0.91880  0.94240  0.44030  1.0000 0.0704270384
H   H50       1.0  0.41880  0.55760  0.55970  1.0000 0.0704270384
H   H51       1.0  0.08120  0.44240  0.05970  1.0000 0.0704270384
H   H52       1.0  0.58120  0.05760  0.94030  1.0000 0.0704270384
H   H53       1.0  0.08120  0.05760  0.55970  1.0000 0.0704270384
H   H54       1.0  0.58120  0.44240  0.44030  1.0000 0.0704270384
H   H55       1.0  0.91880  0.55760  0.94030  1.0000 0.0704270384
H   H56       1.0  0.41880  0.94240  0.05970  1.0000 0.0704270384
H   H57       1.0  0.19800  0.89690  0.31740  1.0000 0.1059984972
H   H58       1.0  0.69800  0.60310  0.68260  1.0000 0.1059984972
H   H59       1.0  0.80200  0.39690  0.18260  1.0000 0.1059984972
H   H60       1.0  0.30200  0.10310  0.81740  1.0000 0.1059984972
H   H61       1.0  0.80200  0.10310  0.68260  1.0000 0.1059984972
H   H62       1.0  0.30200  0.39690  0.31740  1.0000 0.1059984972
H   H63       1.0  0.19800  0.60310  0.81740  1.0000 0.1059984972
H   H64       1.0  0.69800  0.89690  0.18260  1.0000 0.1059984972
H   H65       1.0  0.71280  0.22540  0.53890  1.0000 0.0428583097
H   H66       1.0  0.21280  0.27460  0.46110  1.0000 0.0428583097
H   H67       1.0  0.28720  0.72540  0.96110  1.0000 0.0428583097
H   H68       1.0  0.78720  0.77460  0.03890  1.0000 0.0428583097
H   H69       1.0  0.28720  0.77460  0.46110  1.0000 0.0428583097
H   H70       1.0  0.78720  0.72540  0.53890  1.0000 0.0428583097
H   H71       1.0  0.71280  0.27460  0.03890  1.0000 0.0428583097
H   H72       1.0  0.21280  0.22540  0.96110  1.0000 0.0428583097
H   H73       1.0  0.98640  0.27060  0.41120  1.0000 0.0919326546
H   H74       1.0  0.48640  0.22940  0.58880  1.0000 0.0919326546
H   H75       1.0  0.01360  0.77060  0.08880  1.0000 0.0919326546
H   H76       1.0  0.51360  0.72940  0.91120  1.0000 0.0919326546
H   H77       1.0  0.01360  0.72940  0.58880  1.0000 0.0919326546
H   H78       1.0  0.51360  0.77060  0.41120  1.0000 0.0919326546
H   H79       1.0  0.98640  0.22940  0.91120  1.0000 0.0919326546
H   H80       1.0  0.48640  0.27060  0.08880  1.0000 0.0919326546
H   H81       1.0  0.71600  0.94890  0.36390  1.0000 0.100774286
H   H82       1.0  0.21600  0.55110  0.63610  1.0000 0.100774286
H   H83       1.0  0.28400  0.44890  0.13610  1.0000 0.100774286
H   H84       1.0  0.78400  0.05110  0.86390  1.0000 0.100774286
H   H85       1.0  0.28400  0.05110  0.63610  1.0000 0.100774286
H   H86       1.0  0.78400  0.44890  0.36390  1.0000 0.100774286
H   H87       1.0  0.71600  0.55110  0.86390  1.0000 0.100774286
H   H88       1.0  0.21600  0.94890  0.13610  1.0000 0.100774286
H   H89       1.0  0.80810  0.03800  0.22110  1.0000 0.075303178
H   H90       1.0  0.30810  0.46200  0.77890  1.0000 0.075303178
H   H91       1.0  0.19190  0.53800  0.27890  1.0000 0.075303178
H   H92       1.0  0.69190  0.96200  0.72110  1.0000 0.075303178
H   H93       1.0  0.19190  0.96200  0.77890  1.0000 0.075303178
H   H94       1.0  0.69190  0.53800  0.22110  1.0000 0.075303178
H   H95       1.0  0.80810  0.46200  0.72110  1.0000 0.075303178
H   H96       1.0  0.30810  0.03800  0.27890  1.0000 0.075303178
C   C1        1.0  0.78049  0.30484  0.43651  1.0000 -0.0613545361
C   C2        1.0  0.28049  0.19516  0.56349  1.0000 -0.0613545361
C   C3        1.0  0.21951  0.80484  0.06349  1.0000 -0.0613545361
C   C4        1.0  0.71951  0.69516  0.93651  1.0000 -0.0613545361
C   C5        1.0  0.21951  0.69516  0.56349  1.0000 -0.0613545361
C   C6        1.0  0.71951  0.80484  0.43651  1.0000 -0.0613545361
C   C7        1.0  0.78049  0.19516  0.93651  1.0000 -0.0613545361
C   C8        1.0  0.28049  0.30484  0.06349  1.0000 -0.0613545361
C   C9        1.0  0.58843  0.96598  0.28956  1.0000 -0.0704504093
C   C10       1.0  0.08843  0.53402  0.71044  1.0000 -0.0704504093
C   C11       1.0  0.41157  0.46598  0.21044  1.0000 -0.0704504093
C   C12       1.0  0.91157  0.03402  0.78956  1.0000 -0.0704504093
C   C13       1.0  0.41157  0.03402  0.71044  1.0000 -0.0704504093
C   C14       1.0  0.91157  0.46598  0.28956  1.0000 -0.0704504093
C   C15       1.0  0.58843  0.53402  0.78956  1.0000 -0.0704504093
C   C16       1.0  0.08843  0.96598  0.21044  1.0000 -0.0704504093
C   C17       1.0  0.01487  0.08039  0.41803  1.0000 0.1384183026
C   C18       1.0  0.51487  0.41961  0.58197  1.0000 0.1384183026
C   C19       1.0  0.98513  0.58039  0.08197  1.0000 0.1384183026
C   C20       1.0  0.48513  0.91961  0.91803  1.0000 0.1384183026
C   C21       1.0  0.98513  0.91961  0.58197  1.0000 0.1384183026
C   C22       1.0  0.48513  0.58039  0.41803  1.0000 0.1384183026
C   C23       1.0  0.01487  0.41961  0.91803  1.0000 0.1384183026
C   C24       1.0  0.51487  0.08039  0.08197  1.0000 0.1384183026
C   C25       1.0  0.14338  0.85556  0.39556  1.0000 -0.0704504093
C   C26       1.0  0.64338  0.64444  0.60444  1.0000 -0.0704504093
C   C27       1.0  0.85662  0.35556  0.10444  1.0000 -0.0704504093
C   C28       1.0  0.35662  0.14444  0.89556  1.0000 -0.0704504093
C   C29       1.0  0.85662  0.14444  0.60444  1.0000 -0.0704504093
C   C30       1.0  0.35662  0.35556  0.39556  1.0000 -0.0704504093
C   C31       1.0  0.14338  0.64444  0.89556  1.0000 -0.0704504093
C   C32       1.0  0.64338  0.85556  0.10444  1.0000 -0.0704504093
C   C33       1.0  0.10547  0.11767  0.34605  1.0000 -0.0613545361
C   C34       1.0  0.60547  0.38233  0.65395  1.0000 -0.0613545361
C   C35       1.0  0.89453  0.61767  0.15395  1.0000 -0.0613545361
C   C36       1.0  0.39453  0.88233  0.84605  1.0000 -0.0613545361
C   C37       1.0  0.89453  0.88233  0.65395  1.0000 -0.0613545361
C   C38       1.0  0.39453  0.61767  0.34605  1.0000 -0.0613545361
C   C39       1.0  0.10547  0.38233  0.84605  1.0000 -0.0613545361
C   C40       1.0  0.60547  0.11767  0.15395  1.0000 -0.0613545361
C   C41       1.0  0.10929  0.15536  0.38790  1.0000 -0.0613545361
C   C42       1.0  0.60929  0.34464  0.61210  1.0000 -0.0613545361
C   C43       1.0  0.89071  0.65536  0.11210  1.0000 -0.0613545361
C   C44       1.0  0.39071  0.84464  0.88790  1.0000 -0.0613545361
C   C45       1.0  0.89071  0.84464  0.61210  1.0000 -0.0613545361
C   C46       1.0  0.39071  0.65536  0.38790  1.0000 -0.0613545361
C   C47       1.0  0.10929  0.34464  0.88790  1.0000 -0.0613545361
C   C48       1.0  0.60929  0.15536  0.11210  1.0000 -0.0613545361
C   C49       1.0  0.99535  0.91859  0.41784  1.0000 0.1256679964
C   C50       1.0  0.49535  0.58141  0.58216  1.0000 0.1256679964
C   C51       1.0  0.00465  0.41859  0.08216  1.0000 0.1256679964
C   C52       1.0  0.50465  0.08141  0.91784  1.0000 0.1256679964
C   C53       1.0  0.00465  0.08141  0.58216  1.0000 0.1256679964
C   C54       1.0  0.50465  0.41859  0.41784  1.0000 0.1256679964
C   C55       1.0  0.99535  0.58141  0.91784  1.0000 0.1256679964
C   C56       1.0  0.49535  0.91859  0.08216  1.0000 0.1256679964
C   C57       1.0  0.14194  0.89519  0.35531  1.0000 -0.0613545361
C   C58       1.0  0.64194  0.60481  0.64469  1.0000 -0.0613545361
C   C59       1.0  0.85806  0.39519  0.14469  1.0000 -0.0613545361
C   C60       1.0  0.35806  0.10481  0.85531  1.0000 -0.0613545361
C   C61       1.0  0.85806  0.10481  0.64469  1.0000 -0.0613545361
C   C62       1.0  0.35806  0.39519  0.35531  1.0000 -0.0613545361
C   C63       1.0  0.14194  0.60481  0.85531  1.0000 -0.0613545361
C   C64       1.0  0.64194  0.89519  0.14469  1.0000 -0.0613545361
C   C65       1.0  0.75580  0.24735  0.50270  1.0000 0.1556279805
C   C66       1.0  0.25580  0.25265  0.49730  1.0000 0.1556279805
C   C67       1.0  0.24420  0.74735  0.99730  1.0000 0.1556279805
C   C68       1.0  0.74420  0.75265  0.00270  1.0000 0.1556279805
C   C69       1.0  0.24420  0.75265  0.49730  1.0000 0.1556279805
C   C70       1.0  0.74420  0.74735  0.50270  1.0000 0.1556279805
C   C71       1.0  0.75580  0.25265  0.00270  1.0000 0.1556279805
C   C72       1.0  0.25580  0.24735  0.99730  1.0000 0.1556279805
C   C73       1.0  0.89506  0.27102  0.43818  1.0000 -0.0613545361
C   C74       1.0  0.39506  0.22898  0.56182  1.0000 -0.0613545361
C   C75       1.0  0.10494  0.77102  0.06182  1.0000 -0.0613545361
C   C76       1.0  0.60494  0.72898  0.93818  1.0000 -0.0613545361
C   C77       1.0  0.10494  0.72898  0.56182  1.0000 -0.0613545361
C   C78       1.0  0.60494  0.77102  0.43818  1.0000 -0.0613545361
C   C79       1.0  0.89506  0.22898  0.93818  1.0000 -0.0613545361
C   C80       1.0  0.39506  0.27102  0.06182  1.0000 -0.0613545361
C   C81       1.0  0.70157  0.96608  0.32356  1.0000 -0.0704504093
C   C82       1.0  0.20157  0.53392  0.67644  1.0000 -0.0704504093
C   C83       1.0  0.29843  0.46608  0.17644  1.0000 -0.0704504093
C   C84       1.0  0.79843  0.03392  0.82356  1.0000 -0.0704504093
C   C85       1.0  0.29843  0.03392  0.67644  1.0000 -0.0704504093
C   C86       1.0  0.79843  0.46608  0.32356  1.0000 -0.0704504093
C   C87       1.0  0.70157  0.53392  0.82356  1.0000 -0.0704504093
C   C88       1.0  0.20157  0.96608  0.17644  1.0000 -0.0704504093
C   C89       1.0  0.75250  0.01239  0.25074  1.0000 0.1384183026
C   C90       1.0  0.25250  0.48761  0.74926  1.0000 0.1384183026
C   C91       1.0  0.24750  0.51239  0.24926  1.0000 0.1384183026
C   C92       1.0  0.74750  0.98761  0.75074  1.0000 0.1384183026
C   C93       1.0  0.24750  0.98761  0.74926  1.0000 0.1384183026
C   C94       1.0  0.74750  0.51239  0.25074  1.0000 0.1384183026
C   C95       1.0  0.75250  0.48761  0.75074  1.0000 0.1384183026
C   C96       1.0  0.25250  0.01239  0.24926  1.0000 0.1384183026
N   N1        1.0  0.04542  0.06982  0.36556  1.0000 -0.3004613708
N   N2        1.0  0.54542  0.43018  0.63444  1.0000 -0.3004613708
N   N3        1.0  0.95458  0.56982  0.13444  1.0000 -0.3004613708
N   N4        1.0  0.45458  0.93018  0.86556  1.0000 -0.3004613708
N   N5        1.0  0.95458  0.93018  0.63444  1.0000 -0.3004613708
N   N6        1.0  0.45458  0.56982  0.36556  1.0000 -0.3004613708
N   N7        1.0  0.04542  0.43018  0.86556  1.0000 -0.3004613708
N   N8        1.0  0.54542  0.06982  0.13444  1.0000 -0.3004613708
N   N9        1.0  0.87878  0.23450  0.48076  1.0000 -0.2900435619
N   N10       1.0  0.37878  0.26550  0.51924  1.0000 -0.2900435619
N   N11       1.0  0.12122  0.73450  0.01924  1.0000 -0.2900435619
N   N12       1.0  0.62122  0.76550  0.98076  1.0000 -0.2900435619
N   N13       1.0  0.12122  0.76550  0.51924  1.0000 -0.2900435619
N   N14       1.0  0.62122  0.73450  0.48076  1.0000 -0.2900435619
N   N15       1.0  0.87878  0.26550  0.98076  1.0000 -0.2900435619
N   N16       1.0  0.37878  0.23450  0.01924  1.0000 -0.2900435619
N   N17       1.0  0.69231  0.28968  0.47777  1.0000 -0.2900435619
N   N18       1.0  0.19231  0.21032  0.52223  1.0000 -0.2900435619
N   N19       1.0  0.30769  0.78968  0.02223  1.0000 -0.2900435619
N   N20       1.0  0.80769  0.71032  0.97777  1.0000 -0.2900435619
N   N21       1.0  0.30769  0.71032  0.52223  1.0000 -0.2900435619
N   N22       1.0  0.80769  0.78968  0.47777  1.0000 -0.2900435619
N   N23       1.0  0.69231  0.21032  0.97777  1.0000 -0.2900435619
N   N24       1.0  0.19231  0.28968  0.02223  1.0000 -0.2900435619
N   N25       1.0  0.04720  0.93522  0.36963  1.0000 -0.2900435619
N   N26       1.0  0.54720  0.56478  0.63037  1.0000 -0.2900435619
N   N27       1.0  0.95280  0.43522  0.13037  1.0000 -0.2900435619
N   N28       1.0  0.45280  0.06478  0.86963  1.0000 -0.2900435619
N   N29       1.0  0.95280  0.06478  0.63037  1.0000 -0.2900435619
N   N30       1.0  0.45280  0.43522  0.36963  1.0000 -0.2900435619
N   N31       1.0  0.04720  0.56478  0.86963  1.0000 -0.2900435619
N   N32       1.0  0.54720  0.93522  0.13037  1.0000 -0.2900435619
N   N33       1.0  0.05132  0.13156  0.43346  1.0000 -0.2900435619
N   N34       1.0  0.55132  0.36844  0.56654  1.0000 -0.2900435619
N   N35       1.0  0.94868  0.63156  0.06654  1.0000 -0.2900435619
N   N36       1.0  0.44868  0.86844  0.93346  1.0000 -0.2900435619
N   N37       1.0  0.94868  0.86844  0.56654  1.0000 -0.2900435619
N   N38       1.0  0.44868  0.63156  0.43346  1.0000 -0.2900435619
N   N39       1.0  0.05132  0.36844  0.93346  1.0000 -0.2900435619
N   N40       1.0  0.55132  0.13156  0.06654  1.0000 -0.2900435619
N   N41       1.0  0.04938  0.87053  0.43522  1.0000 -0.2900435619
N   N42       1.0  0.54938  0.62947  0.56478  1.0000 -0.2900435619
N   N43       1.0  0.95062  0.37053  0.06478  1.0000 -0.2900435619
N   N44       1.0  0.45062  0.12947  0.93522  1.0000 -0.2900435619
N   N45       1.0  0.95062  0.12947  0.56478  1.0000 -0.2900435619
N   N46       1.0  0.45062  0.37053  0.43522  1.0000 -0.2900435619
N   N47       1.0  0.04938  0.62947  0.93522  1.0000 -0.2900435619
N   N48       1.0  0.54938  0.87053  0.06478  1.0000 -0.2900435619
N   N49       1.0  0.12144  0.99576  0.25690  1.0000 -0.2900435619
N   N50       1.0  0.62144  0.50424  0.74310  1.0000 -0.2900435619
N   N51       1.0  0.87856  0.49576  0.24310  1.0000 -0.2900435619
N   N52       1.0  0.37856  0.00424  0.75690  1.0000 -0.2900435619
N   N53       1.0  0.87856  0.00424  0.74310  1.0000 -0.2900435619
N   N54       1.0  0.37856  0.49576  0.25690  1.0000 -0.2900435619
N   N55       1.0  0.12144  0.50424  0.75690  1.0000 -0.2900435619
N   N56       1.0  0.62144  0.99576  0.24310  1.0000 -0.2900435619
N   N57       1.0  0.80604  0.99559  0.29858  1.0000 -0.2900435619
N   N58       1.0  0.30604  0.50441  0.70142  1.0000 -0.2900435619
N   N59       1.0  0.19396  0.49559  0.20142  1.0000 -0.2900435619
N   N60       1.0  0.69396  0.00441  0.79858  1.0000 -0.2900435619
N   N61       1.0  0.19396  0.00441  0.70142  1.0000 -0.2900435619
N   N62       1.0  0.69396  0.49559  0.29858  1.0000 -0.2900435619
N   N63       1.0  0.80604  0.50441  0.79858  1.0000 -0.2900435619
N   N64       1.0  0.30604  0.99559  0.20142  1.0000 -0.2900435619
