# DDEC6 charges by PACMAN v1.1 (https://github.com/mtap-research/PACMAN-charge/)
data_2017[Zn][unc]3[ASR]1
_chemical_formula_sum              "Zn4 H44 C36 N8 O8"
_cell_length_a       12.8
_cell_length_b       12.8
_cell_length_c       9.984
_cell_angle_alpha    90
_cell_angle_beta     90
_cell_angle_gamma    90

_symmetry_space_group_name_H-M    "P 1"
_symmetry_Int_Tables_number       1

loop_
  _symmetry_equiv_pos_as_xyz
  'x, y, z'

loop_
  _atom_site_type_symbol
  _atom_site_label
  _atom_site_symmetry_multiplicity
  _atom_site_fract_x
  _atom_site_fract_y
  _atom_site_fract_z
  _atom_site_occupancy
  _atom_site_charge
Zn  Zn1       1.0  0.51723  0.90972  0.04161  1.0000 0.6205888102
Zn  Zn2       1.0  0.48277  0.09028  0.54161  1.0000 0.6205888102
Zn  Zn3       1.0  0.90972  0.48277  0.29161  1.0000 0.6205888102
Zn  Zn4       1.0  0.09028  0.51723  0.79161  1.0000 0.6205888102
H   H1        1.0  0.66710  0.73320  0.11950  1.0000 0.0986913303
H   H2        1.0  0.33290  0.26680  0.61950  1.0000 0.0986913303
H   H3        1.0  0.73320  0.33290  0.36950  1.0000 0.0986913303
H   H4        1.0  0.26680  0.66710  0.86950  1.0000 0.0986913303
H   H5        1.0  0.81280  0.64970  0.04500  1.0000 0.1366768862
H   H6        1.0  0.18720  0.35030  0.54500  1.0000 0.1366768862
H   H7        1.0  0.64970  0.18720  0.29500  1.0000 0.1366768862
H   H8        1.0  0.35030  0.81280  0.79500  1.0000 0.1366768862
H   H9        1.0  0.80040  0.82420  0.71240  1.0000 0.1285036095
H   H10       1.0  0.19960  0.17580  0.21240  1.0000 0.1285036095
H   H11       1.0  0.82420  0.19960  0.96240  1.0000 0.1285036095
H   H12       1.0  0.17580  0.80040  0.46240  1.0000 0.1285036095
H   H13       1.0  0.65990  0.90730  0.80130  1.0000 0.0986913303
H   H14       1.0  0.34010  0.09270  0.30130  1.0000 0.0986913303
H   H15       1.0  0.90730  0.34010  0.05130  1.0000 0.0986913303
H   H16       1.0  0.09270  0.65990  0.55130  1.0000 0.0986913303
H   H17       1.0  0.94050  0.70900  0.73300  1.0000 0.1069173525
H   H18       1.0  0.05950  0.29100  0.23300  1.0000 0.1069173525
H   H19       1.0  0.70900  0.05950  0.98300  1.0000 0.1069173525
H   H20       1.0  0.29100  0.94050  0.48300  1.0000 0.1069173525
H   H21       1.0  0.98030  0.70680  0.88090  1.0000 0.1285036095
H   H22       1.0  0.01970  0.29320  0.38090  1.0000 0.1285036095
H   H23       1.0  0.70680  0.01970  0.13090  1.0000 0.1285036095
H   H24       1.0  0.29320  0.98030  0.63090  1.0000 0.1285036095
H   H25       1.0  0.81180  0.56570  0.68360  1.0000 0.0911760415
H   H26       1.0  0.18820  0.43430  0.18360  1.0000 0.0911760415
H   H27       1.0  0.56570  0.18820  0.93360  1.0000 0.0911760415
H   H28       1.0  0.43430  0.81180  0.43360  1.0000 0.0911760415
H   H29       1.0  0.75510  0.44210  0.83560  1.0000 0.1285036095
H   H30       1.0  0.24490  0.55790  0.33560  1.0000 0.1285036095
H   H31       1.0  0.44210  0.24490  0.08560  1.0000 0.1285036095
H   H32       1.0  0.55790  0.75510  0.58560  1.0000 0.1285036095
H   H33       1.0  0.77970  0.37720  0.70620  1.0000 0.1366768862
H   H34       1.0  0.22030  0.62280  0.20620  1.0000 0.1366768862
H   H35       1.0  0.37720  0.22030  0.95620  1.0000 0.1366768862
H   H36       1.0  0.62280  0.77970  0.45620  1.0000 0.1366768862
H   H37       1.0  0.85940  0.37840  0.82540  1.0000 0.1158736358
H   H38       1.0  0.14060  0.62160  0.32540  1.0000 0.1158736358
H   H39       1.0  0.37840  0.14060  0.07540  1.0000 0.1158736358
H   H40       1.0  0.62160  0.85940  0.57540  1.0000 0.1158736358
H   H41       1.0  0.91150  0.54160  0.89590  1.0000 0.2435038547
H   H42       1.0  0.08850  0.45840  0.39590  1.0000 0.2435038547
H   H43       1.0  0.54160  0.08850  0.14590  1.0000 0.2435038547
H   H44       1.0  0.45840  0.91150  0.64590  1.0000 0.2435038547
C   C1        1.0  0.69400  0.75180  0.03630  1.0000 0.0679112161
C   C2        1.0  0.30600  0.24820  0.53630  1.0000 0.0679112161
C   C3        1.0  0.75180  0.30600  0.28630  1.0000 0.0679112161
C   C4        1.0  0.24820  0.69400  0.78630  1.0000 0.0679112161
C   C5        1.0  0.78180  0.70080  0.99200  1.0000 -0.2154837837
C   C6        1.0  0.21820  0.29920  0.49200  1.0000 -0.2154837837
C   C7        1.0  0.70080  0.21820  0.24200  1.0000 -0.2154837837
C   C8        1.0  0.29920  0.78180  0.74200  1.0000 -0.2154837837
C   C9        1.0  0.82460  0.72560  0.86750  1.0000 0.1285036095
C   C10       1.0  0.17540  0.27440  0.36750  1.0000 0.1285036095
C   C11       1.0  0.72560  0.17540  0.11750  1.0000 0.1285036095
C   C12       1.0  0.27440  0.82460  0.61750  1.0000 0.1285036095
C   C13       1.0  0.77530  0.80440  0.79610  1.0000 -0.2154837837
C   C14       1.0  0.22470  0.19560  0.29610  1.0000 -0.2154837837
C   C15       1.0  0.80440  0.22470  0.04610  1.0000 -0.2154837837
C   C16       1.0  0.19560  0.77530  0.54610  1.0000 -0.2154837837
C   C17       1.0  0.68960  0.85260  0.84940  1.0000 0.0109096068
C   C18       1.0  0.31040  0.14740  0.34940  1.0000 0.0109096068
C   C19       1.0  0.85260  0.31040  0.09940  1.0000 0.0109096068
C   C20       1.0  0.14740  0.68960  0.59940  1.0000 0.0109096068
C   C21       1.0  0.92590  0.68160  0.82160  1.0000 -0.171307682
C   C22       1.0  0.07410  0.31840  0.32160  1.0000 -0.171307682
C   C23       1.0  0.68160  0.07410  0.07160  1.0000 -0.171307682
C   C24       1.0  0.31840  0.92590  0.57160  1.0000 -0.171307682
C   C25       1.0  0.86450  0.51540  0.71400  1.0000 0.0007174295
C   C26       1.0  0.13550  0.48460  0.21400  1.0000 0.0007174295
C   C27       1.0  0.51540  0.13550  0.96400  1.0000 0.0007174295
C   C28       1.0  0.48460  0.86450  0.46400  1.0000 0.0007174295
C   C29       1.0  0.80940  0.41910  0.77620  1.0000 -0.4310649176
C   C30       1.0  0.19060  0.58090  0.27620  1.0000 -0.4310649176
C   C31       1.0  0.41910  0.19060  0.02620  1.0000 -0.4310649176
C   C32       1.0  0.58090  0.80940  0.52620  1.0000 -0.4310649176
C   C33       1.0  0.92890  0.47800  0.59430  1.0000 0.5415339331
C   C34       1.0  0.07110  0.52200  0.09430  1.0000 0.5415339331
C   C35       1.0  0.47800  0.07110  0.84430  1.0000 0.5415339331
C   C36       1.0  0.52200  0.92890  0.34430  1.0000 0.5415339331
N   N1        1.0  0.64500  0.82610  0.96800  1.0000 -0.2444633906
N   N2        1.0  0.35500  0.17390  0.46800  1.0000 -0.2444633906
N   N3        1.0  0.82610  0.35500  0.21800  1.0000 -0.2444633906
N   N4        1.0  0.17390  0.64500  0.71800  1.0000 -0.2444633906
N   N5        1.0  0.93290  0.56550  0.81560  1.0000 -0.3506479998
N   N6        1.0  0.06710  0.43450  0.31560  1.0000 -0.3506479998
N   N7        1.0  0.56550  0.06710  0.06560  1.0000 -0.3506479998
N   N8        1.0  0.43450  0.93290  0.56560  1.0000 -0.3506479998
O   O1        1.0  0.02610  0.47800  0.59960  1.0000 -0.5777155971
O   O2        1.0  0.97390  0.52200  0.09960  1.0000 -0.5777155971
O   O3        1.0  0.47800  0.97390  0.84960  1.0000 -0.5777155971
O   O4        1.0  0.52200  0.02610  0.34960  1.0000 -0.5777155971
O   O5        1.0  0.87530  0.44550  0.49540  1.0000 -0.5777155971
O   O6        1.0  0.12470  0.55450  0.99540  1.0000 -0.5777155971
O   O7        1.0  0.44550  0.12470  0.74540  1.0000 -0.5777155971
O   O8        1.0  0.55450  0.87530  0.24540  1.0000 -0.5777155971
