# DDEC6 charges by PACMAN v1.1 (https://github.com/mtap-research/PACMAN-charge/)
data_ic1010083_si_002_FSR_pacman
_symmetry_space_group_name_H-M   'P 1'
_cell_length_a   28.46200000
_cell_length_b   28.46200000
_cell_length_c   36.08400000
_cell_angle_alpha   90.00000000
_cell_angle_beta   90.00000000
_cell_angle_gamma   90.00000000
_symmetry_Int_Tables_number   1
_chemical_formula_structural   Zn5H28C48S2(N2O)9
_chemical_formula_sum   'Zn80 H448 C768 S32 N288 O144.0'
_cell_volume   29231.12316130
_cell_formula_units_Z   16
loop_
 _symmetry_equiv_pos_site_id
 _symmetry_equiv_pos_as_xyz
  1  'x, y, z'
loop_
 _atom_site_type_symbol
 _atom_site_label
 _atom_site_symmetry_multiplicity
 _atom_site_fract_x
 _atom_site_fract_y
 _atom_site_fract_z
 _atom_site_occupancy
 _atom_site_charge
Zn  Zn1  1  0.59838000  0.87278000  0.84339000  1.0 0.665537214
Zn  Zn2  1  0.73126000  0.79826000  0.94944000  1.0 0.6380473793
Zn  Zn3  1  0.71472000  0.88404000  0.87901000  1.0 0.4426282578
Zn  Zn4  1  0.79895000  0.86711000  0.80512000  1.0 0.6519373887
Zn  Zn5  1  0.72578000  0.99742000  0.91828000  1.0 0.6807450064
Zn  Zn6  1  0.09838000  0.37278000  0.34339000  1.0 0.665537214
Zn  Zn7  1  0.23126000  0.29826000  0.44944000  1.0 0.6380473793
Zn  Zn8  1  0.21472000  0.38404000  0.37901000  1.0 0.4426282578
Zn  Zn9  1  0.29895000  0.36711000  0.30512000  1.0 0.6519373887
Zn  Zn10  1  0.22578000  0.49742000  0.41828000  1.0 0.6807450064
Zn  Zn11  1  0.09838000  0.87278000  0.65661000  1.0 0.665537214
Zn  Zn12  1  0.23126000  0.79826000  0.55056000  1.0 0.6380473793
Zn  Zn13  1  0.21472000  0.88404000  0.62099000  1.0 0.4426282578
Zn  Zn14  1  0.29895000  0.86711000  0.69488000  1.0 0.6519373887
Zn  Zn15  1  0.22578000  0.99742000  0.58172000  1.0 0.6807450064
Zn  Zn16  1  0.59838000  0.37278000  0.15661000  1.0 0.665537214
Zn  Zn17  1  0.73126000  0.29826000  0.05056000  1.0 0.6380473793
Zn  Zn18  1  0.71472000  0.38404000  0.12099000  1.0 0.4426282578
Zn  Zn19  1  0.79895000  0.36711000  0.19488000  1.0 0.6519373887
Zn  Zn20  1  0.72578000  0.49742000  0.08172000  1.0 0.6807450064
Zn  Zn21  1  0.90162000  0.12722000  0.34339000  1.0 0.6645110257
Zn  Zn22  1  0.76874000  0.20174000  0.44944000  1.0 0.6380473793
Zn  Zn23  1  0.78528000  0.11596000  0.37901000  1.0 0.4426282578
Zn  Zn24  1  0.70105000  0.13289000  0.30512000  1.0 0.6519373887
Zn  Zn25  1  0.77422000  0.00258000  0.41828000  1.0 0.6807450064
Zn  Zn26  1  0.40162000  0.62722000  0.84339000  1.0 0.665537214
Zn  Zn27  1  0.26874000  0.70174000  0.94944000  1.0 0.6380473793
Zn  Zn28  1  0.28528000  0.61596000  0.87901000  1.0 0.4426282578
Zn  Zn29  1  0.20105000  0.63289000  0.80512000  1.0 0.6519373887
Zn  Zn30  1  0.27422000  0.50258000  0.91828000  1.0 0.6807450064
Zn  Zn31  1  0.40162000  0.12722000  0.15661000  1.0 0.665537214
Zn  Zn32  1  0.26874000  0.20174000  0.05056000  1.0 0.6380473793
Zn  Zn33  1  0.28528000  0.11596000  0.12099000  1.0 0.4426282578
Zn  Zn34  1  0.20105000  0.13289000  0.19488000  1.0 0.6519373887
Zn  Zn35  1  0.27422000  0.00258000  0.08172000  1.0 0.6807450064
Zn  Zn36  1  0.90162000  0.62722000  0.65661000  1.0 0.6645110257
Zn  Zn37  1  0.76874000  0.70174000  0.55056000  1.0 0.6380473793
Zn  Zn38  1  0.78528000  0.61596000  0.62099000  1.0 0.4426282578
Zn  Zn39  1  0.70105000  0.63289000  0.69488000  1.0 0.6519373887
Zn  Zn40  1  0.77422000  0.50258000  0.58172000  1.0 0.6807450064
Zn  Zn41  1  0.62278000  0.15162000  0.59339000  1.0 0.665537214
Zn  Zn42  1  0.54826000  0.01874000  0.69944000  1.0 0.6380473793
Zn  Zn43  1  0.63404000  0.03528000  0.62901000  1.0 0.4426282578
Zn  Zn44  1  0.61711000  0.95105000  0.55512000  1.0 0.6519373887
Zn  Zn45  1  0.74742000  0.02422000  0.66828000  1.0 0.6807450064
Zn  Zn46  1  0.12278000  0.65162000  0.09339000  1.0 0.665537214
Zn  Zn47  1  0.04826000  0.51874000  0.19944000  1.0 0.6380473793
Zn  Zn48  1  0.13404000  0.53528000  0.12901000  1.0 0.4426282578
Zn  Zn49  1  0.11711000  0.45105000  0.05512000  1.0 0.6519373887
Zn  Zn50  1  0.24742000  0.52422000  0.16828000  1.0 0.6807450064
Zn  Zn51  1  0.12278000  0.15162000  0.90661000  1.0 0.6645110257
Zn  Zn52  1  0.04826000  0.01874000  0.80056000  1.0 0.6380473793
Zn  Zn53  1  0.13404000  0.03528000  0.87099000  1.0 0.4426282578
Zn  Zn54  1  0.11711000  0.95105000  0.94488000  1.0 0.6519373887
Zn  Zn55  1  0.24742000  0.02422000  0.83172000  1.0 0.6807450064
Zn  Zn56  1  0.62278000  0.65162000  0.40661000  1.0 0.665537214
Zn  Zn57  1  0.54826000  0.51874000  0.30056000  1.0 0.6380473793
Zn  Zn58  1  0.63404000  0.53528000  0.37099000  1.0 0.4426282578
Zn  Zn59  1  0.61711000  0.45105000  0.44488000  1.0 0.6519373887
Zn  Zn60  1  0.74742000  0.52422000  0.33172000  1.0 0.6807450064
Zn  Zn61  1  0.87722000  0.84838000  0.09339000  1.0 0.665537214
Zn  Zn62  1  0.95174000  0.98126000  0.19944000  1.0 0.6380473793
Zn  Zn63  1  0.86596000  0.96472000  0.12901000  1.0 0.4426282578
Zn  Zn64  1  0.88289000  0.04895000  0.05512000  1.0 0.6519373887
Zn  Zn65  1  0.75258000  0.97578000  0.16828000  1.0 0.6807450064
Zn  Zn66  1  0.37722000  0.34838000  0.59339000  1.0 0.665537214
Zn  Zn67  1  0.45174000  0.48126000  0.69944000  1.0 0.6380473793
Zn  Zn68  1  0.36596000  0.46472000  0.62901000  1.0 0.4426282578
Zn  Zn69  1  0.38289000  0.54895000  0.55512000  1.0 0.6519373887
Zn  Zn70  1  0.25258000  0.47578000  0.66828000  1.0 0.6807450064
Zn  Zn71  1  0.37722000  0.84838000  0.40661000  1.0 0.665537214
Zn  Zn72  1  0.45174000  0.98126000  0.30056000  1.0 0.6380473793
Zn  Zn73  1  0.36596000  0.96472000  0.37099000  1.0 0.4426282578
Zn  Zn74  1  0.38289000  0.04895000  0.44488000  1.0 0.6519373887
Zn  Zn75  1  0.25258000  0.97578000  0.33172000  1.0 0.6807450064
Zn  Zn76  1  0.87722000  0.34838000  0.90661000  1.0 0.6645110257
Zn  Zn77  1  0.95174000  0.48126000  0.80056000  1.0 0.6380473793
Zn  Zn78  1  0.86596000  0.46472000  0.87099000  1.0 0.4426282578
Zn  Zn79  1  0.88289000  0.54895000  0.94488000  1.0 0.6519373887
Zn  Zn80  1  0.75258000  0.47578000  0.83172000  1.0 0.6807450064
H  H1  1  0.59010000  0.89210000  0.74950000  1.0 0.1387150632
H  H2  1  0.75120000  0.88840000  0.71860000  1.0 0.1295921245
H  H3  1  0.61520000  0.89710000  0.68840000  1.0 0.1089854407
H  H4  1  0.69410000  0.89390000  0.67280000  1.0 0.1039287497
H  H5  1  0.92250000  0.88050000  0.64300000  1.0 0.1295921245
H  H6  1  0.64850000  0.70940000  0.95170000  1.0 0.1202368907
H  H7  1  0.91620000  0.71760000  0.85020000  1.0 0.1089854407
H  H8  1  0.73920000  0.00390000  0.01150000  1.0 0.1295921245
H  H9  1  0.81980000  0.06090000  0.89200000  1.0 0.1295921245
H  H10  1  0.89010000  0.07700000  0.86500000  1.0 0.1089854407
H  H11  1  0.85540000  0.88700000  0.68410000  1.0 0.1202368907
H  H12  1  0.73590000  0.84040000  0.04000000  1.0 0.1295921245
H  H13  1  0.53190000  0.69520000  0.89120000  1.0 0.1089854407
H  H14  1  0.58140000  0.66910000  0.93620000  1.0 0.1202368907
H  H15  1  0.89220000  0.69340000  0.90780000  1.0 0.1202368907
H  H16  1  0.87550000  0.77670000  0.81840000  1.0 0.1295921245
H  H17  1  0.54480000  0.76510000  0.85950000  1.0 0.1295921245
H  H18  1  0.88840000  0.95590000  0.80810000  1.0 0.1387150632
H  H19  1  0.82760000  0.72740000  0.93800000  1.0 0.1202368907
H  H20  1  0.51590000  0.95560000  0.87700000  1.0 0.1202368907
H  H21  1  0.92240000  0.02530000  0.82040000  1.0 0.1039287497
H  H22  1  0.54830000  0.07750000  0.92910000  1.0 0.1089854407
H  H23  1  0.73090000  0.89820000  0.08550000  1.0 0.1089854407
H  H24  1  0.74100000  0.97710000  0.07180000  1.0 0.1089854407
H  H25  1  0.62600000  0.06000000  0.93200000  1.0 0.1387150632
H  H26  1  0.49270000  0.02150000  0.91090000  1.0 0.1089854407
H  H31  1  0.09010000  0.39210000  0.24950000  1.0 0.1387150632
H  H32  1  0.25120000  0.38840000  0.21860000  1.0 0.1295921245
H  H33  1  0.11520000  0.39710000  0.18840000  1.0 0.1089854407
H  H34  1  0.19410000  0.39390000  0.17280000  1.0 0.1039287497
H  H35  1  0.42250000  0.38050000  0.14300000  1.0 0.1295921245
H  H36  1  0.14850000  0.20940000  0.45170000  1.0 0.1202368907
H  H37  1  0.41620000  0.21760000  0.35020000  1.0 0.1089854407
H  H38  1  0.23920000  0.50390000  0.51150000  1.0 0.1295921245
H  H39  1  0.31980000  0.56090000  0.39200000  1.0 0.1295921245
H  H40  1  0.39010000  0.57700000  0.36500000  1.0 0.1089854407
H  H41  1  0.35540000  0.38700000  0.18410000  1.0 0.1202368907
H  H42  1  0.23590000  0.34040000  0.54000000  1.0 0.1295921245
H  H43  1  0.03190000  0.19520000  0.39120000  1.0 0.1089854407
H  H44  1  0.08140000  0.16910000  0.43620000  1.0 0.1202368907
H  H45  1  0.39220000  0.19340000  0.40780000  1.0 0.1202368907
H  H46  1  0.37550000  0.27670000  0.31840000  1.0 0.1295921245
H  H47  1  0.04480000  0.26510000  0.35950000  1.0 0.1295921245
H  H48  1  0.38840000  0.45590000  0.30810000  1.0 0.1387150632
H  H49  1  0.32760000  0.22740000  0.43800000  1.0 0.1202368907
H  H50  1  0.01590000  0.45560000  0.37700000  1.0 0.1202368907
H  H51  1  0.42240000  0.52530000  0.32040000  1.0 0.1039287497
H  H52  1  0.04830000  0.57750000  0.42910000  1.0 0.1089854407
H  H53  1  0.23090000  0.39820000  0.58550000  1.0 0.1089854407
H  H54  1  0.24100000  0.47710000  0.57180000  1.0 0.1089854407
H  H55  1  0.12600000  0.56000000  0.43200000  1.0 0.1387150632
H  H56  1  0.99270000  0.52150000  0.41090000  1.0 0.1089854407
H  H61  1  0.09010000  0.89210000  0.75050000  1.0 0.1387150632
H  H62  1  0.25120000  0.88840000  0.78140000  1.0 0.1295921245
H  H63  1  0.11520000  0.89710000  0.81160000  1.0 0.1089854407
H  H64  1  0.19410000  0.89390000  0.82720000  1.0 0.1039287497
H  H65  1  0.42250000  0.88050000  0.85700000  1.0 0.1295921245
H  H66  1  0.14850000  0.70940000  0.54830000  1.0 0.1202368907
H  H67  1  0.41620000  0.71760000  0.64980000  1.0 0.1089854407
H  H68  1  0.23920000  0.00390000  0.48850000  1.0 0.1295921245
H  H69  1  0.31980000  0.06090000  0.60800000  1.0 0.1295921245
H  H70  1  0.39010000  0.07700000  0.63500000  1.0 0.1089854407
H  H71  1  0.35540000  0.88700000  0.81590000  1.0 0.1202368907
H  H72  1  0.23590000  0.84040000  0.46000000  1.0 0.1295921245
H  H73  1  0.03190000  0.69520000  0.60880000  1.0 0.1089854407
H  H74  1  0.08140000  0.66910000  0.56380000  1.0 0.1202368907
H  H75  1  0.39220000  0.69340000  0.59220000  1.0 0.1202368907
H  H76  1  0.37550000  0.77670000  0.68160000  1.0 0.1295921245
H  H77  1  0.04480000  0.76510000  0.64050000  1.0 0.1295921245
H  H78  1  0.38840000  0.95590000  0.69190000  1.0 0.1387150632
H  H79  1  0.32760000  0.72740000  0.56200000  1.0 0.1202368907
H  H80  1  0.01590000  0.95560000  0.62300000  1.0 0.1202368907
H  H81  1  0.42240000  0.02530000  0.67960000  1.0 0.1039287497
H  H82  1  0.04830000  0.07750000  0.57090000  1.0 0.1089854407
H  H83  1  0.23090000  0.89820000  0.41450000  1.0 0.1089854407
H  H84  1  0.24100000  0.97710000  0.42820000  1.0 0.1089854407
H  H85  1  0.12600000  0.06000000  0.56800000  1.0 0.1387150632
H  H86  1  0.99270000  0.02150000  0.58910000  1.0 0.1089854407
H  H91  1  0.59010000  0.39210000  0.25050000  1.0 0.1387150632
H  H92  1  0.75120000  0.38840000  0.28140000  1.0 0.1295921245
H  H93  1  0.61520000  0.39710000  0.31160000  1.0 0.1089854407
H  H94  1  0.69410000  0.39390000  0.32720000  1.0 0.1039287497
H  H95  1  0.92250000  0.38050000  0.35700000  1.0 0.1295921245
H  H96  1  0.64850000  0.20940000  0.04830000  1.0 0.1202368907
H  H97  1  0.91620000  0.21760000  0.14980000  1.0 0.1089854407
H  H98  1  0.73920000  0.50390000  0.98850000  1.0 0.1295921245
H  H99  1  0.81980000  0.56090000  0.10800000  1.0 0.1295921245
H  H100  1  0.89010000  0.57700000  0.13500000  1.0 0.1089854407
H  H101  1  0.85540000  0.38700000  0.31590000  1.0 0.1202368907
H  H102  1  0.73590000  0.34040000  0.96000000  1.0 0.1295921245
H  H103  1  0.53190000  0.19520000  0.10880000  1.0 0.1089854407
H  H104  1  0.58140000  0.16910000  0.06380000  1.0 0.1202368907
H  H105  1  0.89220000  0.19340000  0.09220000  1.0 0.1202368907
H  H106  1  0.87550000  0.27670000  0.18160000  1.0 0.1295921245
H  H107  1  0.54480000  0.26510000  0.14050000  1.0 0.1295921245
H  H108  1  0.88840000  0.45590000  0.19190000  1.0 0.1387150632
H  H109  1  0.82760000  0.22740000  0.06200000  1.0 0.1202368907
H  H110  1  0.51590000  0.45560000  0.12300000  1.0 0.1202368907
H  H111  1  0.92240000  0.52530000  0.17960000  1.0 0.1039287497
H  H112  1  0.54830000  0.57750000  0.07090000  1.0 0.1089854407
H  H113  1  0.73090000  0.39820000  0.91450000  1.0 0.1089854407
H  H114  1  0.74100000  0.47710000  0.92820000  1.0 0.1089854407
H  H115  1  0.62600000  0.56000000  0.06800000  1.0 0.1387150632
H  H116  1  0.49270000  0.52150000  0.08910000  1.0 0.1089854407
H  H121  1  0.90990000  0.10790000  0.24950000  1.0 0.1387150632
H  H122  1  0.74880000  0.11160000  0.21860000  1.0 0.1295921245
H  H123  1  0.88480000  0.10290000  0.18840000  1.0 0.1089854407
H  H124  1  0.80590000  0.10610000  0.17280000  1.0 0.1039287497
H  H125  1  0.57750000  0.11950000  0.14300000  1.0 0.1295921245
H  H126  1  0.85150000  0.29060000  0.45170000  1.0 0.1202368907
H  H127  1  0.58380000  0.28240000  0.35020000  1.0 0.1089854407
H  H128  1  0.76080000  0.99610000  0.51150000  1.0 0.1295921245
H  H129  1  0.68020000  0.93910000  0.39200000  1.0 0.1295921245
H  H130  1  0.60990000  0.92300000  0.36500000  1.0 0.1089854407
H  H131  1  0.64460000  0.11300000  0.18410000  1.0 0.1202368907
H  H132  1  0.76410000  0.15960000  0.54000000  1.0 0.1295921245
H  H133  1  0.96810000  0.30480000  0.39120000  1.0 0.1089854407
H  H134  1  0.91860000  0.33090000  0.43620000  1.0 0.1202368907
H  H135  1  0.60780000  0.30660000  0.40780000  1.0 0.1202368907
H  H136  1  0.62450000  0.22330000  0.31840000  1.0 0.1295921245
H  H137  1  0.95520000  0.23490000  0.35950000  1.0 0.1295921245
H  H138  1  0.61160000  0.04410000  0.30810000  1.0 0.1387150632
H  H139  1  0.67240000  0.27260000  0.43800000  1.0 0.1202368907
H  H140  1  0.98410000  0.04440000  0.37700000  1.0 0.1202368907
H  H141  1  0.57760000  0.97470000  0.32040000  1.0 0.1039287497
H  H142  1  0.95170000  0.92250000  0.42910000  1.0 0.1089854407
H  H143  1  0.76910000  0.10180000  0.58550000  1.0 0.1089854407
H  H144  1  0.75900000  0.02290000  0.57180000  1.0 0.1089854407
H  H145  1  0.87400000  0.94000000  0.43200000  1.0 0.1387150632
H  H146  1  0.00730000  0.97850000  0.41090000  1.0 0.1089854407
H  H151  1  0.40990000  0.60790000  0.74950000  1.0 0.1387150632
H  H152  1  0.24880000  0.61160000  0.71860000  1.0 0.1295921245
H  H153  1  0.38480000  0.60290000  0.68840000  1.0 0.1089854407
H  H154  1  0.30590000  0.60610000  0.67280000  1.0 0.1039287497
H  H155  1  0.07750000  0.61950000  0.64300000  1.0 0.1295921245
H  H156  1  0.35150000  0.79060000  0.95170000  1.0 0.1202368907
H  H157  1  0.08380000  0.78240000  0.85020000  1.0 0.1089854407
H  H158  1  0.26080000  0.49610000  0.01150000  1.0 0.1295921245
H  H159  1  0.18020000  0.43910000  0.89200000  1.0 0.1295921245
H  H160  1  0.10990000  0.42300000  0.86500000  1.0 0.1089854407
H  H161  1  0.14460000  0.61300000  0.68410000  1.0 0.1202368907
H  H162  1  0.26410000  0.65960000  0.04000000  1.0 0.1295921245
H  H163  1  0.46810000  0.80480000  0.89120000  1.0 0.1089854407
H  H164  1  0.41860000  0.83090000  0.93620000  1.0 0.1202368907
H  H165  1  0.10780000  0.80660000  0.90780000  1.0 0.1202368907
H  H166  1  0.12450000  0.72330000  0.81840000  1.0 0.1295921245
H  H167  1  0.45520000  0.73490000  0.85950000  1.0 0.1295921245
H  H168  1  0.11160000  0.54410000  0.80810000  1.0 0.1387150632
H  H169  1  0.17240000  0.77260000  0.93800000  1.0 0.1202368907
H  H170  1  0.48410000  0.54440000  0.87700000  1.0 0.1202368907
H  H171  1  0.07760000  0.47470000  0.82040000  1.0 0.1039287497
H  H172  1  0.45170000  0.42250000  0.92910000  1.0 0.1089854407
H  H173  1  0.26910000  0.60180000  0.08550000  1.0 0.1089854407
H  H174  1  0.25900000  0.52290000  0.07180000  1.0 0.1089854407
H  H175  1  0.37400000  0.44000000  0.93200000  1.0 0.1387150632
H  H176  1  0.50730000  0.47850000  0.91090000  1.0 0.1089854407
H  H181  1  0.40990000  0.10790000  0.25050000  1.0 0.1387150632
H  H182  1  0.24880000  0.11160000  0.28140000  1.0 0.1295921245
H  H183  1  0.38480000  0.10290000  0.31160000  1.0 0.1089854407
H  H184  1  0.30590000  0.10610000  0.32720000  1.0 0.1039287497
H  H185  1  0.07750000  0.11950000  0.35700000  1.0 0.1295921245
H  H186  1  0.35150000  0.29060000  0.04830000  1.0 0.1202368907
H  H187  1  0.08380000  0.28240000  0.14980000  1.0 0.1089854407
H  H188  1  0.26080000  0.99610000  0.98850000  1.0 0.1295921245
H  H189  1  0.18020000  0.93910000  0.10800000  1.0 0.1295921245
H  H190  1  0.10990000  0.92300000  0.13500000  1.0 0.1089854407
H  H191  1  0.14460000  0.11300000  0.31590000  1.0 0.1202368907
H  H192  1  0.26410000  0.15960000  0.96000000  1.0 0.1295921245
H  H193  1  0.46810000  0.30480000  0.10880000  1.0 0.1089854407
H  H194  1  0.41860000  0.33090000  0.06380000  1.0 0.1202368907
H  H195  1  0.10780000  0.30660000  0.09220000  1.0 0.1202368907
H  H196  1  0.12450000  0.22330000  0.18160000  1.0 0.1295921245
H  H197  1  0.45520000  0.23490000  0.14050000  1.0 0.1295921245
H  H198  1  0.11160000  0.04410000  0.19190000  1.0 0.1387150632
H  H199  1  0.17240000  0.27260000  0.06200000  1.0 0.1202368907
H  H200  1  0.48410000  0.04440000  0.12300000  1.0 0.1202368907
H  H201  1  0.07760000  0.97470000  0.17960000  1.0 0.1039287497
H  H202  1  0.45170000  0.92250000  0.07090000  1.0 0.1089854407
H  H203  1  0.26910000  0.10180000  0.91450000  1.0 0.1089854407
H  H204  1  0.25900000  0.02290000  0.92820000  1.0 0.1089854407
H  H205  1  0.37400000  0.94000000  0.06800000  1.0 0.1387150632
H  H206  1  0.50730000  0.97850000  0.08910000  1.0 0.1089854407
H  H211  1  0.90990000  0.60790000  0.75050000  1.0 0.1387150632
H  H212  1  0.74880000  0.61160000  0.78140000  1.0 0.1295921245
H  H213  1  0.88480000  0.60290000  0.81160000  1.0 0.1089854407
H  H214  1  0.80590000  0.60610000  0.82720000  1.0 0.1039287497
H  H215  1  0.57750000  0.61950000  0.85700000  1.0 0.1295921245
H  H216  1  0.85150000  0.79060000  0.54830000  1.0 0.1202368907
H  H217  1  0.58380000  0.78240000  0.64980000  1.0 0.1089854407
H  H218  1  0.76080000  0.49610000  0.48850000  1.0 0.1295921245
H  H219  1  0.68020000  0.43910000  0.60800000  1.0 0.1295921245
H  H220  1  0.60990000  0.42300000  0.63500000  1.0 0.1089854407
H  H221  1  0.64460000  0.61300000  0.81590000  1.0 0.1202368907
H  H222  1  0.76410000  0.65960000  0.46000000  1.0 0.1295921245
H  H223  1  0.96810000  0.80480000  0.60880000  1.0 0.1089854407
H  H224  1  0.91860000  0.83090000  0.56380000  1.0 0.1202368907
H  H225  1  0.60780000  0.80660000  0.59220000  1.0 0.1202368907
H  H226  1  0.62450000  0.72330000  0.68160000  1.0 0.1295921245
H  H227  1  0.95520000  0.73490000  0.64050000  1.0 0.1295921245
H  H228  1  0.61160000  0.54410000  0.69190000  1.0 0.1387150632
H  H229  1  0.67240000  0.77260000  0.56200000  1.0 0.1202368907
H  H230  1  0.98410000  0.54440000  0.62300000  1.0 0.1202368907
H  H231  1  0.57760000  0.47470000  0.67960000  1.0 0.1039287497
H  H232  1  0.95170000  0.42250000  0.57090000  1.0 0.1089854407
H  H233  1  0.76910000  0.60180000  0.41450000  1.0 0.1089854407
H  H234  1  0.75900000  0.52290000  0.42820000  1.0 0.1089854407
H  H235  1  0.87400000  0.44000000  0.56800000  1.0 0.1387150632
H  H236  1  0.00730000  0.47850000  0.58910000  1.0 0.1089854407
H  H241  1  0.64210000  0.15990000  0.49950000  1.0 0.1387150632
H  H242  1  0.63840000  0.99880000  0.46860000  1.0 0.1295921245
H  H243  1  0.64710000  0.13480000  0.43840000  1.0 0.1089854407
H  H244  1  0.64390000  0.05590000  0.42280000  1.0 0.1039287497
H  H245  1  0.63050000  0.82750000  0.39300000  1.0 0.1295921245
H  H246  1  0.45940000  0.10150000  0.70170000  1.0 0.1202368907
H  H247  1  0.46760000  0.83380000  0.60020000  1.0 0.1202368907
H  H248  1  0.75390000  0.01080000  0.76150000  1.0 0.1295921245
H  H249  1  0.81090000  0.93020000  0.64200000  1.0 0.1295921245
H  H250  1  0.82700000  0.85990000  0.61500000  1.0 0.1089854407
H  H251  1  0.63700000  0.89460000  0.43410000  1.0 0.1202368907
H  H252  1  0.59040000  0.01410000  0.79000000  1.0 0.1295921245
H  H253  1  0.44520000  0.21810000  0.64120000  1.0 0.1089854407
H  H254  1  0.41910000  0.16860000  0.68620000  1.0 0.1202368907
H  H255  1  0.44340000  0.85780000  0.65780000  1.0 0.1202368907
H  H256  1  0.52670000  0.87450000  0.56840000  1.0 0.1295921245
H  H257  1  0.51510000  0.20520000  0.60950000  1.0 0.1295921245
H  H258  1  0.70590000  0.86160000  0.55810000  1.0 0.1387150632
H  H259  1  0.47740000  0.92240000  0.68800000  1.0 0.1202368907
H  H260  1  0.70560000  0.23410000  0.62700000  1.0 0.1202368907
H  H261  1  0.77530000  0.82760000  0.57040000  1.0 0.1039287497
H  H262  1  0.82750000  0.20170000  0.67910000  1.0 0.1089854407
H  H263  1  0.64820000  0.01910000  0.83550000  1.0 0.1089854407
H  H264  1  0.72710000  0.00900000  0.82180000  1.0 0.1089854407
H  H265  1  0.81000000  0.12400000  0.68200000  1.0 0.1387150632
H  H266  1  0.77150000  0.25730000  0.66090000  1.0 0.1089854407
H  H271  1  0.14210000  0.65990000  0.99950000  1.0 0.1387150632
H  H272  1  0.13840000  0.49880000  0.96860000  1.0 0.1295921245
H  H273  1  0.14710000  0.63480000  0.93840000  1.0 0.1089854407
H  H274  1  0.14390000  0.55590000  0.92280000  1.0 0.1039287497
H  H275  1  0.13050000  0.32750000  0.89300000  1.0 0.1295921245
H  H276  1  0.95940000  0.60150000  0.20170000  1.0 0.1202368907
H  H277  1  0.96760000  0.33380000  0.10020000  1.0 0.1089854407
H  H278  1  0.25390000  0.51080000  0.26150000  1.0 0.1295921245
H  H279  1  0.31090000  0.43020000  0.14200000  1.0 0.1295921245
H  H280  1  0.32700000  0.35990000  0.11500000  1.0 0.1089854407
H  H281  1  0.13700000  0.39460000  0.93410000  1.0 0.1202368907
H  H282  1  0.09040000  0.51410000  0.29000000  1.0 0.1295921245
H  H283  1  0.94520000  0.71810000  0.14120000  1.0 0.1089854407
H  H284  1  0.91910000  0.66860000  0.18620000  1.0 0.1202368907
H  H285  1  0.94340000  0.35780000  0.15780000  1.0 0.1202368907
H  H286  1  0.02670000  0.37450000  0.06840000  1.0 0.1295921245
H  H287  1  0.01510000  0.70520000  0.10950000  1.0 0.1295921245
H  H288  1  0.20590000  0.36160000  0.05810000  1.0 0.1387150632
H  H289  1  0.97740000  0.42240000  0.18800000  1.0 0.1202368907
H  H290  1  0.20560000  0.73410000  0.12700000  1.0 0.1202368907
H  H291  1  0.27530000  0.32760000  0.07040000  1.0 0.1039287497
H  H292  1  0.32750000  0.70170000  0.17910000  1.0 0.1089854407
H  H293  1  0.14820000  0.51910000  0.33550000  1.0 0.1089854407
H  H294  1  0.22710000  0.50900000  0.32180000  1.0 0.1089854407
H  H295  1  0.31000000  0.62400000  0.18200000  1.0 0.1387150632
H  H296  1  0.27150000  0.75730000  0.16090000  1.0 0.1089854407
H  H301  1  0.14210000  0.15990000  0.00050000  1.0 0.1387150632
H  H302  1  0.13840000  0.99880000  0.03140000  1.0 0.1295921245
H  H303  1  0.14710000  0.13480000  0.06160000  1.0 0.1089854407
H  H304  1  0.14390000  0.05590000  0.07720000  1.0 0.1039287497
H  H305  1  0.13050000  0.82750000  0.10700000  1.0 0.1295921245
H  H306  1  0.95940000  0.10150000  0.79830000  1.0 0.1202368907
H  H307  1  0.96760000  0.83380000  0.89980000  1.0 0.1089854407
H  H308  1  0.25390000  0.01080000  0.73850000  1.0 0.1295921245
H  H309  1  0.31090000  0.93020000  0.85800000  1.0 0.1295921245
H  H310  1  0.32700000  0.85990000  0.88500000  1.0 0.1089854407
H  H311  1  0.13700000  0.89460000  0.06590000  1.0 0.1202368907
H  H312  1  0.09040000  0.01410000  0.71000000  1.0 0.1295921245
H  H313  1  0.94520000  0.21810000  0.85880000  1.0 0.1089854407
H  H314  1  0.91910000  0.16860000  0.81380000  1.0 0.1202368907
H  H315  1  0.94340000  0.85780000  0.84220000  1.0 0.1202368907
H  H316  1  0.02670000  0.87450000  0.93160000  1.0 0.1295921245
H  H317  1  0.01510000  0.20520000  0.89050000  1.0 0.1295921245
H  H318  1  0.20590000  0.86160000  0.94190000  1.0 0.1387150632
H  H319  1  0.97740000  0.92240000  0.81200000  1.0 0.1202368907
H  H320  1  0.20560000  0.23410000  0.87300000  1.0 0.1202368907
H  H321  1  0.27530000  0.82760000  0.92960000  1.0 0.1039287497
H  H322  1  0.32750000  0.20170000  0.82090000  1.0 0.1089854407
H  H323  1  0.14820000  0.01910000  0.66450000  1.0 0.1089854407
H  H324  1  0.22710000  0.00900000  0.67820000  1.0 0.1089854407
H  H325  1  0.31000000  0.12400000  0.81800000  1.0 0.1387150632
H  H326  1  0.27150000  0.25730000  0.83910000  1.0 0.1089854407
H  H331  1  0.64210000  0.65990000  0.50050000  1.0 0.1387150632
H  H332  1  0.63840000  0.49880000  0.53140000  1.0 0.1295921245
H  H333  1  0.64710000  0.63480000  0.56160000  1.0 0.1089854407
H  H334  1  0.64390000  0.55590000  0.57720000  1.0 0.1039287497
H  H335  1  0.63050000  0.32750000  0.60700000  1.0 0.1295921245
H  H336  1  0.45940000  0.60150000  0.29830000  1.0 0.1202368907
H  H337  1  0.46760000  0.33380000  0.39980000  1.0 0.1089854407
H  H338  1  0.75390000  0.51080000  0.23850000  1.0 0.1295921245
H  H339  1  0.81090000  0.43020000  0.35800000  1.0 0.1295921245
H  H340  1  0.82700000  0.35990000  0.38500000  1.0 0.1089854407
H  H341  1  0.63700000  0.39460000  0.56590000  1.0 0.1202368907
H  H342  1  0.59040000  0.51410000  0.21000000  1.0 0.1295921245
H  H343  1  0.44520000  0.71810000  0.35880000  1.0 0.1089854407
H  H344  1  0.41910000  0.66860000  0.31380000  1.0 0.1202368907
H  H345  1  0.44340000  0.35780000  0.34220000  1.0 0.1202368907
H  H346  1  0.52670000  0.37450000  0.43160000  1.0 0.1295921245
H  H347  1  0.51510000  0.70520000  0.39050000  1.0 0.1295921245
H  H348  1  0.70590000  0.36160000  0.44190000  1.0 0.1387150632
H  H349  1  0.47740000  0.42240000  0.31200000  1.0 0.1202368907
H  H350  1  0.70560000  0.73410000  0.37300000  1.0 0.1202368907
H  H351  1  0.77530000  0.32760000  0.42960000  1.0 0.1039287497
H  H352  1  0.82750000  0.70170000  0.32090000  1.0 0.1089854407
H  H353  1  0.64820000  0.51910000  0.16450000  1.0 0.1089854407
H  H354  1  0.72710000  0.50900000  0.17820000  1.0 0.1089854407
H  H355  1  0.81000000  0.62400000  0.31800000  1.0 0.1387150632
H  H356  1  0.77150000  0.75730000  0.33910000  1.0 0.1089854407
H  H361  1  0.85790000  0.84010000  0.99950000  1.0 0.1387150632
H  H362  1  0.86160000  0.00120000  0.96860000  1.0 0.1295921245
H  H363  1  0.85290000  0.86520000  0.93840000  1.0 0.1089854407
H  H364  1  0.85610000  0.94410000  0.92280000  1.0 0.1039287497
H  H365  1  0.86950000  0.17250000  0.89300000  1.0 0.1295921245
H  H366  1  0.04060000  0.89850000  0.20170000  1.0 0.1202368907
H  H367  1  0.03240000  0.16620000  0.10020000  1.0 0.1089854407
H  H368  1  0.74610000  0.98920000  0.26150000  1.0 0.1295921245
H  H369  1  0.68910000  0.06980000  0.14200000  1.0 0.1295921245
H  H370  1  0.67300000  0.14010000  0.11500000  1.0 0.1089854407
H  H371  1  0.86300000  0.10540000  0.93410000  1.0 0.1202368907
H  H372  1  0.90960000  0.98590000  0.29000000  1.0 0.1295921245
H  H373  1  0.05480000  0.78190000  0.14120000  1.0 0.1089854407
H  H374  1  0.08090000  0.83140000  0.18620000  1.0 0.1202368907
H  H375  1  0.05660000  0.14220000  0.15780000  1.0 0.1202368907
H  H376  1  0.97330000  0.12550000  0.06840000  1.0 0.1295921245
H  H377  1  0.98490000  0.79480000  0.10950000  1.0 0.1295921245
H  H378  1  0.79410000  0.13840000  0.05810000  1.0 0.1387150632
H  H379  1  0.02260000  0.07760000  0.18800000  1.0 0.1202368907
H  H380  1  0.79440000  0.76590000  0.12700000  1.0 0.1202368907
H  H381  1  0.72470000  0.17240000  0.07040000  1.0 0.1039287497
H  H382  1  0.67250000  0.79830000  0.17910000  1.0 0.1089854407
H  H383  1  0.85180000  0.98090000  0.33550000  1.0 0.1089854407
H  H384  1  0.77290000  0.99100000  0.32180000  1.0 0.1089854407
H  H385  1  0.69000000  0.87600000  0.18200000  1.0 0.1387150632
H  H386  1  0.72850000  0.74270000  0.16090000  1.0 0.1089854407
H  H391  1  0.35790000  0.34010000  0.49950000  1.0 0.1387150632
H  H392  1  0.36160000  0.50120000  0.46860000  1.0 0.1295921245
H  H393  1  0.35290000  0.36520000  0.43840000  1.0 0.1089854407
H  H394  1  0.35610000  0.44410000  0.42280000  1.0 0.1039287497
H  H395  1  0.36950000  0.67250000  0.39300000  1.0 0.1295921245
H  H396  1  0.54060000  0.39850000  0.70170000  1.0 0.1202368907
H  H397  1  0.53240000  0.66620000  0.60020000  1.0 0.1089854407
H  H398  1  0.24610000  0.48920000  0.76150000  1.0 0.1295921245
H  H399  1  0.18910000  0.56980000  0.64200000  1.0 0.1295921245
H  H400  1  0.17300000  0.64010000  0.61500000  1.0 0.1089854407
H  H401  1  0.36300000  0.60540000  0.43410000  1.0 0.1202368907
H  H402  1  0.40960000  0.48590000  0.79000000  1.0 0.1295921245
H  H403  1  0.55480000  0.28190000  0.64120000  1.0 0.1089854407
H  H404  1  0.58090000  0.33140000  0.68620000  1.0 0.1202368907
H  H405  1  0.55660000  0.64220000  0.65780000  1.0 0.1202368907
H  H406  1  0.47330000  0.62550000  0.56840000  1.0 0.1295921245
H  H407  1  0.48490000  0.29480000  0.60950000  1.0 0.1295921245
H  H408  1  0.29410000  0.63840000  0.55810000  1.0 0.1387150632
H  H409  1  0.52260000  0.57760000  0.68800000  1.0 0.1202368907
H  H410  1  0.29440000  0.26590000  0.62700000  1.0 0.1202368907
H  H411  1  0.22470000  0.67240000  0.57040000  1.0 0.1039287497
H  H412  1  0.17250000  0.29830000  0.67910000  1.0 0.1089854407
H  H413  1  0.35180000  0.48090000  0.83550000  1.0 0.1089854407
H  H414  1  0.27290000  0.49100000  0.82180000  1.0 0.1089854407
H  H415  1  0.19000000  0.37600000  0.68200000  1.0 0.1387150632
H  H416  1  0.22850000  0.24270000  0.66090000  1.0 0.1089854407
H  H421  1  0.35790000  0.84010000  0.50050000  1.0 0.1387150632
H  H422  1  0.36160000  0.00120000  0.53140000  1.0 0.1295921245
H  H423  1  0.35290000  0.86520000  0.56160000  1.0 0.1089854407
H  H424  1  0.35610000  0.94410000  0.57720000  1.0 0.1089854407
H  H425  1  0.36950000  0.17250000  0.60700000  1.0 0.1295921245
H  H426  1  0.54060000  0.89850000  0.29830000  1.0 0.1202368907
H  H427  1  0.53240000  0.16620000  0.39980000  1.0 0.1089854407
H  H428  1  0.24610000  0.98920000  0.23850000  1.0 0.1295921245
H  H429  1  0.18910000  0.06980000  0.35800000  1.0 0.1295921245
H  H430  1  0.17300000  0.14010000  0.38500000  1.0 0.1089854407
H  H431  1  0.36300000  0.10540000  0.56590000  1.0 0.1202368907
H  H432  1  0.40960000  0.98590000  0.21000000  1.0 0.1295921245
H  H433  1  0.55480000  0.78190000  0.35880000  1.0 0.1089854407
H  H434  1  0.58090000  0.83140000  0.31380000  1.0 0.1202368907
H  H435  1  0.55660000  0.14220000  0.34220000  1.0 0.1202368907
H  H436  1  0.47330000  0.12550000  0.43160000  1.0 0.1295921245
H  H437  1  0.48490000  0.79480000  0.39050000  1.0 0.1295921245
H  H438  1  0.29410000  0.13840000  0.44190000  1.0 0.1387150632
H  H439  1  0.52260000  0.07760000  0.31200000  1.0 0.1202368907
H  H440  1  0.29440000  0.76590000  0.37300000  1.0 0.1202368907
H  H441  1  0.22470000  0.17240000  0.42960000  1.0 0.1039287497
H  H442  1  0.17250000  0.79830000  0.32090000  1.0 0.1089854407
H  H443  1  0.35180000  0.98090000  0.16450000  1.0 0.1089854407
H  H444  1  0.27290000  0.99100000  0.17820000  1.0 0.1089854407
H  H445  1  0.19000000  0.87600000  0.31800000  1.0 0.1387150632
H  H446  1  0.22850000  0.74270000  0.33910000  1.0 0.1089854407
H  H451  1  0.85790000  0.34010000  0.00050000  1.0 0.1387150632
H  H452  1  0.86160000  0.50120000  0.03140000  1.0 0.1295921245
H  H453  1  0.85290000  0.36520000  0.06160000  1.0 0.1089854407
H  H454  1  0.85610000  0.44410000  0.07720000  1.0 0.1039287497
H  H455  1  0.86950000  0.67250000  0.10700000  1.0 0.1295921245
H  H456  1  0.04060000  0.39850000  0.79830000  1.0 0.1202368907
H  H457  1  0.03240000  0.66620000  0.89980000  1.0 0.1089854407
H  H458  1  0.74610000  0.48920000  0.73850000  1.0 0.1295921245
H  H459  1  0.68910000  0.56980000  0.85800000  1.0 0.1295921245
H  H460  1  0.67300000  0.64010000  0.88500000  1.0 0.1089854407
H  H461  1  0.86300000  0.60540000  0.06590000  1.0 0.1202368907
H  H462  1  0.90960000  0.48590000  0.71000000  1.0 0.1295921245
H  H463  1  0.05480000  0.28190000  0.85880000  1.0 0.1089854407
H  H464  1  0.08090000  0.33140000  0.81380000  1.0 0.1202368907
H  H465  1  0.05660000  0.64220000  0.84220000  1.0 0.1202368907
H  H466  1  0.97330000  0.62550000  0.93160000  1.0 0.1295921245
H  H467  1  0.98490000  0.29480000  0.89050000  1.0 0.1295921245
H  H468  1  0.79410000  0.63840000  0.94190000  1.0 0.1387150632
H  H469  1  0.02260000  0.57760000  0.81200000  1.0 0.1202368907
H  H470  1  0.79440000  0.26590000  0.87300000  1.0 0.1202368907
H  H471  1  0.72470000  0.67240000  0.92960000  1.0 0.1039287497
H  H472  1  0.67250000  0.29830000  0.82090000  1.0 0.1089854407
H  H473  1  0.85180000  0.48090000  0.66450000  1.0 0.1089854407
H  H474  1  0.77290000  0.49100000  0.67820000  1.0 0.1089854407
H  H475  1  0.69000000  0.37600000  0.81800000  1.0 0.1387150632
H  H476  1  0.72850000  0.24270000  0.83910000  1.0 0.1089854407
H  H27  1  0.69560000  0.16990000  0.88970000  0.34 0.1295921245
H  H28  1  0.68630000  0.23500000  0.92790000  0.34 0.1295921245
H  H57  1  0.19560000  0.66990000  0.38970000  0.34 0.1295921245
H  H58  1  0.18630000  0.73500000  0.42790000  0.34 0.1295921245
H  H87  1  0.19560000  0.16990000  0.61030000  0.34 0.1295921245
H  H88  1  0.18630000  0.23500000  0.57210000  0.34 0.1295921245
H  H117  1  0.69560000  0.66990000  0.11030000  0.34 0.1295921245
H  H118  1  0.68630000  0.73500000  0.07210000  0.34 0.1295921245
H  H147  1  0.80440000  0.83010000  0.38970000  0.34 0.1295921245
H  H148  1  0.81370000  0.76500000  0.42790000  0.34 0.1295921245
H  H177  1  0.30440000  0.33010000  0.88970000  0.34 0.1295921245
H  H178  1  0.31370000  0.26500000  0.92790000  0.34 0.1295921245
H  H207  1  0.30440000  0.83010000  0.11030000  0.34 0.1295921245
H  H208  1  0.31370000  0.76500000  0.07210000  0.34 0.1295921245
H  H237  1  0.80440000  0.33010000  0.61030000  0.34 0.1295921245
H  H238  1  0.81370000  0.26500000  0.57210000  0.34 0.1295921245
H  H267  1  0.91990000  0.05440000  0.63970000  0.34 0.1295921245
H  H268  1  0.98500000  0.06370000  0.67790000  0.34 0.1295921245
H  H297  1  0.41990000  0.55440000  0.13970000  0.34 0.1295921245
H  H298  1  0.48500000  0.56370000  0.17790000  0.34 0.1295921245
H  H327  1  0.41990000  0.05440000  0.86030000  0.34 0.1295921245
H  H328  1  0.48500000  0.06370000  0.82210000  0.34 0.1295921245
H  H357  1  0.91990000  0.55440000  0.36030000  0.34 0.1295921245
H  H358  1  0.98500000  0.56370000  0.32210000  0.34 0.1295921245
H  H387  1  0.58010000  0.94560000  0.13970000  0.34 0.1295921245
H  H388  1  0.51500000  0.93630000  0.17790000  0.34 0.1295921245
H  H417  1  0.08010000  0.44560000  0.63970000  0.34 0.1295921245
H  H418  1  0.01500000  0.43630000  0.67790000  0.34 0.1295921245
H  H447  1  0.08010000  0.94560000  0.36030000  0.34 0.1295921245
H  H448  1  0.01500000  0.93630000  0.32210000  0.34 0.1295921245
H  H477  1  0.58010000  0.44560000  0.86030000  0.34 0.1295921245
H  H478  1  0.51500000  0.43630000  0.82210000  0.34 0.1295921245
H  H29  1  0.75060000  0.17150000  0.88790000  0.66 0.1202368907
H  H30  1  0.77350000  0.23880000  0.92260000  0.66 0.1089854407
H  H59  1  0.25060000  0.67150000  0.38790000  0.66 0.1202368907
H  H60  1  0.27350000  0.73880000  0.42260000  0.66 0.1039287497
H  H89  1  0.25060000  0.17150000  0.61210000  0.66 0.1202368907
H  H90  1  0.27350000  0.23880000  0.57740000  0.66 0.1039287497
H  H119  1  0.75060000  0.67150000  0.11210000  0.66 0.1202368907
H  H120  1  0.77350000  0.73880000  0.07740000  0.66 0.1039287497
H  H149  1  0.74940000  0.82850000  0.38790000  0.66 0.1202368907
H  H150  1  0.72650000  0.76120000  0.42260000  0.66 0.1039287497
H  H179  1  0.24940000  0.32850000  0.88790000  0.66 0.1202368907
H  H180  1  0.22650000  0.26120000  0.92260000  0.66 0.1089854407
H  H209  1  0.24940000  0.82850000  0.11210000  0.66 0.1202368907
H  H210  1  0.22650000  0.76120000  0.07740000  0.66 0.1039287497
H  H239  1  0.74940000  0.32850000  0.61210000  0.66 0.1202368907
H  H240  1  0.72650000  0.26120000  0.57740000  0.66 0.1039287497
H  H269  1  0.92150000  0.99940000  0.63790000  0.66 0.1202368907
H  H270  1  0.98880000  0.97650000  0.67260000  0.66 0.1089854407
H  H299  1  0.42150000  0.49940000  0.13790000  0.66 0.1202368907
H  H300  1  0.48880000  0.47650000  0.17260000  0.66 0.1039287497
H  H329  1  0.42150000  0.99940000  0.86210000  0.66 0.1202368907
H  H330  1  0.48880000  0.97650000  0.82740000  0.66 0.1039287497
H  H359  1  0.92150000  0.49940000  0.36210000  0.66 0.1202368907
H  H360  1  0.98880000  0.47650000  0.32740000  0.66 0.1089854407
H  H389  1  0.57850000  0.00060000  0.13790000  0.66 0.1202368907
H  H390  1  0.51120000  0.02350000  0.17260000  0.66 0.1039287497
H  H419  1  0.07850000  0.50060000  0.63790000  0.66 0.1202368907
H  H420  1  0.01120000  0.52350000  0.67260000  0.66 0.1089854407
H  H449  1  0.07850000  0.00060000  0.36210000  0.66 0.1202368907
H  H450  1  0.01120000  0.02350000  0.32740000  0.66 0.1089854407
H  H479  1  0.57850000  0.50060000  0.86210000  0.66 0.1202368907
H  H480  1  0.51120000  0.52350000  0.82740000  0.66 0.1039287497
C  C1  1  0.01340000  0.86827000  0.67124000  1.0 0.5490934857
C  C2  1  0.62180000  0.89047000  0.74340000  1.0 -0.158514393
C  C3  1  0.71937000  0.88795000  0.72461000  1.0 -0.1750477965
C  C4  1  0.82918000  0.78880000  0.86073000  1.0 0.1295921245
C  C5  1  0.63734000  0.89373000  0.70717000  1.0 -0.1018392379
C  C6  1  0.73761000  0.93627000  0.98884000  1.0 0.1295921245
C  C7  1  0.86579000  0.87535000  0.76085000  1.0 0.538877488
C  C8  1  0.89780000  0.87662000  0.72887000  1.0 -0.1407698515
C  C9  1  0.65692000  0.88446000  0.77063000  1.0 0.1295921245
C  C10  1  0.68529000  0.89211000  0.69761000  1.0 -0.1018392379
C  C11  1  0.81170000  0.99716000  0.86617000  1.0 0.1202368907
C  C12  1  0.92461000  0.87853000  0.66864000  1.0 -0.1322081174
C  C13  1  0.70443000  0.88314000  0.76090000  1.0 0.1202368907
C  C14  1  0.63755000  0.76358000  0.91533000  1.0 0.1387150632
C  C15  1  0.62824000  0.72095000  0.93365000  1.0 -0.1707864814
C  C16  1  0.73460000  0.88999000  0.99764000  1.0 0.1089854407
C  C17  1  0.89033000  0.73197000  0.86111000  1.0 -0.1018392379
C  C18  1  0.73854000  0.97203000  0.01704000  1.0 -0.158514393
C  C19  1  0.83210000  0.96568000  0.84070000  1.0 0.1202368907
C  C20  1  0.60525000  0.77963000  0.88718000  1.0 0.1295921245
C  C21  1  0.81569000  0.77425000  0.89609000  1.0 0.1202368907
C  C22  1  0.83340000  0.04008000  0.87537000  1.0 -0.1535722697
C  C23  1  0.87430000  0.04944000  0.85911000  1.0 -0.0890457364
C  C24  1  0.88592000  0.88182000  0.69230000  1.0 -0.1322081174
C  C25  1  0.61795000  0.99708000  0.90560000  1.0 0.1089854407
C  C26  1  0.73512000  0.87228000  0.03437000  1.0 -0.158514393
C  C27  1  0.55827000  0.71314000  0.89687000  1.0 -0.0890457364
C  C28  1  0.58844000  0.69706000  0.92408000  1.0 -0.1084743403
C  C29  1  0.96506000  0.87216000  0.68699000  1.0 -0.1084743403
C  C30  1  0.87579000  0.71749000  0.89623000  1.0 -0.0890457364
C  C31  1  0.86672000  0.76759000  0.84211000  1.0 -0.1707864814
C  C32  1  0.56549000  0.75467000  0.87765000  1.0 -0.1707864814
C  C33  1  0.58697000  0.96526000  0.88941000  1.0 0.1387150632
C  C34  1  0.87426000  0.97674000  0.82447000  1.0 -0.1407698515
C  C35  1  0.83752000  0.73770000  0.91488000  1.0 -0.158514393
C  C36  1  0.53744000  0.97500000  0.88880000  1.0 -0.1707864814
C  C37  1  0.89451000  0.01720000  0.83232000  1.0 -0.1018392379
C  C38  1  0.55870000  0.04840000  0.92060000  1.0 -0.1156335297
C  C39  1  0.73430000  0.90700000  0.06086000  1.0 -0.1018392379
C  C40  1  0.73840000  0.95570000  0.05238000  1.0 -0.0890457364
C  C41  1  0.60445000  0.03942000  0.92148000  1.0 -0.1535722697
C  C42  1  0.52450000  0.01540000  0.90720000  1.0 -0.1018392379
C  C43  1  0.72835000  0.08613000  0.92263000  1.0 0.5242255487
C  C44  1  0.73110000  0.13399000  0.93352000  1.0 -0.1018392379
C  C45  1  0.74210000  0.24310000  0.99980000  1.0 0.406899887
C  C52  1  0.51340000  0.36827000  0.17124000  1.0 0.5490934857
C  C53  1  0.12180000  0.39047000  0.24340000  1.0 -0.158514393
C  C54  1  0.21937000  0.38795000  0.22461000  1.0 -0.1750477965
C  C55  1  0.32918000  0.28880000  0.36073000  1.0 0.1295921245
C  C56  1  0.13734000  0.39373000  0.20717000  1.0 -0.1018392379
C  C57  1  0.23761000  0.43627000  0.48884000  1.0 0.1295921245
C  C58  1  0.36579000  0.37535000  0.26085000  1.0 0.538877488
C  C59  1  0.39780000  0.37662000  0.22887000  1.0 -0.1407698515
C  C60  1  0.15692000  0.38446000  0.27063000  1.0 0.1295921245
C  C61  1  0.18529000  0.39211000  0.19761000  1.0 -0.1018392379
C  C62  1  0.31170000  0.49716000  0.36617000  1.0 0.1202368907
C  C63  1  0.42461000  0.37853000  0.16864000  1.0 -0.1322081174
C  C64  1  0.20443000  0.38314000  0.26090000  1.0 0.1202368907
C  C65  1  0.13755000  0.26358000  0.41533000  1.0 0.1387150632
C  C66  1  0.12824000  0.22095000  0.43365000  1.0 -0.1707864814
C  C67  1  0.23460000  0.38999000  0.49764000  1.0 0.1089854407
C  C68  1  0.39033000  0.23197000  0.36111000  1.0 -0.1018392379
C  C69  1  0.23854000  0.47203000  0.51704000  1.0 -0.158514393
C  C70  1  0.33210000  0.46568000  0.34070000  1.0 0.1202368907
C  C71  1  0.10525000  0.27963000  0.38718000  1.0 0.1295921245
C  C72  1  0.31569000  0.27425000  0.39609000  1.0 0.1202368907
C  C73  1  0.33340000  0.54008000  0.37537000  1.0 -0.1535722697
C  C74  1  0.37430000  0.54944000  0.35911000  1.0 -0.0890457364
C  C75  1  0.38592000  0.38182000  0.19230000  1.0 -0.1322081174
C  C76  1  0.11795000  0.49708000  0.40560000  1.0 0.1089854407
C  C77  1  0.23512000  0.37228000  0.53437000  1.0 -0.158514393
C  C78  1  0.05827000  0.21314000  0.39687000  1.0 -0.0890457364
C  C79  1  0.08844000  0.19706000  0.42408000  1.0 -0.1084743403
C  C80  1  0.46506000  0.37216000  0.18699000  1.0 -0.1084743403
C  C81  1  0.37579000  0.21749000  0.39623000  1.0 -0.0890457364
C  C82  1  0.36672000  0.26759000  0.34211000  1.0 -0.1707864814
C  C83  1  0.06549000  0.25467000  0.37765000  1.0 -0.1707864814
C  C84  1  0.08697000  0.46526000  0.38941000  1.0 0.1387150632
C  C85  1  0.37426000  0.47674000  0.32447000  1.0 -0.1407698515
C  C86  1  0.33752000  0.23770000  0.41488000  1.0 -0.158514393
C  C87  1  0.03744000  0.47500000  0.38880000  1.0 -0.1707864814
C  C88  1  0.39451000  0.51720000  0.33232000  1.0 -0.1018392379
C  C89  1  0.05870000  0.54840000  0.42060000  1.0 -0.1156335297
C  C90  1  0.23430000  0.40700000  0.56086000  1.0 -0.1018392379
C  C91  1  0.23840000  0.45570000  0.55238000  1.0 -0.0890457364
C  C92  1  0.10445000  0.53942000  0.42148000  1.0 -0.1535722697
C  C93  1  0.02450000  0.51540000  0.40720000  1.0 -0.1018392379
C  C94  1  0.22835000  0.58613000  0.42263000  1.0 0.5242255487
C  C95  1  0.23110000  0.63399000  0.43352000  1.0 -0.1018392379
C  C96  1  0.24210000  0.74310000  0.49980000  1.0 0.406899887
C  C103  1  0.51340000  0.86827000  0.82876000  1.0 0.5490934857
C  C104  1  0.12180000  0.89047000  0.75660000  1.0 -0.158514393
C  C105  1  0.21937000  0.88795000  0.77539000  1.0 -0.1750477965
C  C106  1  0.32918000  0.78880000  0.63927000  1.0 0.1295921245
C  C107  1  0.13734000  0.89373000  0.79283000  1.0 -0.1018392379
C  C108  1  0.23761000  0.93627000  0.51116000  1.0 0.1295921245
C  C109  1  0.36579000  0.87535000  0.73915000  1.0 0.538877488
C  C110  1  0.39780000  0.87662000  0.77113000  1.0 -0.1407698515
C  C111  1  0.15692000  0.88446000  0.72937000  1.0 0.1295921245
C  C112  1  0.18529000  0.89211000  0.80239000  1.0 -0.1018392379
C  C113  1  0.31170000  0.99716000  0.63383000  1.0 0.1202368907
C  C114  1  0.42461000  0.87853000  0.83136000  1.0 -0.1322081174
C  C115  1  0.20443000  0.88314000  0.73910000  1.0 0.1202368907
C  C116  1  0.13755000  0.76358000  0.58467000  1.0 0.1387150632
C  C117  1  0.12824000  0.72095000  0.56635000  1.0 -0.1707864814
C  C118  1  0.23460000  0.88999000  0.50236000  1.0 0.1089854407
C  C119  1  0.39033000  0.73197000  0.63889000  1.0 -0.1018392379
C  C120  1  0.23854000  0.97203000  0.48296000  1.0 -0.158514393
C  C121  1  0.33210000  0.96568000  0.65930000  1.0 0.1202368907
C  C122  1  0.10525000  0.77963000  0.61282000  1.0 0.1295921245
C  C123  1  0.31569000  0.77425000  0.60391000  1.0 0.1202368907
C  C124  1  0.33340000  0.04008000  0.62463000  1.0 -0.1535722697
C  C125  1  0.37430000  0.04944000  0.64089000  1.0 -0.0890457364
C  C126  1  0.38592000  0.88182000  0.80770000  1.0 -0.1322081174
C  C127  1  0.11795000  0.99708000  0.59440000  1.0 0.1089854407
C  C128  1  0.23512000  0.87228000  0.46563000  1.0 -0.158514393
C  C129  1  0.05827000  0.71314000  0.60313000  1.0 -0.0890457364
C  C130  1  0.08844000  0.69706000  0.57592000  1.0 -0.1084743403
C  C131  1  0.46506000  0.87216000  0.81301000  1.0 -0.1084743403
C  C132  1  0.37579000  0.71749000  0.60377000  1.0 -0.0890457364
C  C133  1  0.36672000  0.76759000  0.65789000  1.0 -0.1707864814
C  C134  1  0.06549000  0.75467000  0.62235000  1.0 -0.1707864814
C  C135  1  0.08697000  0.96526000  0.61059000  1.0 0.1387150632
C  C136  1  0.37426000  0.97674000  0.67553000  1.0 -0.1407698515
C  C137  1  0.33752000  0.73770000  0.58512000  1.0 -0.158514393
C  C138  1  0.03744000  0.97500000  0.61120000  1.0 -0.1707864814
C  C139  1  0.39451000  0.01720000  0.66768000  1.0 -0.1018392379
C  C140  1  0.05870000  0.04840000  0.57940000  1.0 -0.1156335297
C  C141  1  0.23430000  0.90700000  0.43914000  1.0 -0.1018392379
C  C142  1  0.23840000  0.95570000  0.44762000  1.0 -0.0890457364
C  C143  1  0.10445000  0.03942000  0.57852000  1.0 -0.1535722697
C  C144  1  0.02450000  0.01540000  0.59280000  1.0 -0.1018392379
C  C145  1  0.22835000  0.08613000  0.57737000  1.0 0.5242255487
C  C146  1  0.23110000  0.13399000  0.56648000  1.0 -0.1018392379
C  C147  1  0.24210000  0.24310000  0.50020000  1.0 0.406899887
C  C154  1  0.01340000  0.36827000  0.32876000  1.0 0.5490934857
C  C155  1  0.62180000  0.39047000  0.25660000  1.0 -0.158514393
C  C156  1  0.71937000  0.38795000  0.27539000  1.0 -0.1750477965
C  C157  1  0.82918000  0.28880000  0.13927000  1.0 0.1295921245
C  C158  1  0.63734000  0.39373000  0.29283000  1.0 -0.1018392379
C  C159  1  0.73761000  0.43627000  0.01116000  1.0 0.1295921245
C  C160  1  0.86579000  0.37535000  0.23915000  1.0 0.538877488
C  C161  1  0.89780000  0.37662000  0.27113000  1.0 -0.1407698515
C  C162  1  0.65692000  0.38446000  0.22937000  1.0 0.1295921245
C  C163  1  0.68529000  0.39211000  0.30239000  1.0 -0.1018392379
C  C164  1  0.81170000  0.49716000  0.13383000  1.0 0.1202368907
C  C165  1  0.92461000  0.37853000  0.33136000  1.0 -0.1322081174
C  C166  1  0.70443000  0.38314000  0.23910000  1.0 0.1202368907
C  C167  1  0.63755000  0.26358000  0.08467000  1.0 0.1387150632
C  C168  1  0.62824000  0.22095000  0.06635000  1.0 -0.1707864814
C  C169  1  0.73460000  0.38999000  0.00236000  1.0 0.1089854407
C  C170  1  0.89033000  0.23197000  0.13889000  1.0 -0.1018392379
C  C171  1  0.73854000  0.47203000  0.98296000  1.0 -0.158514393
C  C172  1  0.83210000  0.46568000  0.15930000  1.0 0.1202368907
C  C173  1  0.60525000  0.27963000  0.11282000  1.0 0.1295921245
C  C174  1  0.81569000  0.27425000  0.10391000  1.0 0.1202368907
C  C175  1  0.83340000  0.54008000  0.12463000  1.0 -0.1535722697
C  C176  1  0.87430000  0.54944000  0.14089000  1.0 -0.0890457364
C  C177  1  0.88592000  0.38182000  0.30770000  1.0 -0.1322081174
C  C178  1  0.61795000  0.49708000  0.09440000  1.0 0.1089854407
C  C179  1  0.73512000  0.37228000  0.96563000  1.0 -0.158514393
C  C180  1  0.55827000  0.21314000  0.10313000  1.0 -0.0890457364
C  C181  1  0.58844000  0.19706000  0.07592000  1.0 -0.1084743403
C  C182  1  0.96506000  0.37216000  0.31301000  1.0 -0.1084743403
C  C183  1  0.87579000  0.21749000  0.10377000  1.0 -0.0890457364
C  C184  1  0.86672000  0.26759000  0.15789000  1.0 -0.1707864814
C  C185  1  0.56549000  0.25467000  0.12235000  1.0 -0.1707864814
C  C186  1  0.58697000  0.46526000  0.11059000  1.0 0.1387150632
C  C187  1  0.87426000  0.47674000  0.17553000  1.0 -0.1407698515
C  C188  1  0.83752000  0.23770000  0.08512000  1.0 -0.158514393
C  C189  1  0.53744000  0.47500000  0.11120000  1.0 -0.1707864814
C  C190  1  0.89451000  0.51720000  0.16768000  1.0 -0.1018392379
C  C191  1  0.55870000  0.54840000  0.07940000  1.0 -0.1156335297
C  C192  1  0.73430000  0.40700000  0.93914000  1.0 -0.1018392379
C  C193  1  0.73840000  0.45570000  0.94762000  1.0 -0.0890457364
C  C194  1  0.60445000  0.53942000  0.07852000  1.0 -0.1535722697
C  C195  1  0.52450000  0.51540000  0.09280000  1.0 -0.1018392379
C  C196  1  0.72835000  0.58613000  0.07737000  1.0 0.5242255487
C  C197  1  0.73110000  0.63399000  0.06648000  1.0 -0.1018392379
C  C198  1  0.74210000  0.74310000  0.00020000  1.0 0.406899887
C  C205  1  0.48660000  0.13173000  0.17124000  1.0 0.5490934857
C  C206  1  0.87820000  0.10953000  0.24340000  1.0 -0.158514393
C  C207  1  0.78063000  0.11205000  0.22461000  1.0 -0.1750477965
C  C208  1  0.67082000  0.21120000  0.36073000  1.0 0.1295921245
C  C209  1  0.86266000  0.10627000  0.20717000  1.0 -0.1018392379
C  C210  1  0.76239000  0.06373000  0.48884000  1.0 0.1295921245
C  C211  1  0.63421000  0.12465000  0.26085000  1.0 0.538877488
C  C212  1  0.60220000  0.12338000  0.22887000  1.0 -0.1407698515
C  C213  1  0.84308000  0.11554000  0.27063000  1.0 0.1295921245
C  C214  1  0.81471000  0.10789000  0.19761000  1.0 -0.1018392379
C  C215  1  0.68830000  0.00284000  0.36617000  1.0 0.1202368907
C  C216  1  0.57539000  0.12147000  0.16864000  1.0 -0.1322081174
C  C217  1  0.79557000  0.11686000  0.26090000  1.0 0.1202368907
C  C218  1  0.86245000  0.23642000  0.41533000  1.0 0.1387150632
C  C219  1  0.87176000  0.27905000  0.43365000  1.0 -0.1707864814
C  C220  1  0.76540000  0.11001000  0.49764000  1.0 0.1089854407
C  C221  1  0.60967000  0.26803000  0.36111000  1.0 -0.1018392379
C  C222  1  0.76146000  0.02797000  0.51704000  1.0 -0.158514393
C  C223  1  0.66790000  0.03432000  0.34070000  1.0 0.1202368907
C  C224  1  0.89475000  0.22037000  0.38718000  1.0 0.1295921245
C  C225  1  0.68431000  0.22575000  0.39609000  1.0 0.1202368907
C  C226  1  0.66666667  0.95992000  0.37537000  1.0 -0.158514393
C  C227  1  0.62570000  0.95056000  0.35911000  1.0 -0.0890457364
C  C228  1  0.61408000  0.11818000  0.19230000  1.0 -0.1322081174
C  C229  1  0.88205000  0.00292000  0.40560000  1.0 0.1089854407
C  C230  1  0.76488000  0.12772000  0.53437000  1.0 -0.158514393
C  C231  1  0.94173000  0.28686000  0.39687000  1.0 -0.0890457364
C  C232  1  0.91156000  0.30294000  0.42408000  1.0 -0.1084743403
C  C233  1  0.53494000  0.12784000  0.18699000  1.0 -0.1084743403
C  C234  1  0.62421000  0.28251000  0.39623000  1.0 -0.0890457364
C  C235  1  0.63328000  0.23241000  0.34211000  1.0 -0.1707864814
C  C236  1  0.93451000  0.24533000  0.37765000  1.0 -0.1707864814
C  C237  1  0.91303000  0.03474000  0.38941000  1.0 0.1387150632
C  C238  1  0.62574000  0.02326000  0.32447000  1.0 -0.1407698515
C  C239  1  0.66248000  0.26230000  0.41488000  1.0 -0.158514393
C  C240  1  0.96256000  0.02500000  0.38880000  1.0 -0.1707864814
C  C241  1  0.60549000  0.98280000  0.33232000  1.0 -0.1018392379
C  C242  1  0.94130000  0.95160000  0.42060000  1.0 -0.1156335297
C  C243  1  0.76570000  0.09300000  0.56086000  1.0 -0.1018392379
C  C244  1  0.76160000  0.04430000  0.55238000  1.0 -0.0890457364
C  C245  1  0.89555000  0.96058000  0.42148000  1.0 -0.1535722697
C  C246  1  0.97550000  0.98460000  0.40720000  1.0 -0.1018392379
C  C247  1  0.77165000  0.91387000  0.42263000  1.0 0.5242255487
C  C248  1  0.76890000  0.86601000  0.43352000  1.0 -0.1018392379
C  C249  1  0.75790000  0.75690000  0.49980000  1.0 0.406899887
C  C256  1  0.98660000  0.63173000  0.67124000  1.0 0.5490934857
C  C257  1  0.37820000  0.60953000  0.74340000  1.0 -0.158514393
C  C258  1  0.28063000  0.61205000  0.72461000  1.0 -0.1750477965
C  C259  1  0.17082000  0.71120000  0.86073000  1.0 0.1295921245
C  C260  1  0.36266000  0.60627000  0.70717000  1.0 -0.1018392379
C  C261  1  0.26239000  0.56373000  0.98884000  1.0 0.1295921245
C  C262  1  0.13421000  0.62465000  0.76085000  1.0 0.538877488
C  C263  1  0.10220000  0.62338000  0.72887000  1.0 -0.1407698515
C  C264  1  0.34308000  0.61554000  0.77063000  1.0 0.1295921245
C  C265  1  0.31471000  0.60789000  0.69761000  1.0 -0.1018392379
C  C266  1  0.18830000  0.50284000  0.86617000  1.0 0.1202368907
C  C267  1  0.07539000  0.62147000  0.66864000  1.0 -0.1322081174
C  C268  1  0.29557000  0.61686000  0.76090000  1.0 0.1202368907
C  C269  1  0.36245000  0.73642000  0.91533000  1.0 0.1387150632
C  C270  1  0.37176000  0.77905000  0.93365000  1.0 -0.1707864814
C  C271  1  0.26540000  0.61001000  0.99764000  1.0 0.1089854407
C  C272  1  0.10967000  0.76803000  0.86111000  1.0 -0.1084743403
C  C273  1  0.26146000  0.52797000  0.01704000  1.0 -0.158514393
C  C274  1  0.16790000  0.53432000  0.84070000  1.0 0.1202368907
C  C275  1  0.39475000  0.72037000  0.88718000  1.0 0.1295921245
C  C276  1  0.18431000  0.72575000  0.89609000  1.0 0.1202368907
C  C277  1  0.16660000  0.45992000  0.87537000  1.0 -0.1535722697
C  C278  1  0.12570000  0.45056000  0.85911000  1.0 -0.0890457364
C  C279  1  0.11408000  0.61818000  0.69230000  1.0 -0.1322081174
C  C280  1  0.38205000  0.50292000  0.90560000  1.0 0.1089854407
C  C281  1  0.26488000  0.62772000  0.03437000  1.0 -0.158514393
C  C282  1  0.44173000  0.78686000  0.89687000  1.0 -0.0890457364
C  C283  1  0.41156000  0.80294000  0.92408000  1.0 -0.1084743403
C  C284  1  0.03494000  0.62784000  0.68699000  1.0 -0.1084743403
C  C285  1  0.12421000  0.78251000  0.89623000  1.0 -0.0890457364
C  C286  1  0.13328000  0.73241000  0.84211000  1.0 -0.1707864814
C  C287  1  0.43451000  0.74533000  0.87765000  1.0 -0.1707864814
C  C288  1  0.41303000  0.53474000  0.88941000  1.0 0.1387150632
C  C289  1  0.12574000  0.52326000  0.82447000  1.0 -0.1407698515
C  C290  1  0.16248000  0.76230000  0.91488000  1.0 -0.158514393
C  C291  1  0.46256000  0.52500000  0.88880000  1.0 -0.1707864814
C  C292  1  0.10549000  0.48280000  0.83232000  1.0 -0.1018392379
C  C293  1  0.44130000  0.45160000  0.92060000  1.0 -0.1156335297
C  C294  1  0.26570000  0.59300000  0.06086000  1.0 -0.1018392379
C  C295  1  0.26160000  0.54430000  0.05238000  1.0 -0.0890457364
C  C296  1  0.39555000  0.46058000  0.92148000  1.0 -0.1535722697
C  C297  1  0.47550000  0.48460000  0.90720000  1.0 -0.1018392379
C  C298  1  0.27165000  0.41387000  0.92263000  1.0 0.5242255487
C  C299  1  0.26890000  0.36601000  0.93352000  1.0 -0.1018392379
C  C300  1  0.25790000  0.25690000  0.99980000  1.0 0.406899887
C  C307  1  0.98660000  0.13173000  0.32876000  1.0 0.5490934857
C  C308  1  0.37820000  0.10953000  0.25660000  1.0 -0.158514393
C  C309  1  0.28063000  0.11205000  0.27539000  1.0 -0.1750477965
C  C310  1  0.17082000  0.21120000  0.13927000  1.0 0.1295921245
C  C311  1  0.36266000  0.10627000  0.29283000  1.0 -0.1018392379
C  C312  1  0.26239000  0.06373000  0.01116000  1.0 0.1295921245
C  C313  1  0.13421000  0.12465000  0.23915000  1.0 0.538877488
C  C314  1  0.10220000  0.12338000  0.27113000  1.0 -0.1407698515
C  C315  1  0.34308000  0.11554000  0.22937000  1.0 0.1295921245
C  C316  1  0.31471000  0.10789000  0.30239000  1.0 -0.1018392379
C  C317  1  0.18830000  0.00284000  0.13383000  1.0 0.1202368907
C  C318  1  0.07539000  0.12147000  0.33136000  1.0 -0.1322081174
C  C319  1  0.29557000  0.11686000  0.23910000  1.0 0.1202368907
C  C320  1  0.36245000  0.23642000  0.08467000  1.0 0.1387150632
C  C321  1  0.37176000  0.27905000  0.06635000  1.0 -0.1707864814
C  C322  1  0.26540000  0.11001000  0.00236000  1.0 0.1089854407
C  C323  1  0.10967000  0.26803000  0.13889000  1.0 -0.1018392379
C  C324  1  0.26146000  0.02797000  0.98296000  1.0 -0.158514393
C  C325  1  0.16790000  0.03432000  0.15930000  1.0 0.1202368907
C  C326  1  0.39475000  0.22037000  0.11282000  1.0 0.1295921245
C  C327  1  0.18431000  0.22575000  0.10391000  1.0 0.1202368907
C  C328  1  0.16660000  0.95992000  0.12463000  1.0 -0.1535722697
C  C329  1  0.12570000  0.95056000  0.14089000  1.0 -0.0890457364
C  C330  1  0.11408000  0.11818000  0.30770000  1.0 -0.1322081174
C  C331  1  0.38205000  0.00292000  0.09440000  1.0 0.1089854407
C  C332  1  0.26488000  0.12772000  0.96563000  1.0 -0.158514393
C  C333  1  0.44173000  0.28686000  0.10313000  1.0 -0.0890457364
C  C334  1  0.41156000  0.30294000  0.07592000  1.0 -0.1084743403
C  C335  1  0.03494000  0.12784000  0.31301000  1.0 -0.1084743403
C  C336  1  0.12421000  0.28251000  0.10377000  1.0 -0.0890457364
C  C337  1  0.13328000  0.23241000  0.15789000  1.0 -0.1707864814
C  C338  1  0.43451000  0.24533000  0.12235000  1.0 -0.1707864814
C  C339  1  0.41303000  0.03474000  0.11059000  1.0 0.1387150632
C  C340  1  0.12574000  0.02326000  0.17553000  1.0 -0.1407698515
C  C341  1  0.16248000  0.26230000  0.08512000  1.0 -0.158514393
C  C342  1  0.46256000  0.02500000  0.11120000  1.0 -0.1707864814
C  C343  1  0.10549000  0.98280000  0.16768000  1.0 -0.1018392379
C  C344  1  0.44130000  0.95160000  0.07940000  1.0 -0.1156335297
C  C345  1  0.26570000  0.09300000  0.93914000  1.0 -0.1018392379
C  C346  1  0.26160000  0.04430000  0.94762000  1.0 -0.0890457364
C  C347  1  0.39555000  0.96058000  0.07852000  1.0 -0.1535722697
C  C348  1  0.47550000  0.98460000  0.09280000  1.0 -0.1018392379
C  C349  1  0.27165000  0.91387000  0.07737000  1.0 0.5242255487
C  C350  1  0.26890000  0.86601000  0.06648000  1.0 -0.1018392379
C  C351  1  0.25790000  0.75690000  0.00020000  1.0 0.406899887
C  C358  1  0.48660000  0.63173000  0.82876000  1.0 0.5490934857
C  C359  1  0.87820000  0.60953000  0.75660000  1.0 -0.158514393
C  C360  1  0.78063000  0.61205000  0.77539000  1.0 -0.1750477965
C  C361  1  0.67082000  0.71120000  0.63927000  1.0 0.1295921245
C  C362  1  0.86266000  0.60627000  0.79283000  1.0 -0.1018392379
C  C363  1  0.76239000  0.56373000  0.51116000  1.0 0.1295921245
C  C364  1  0.63421000  0.62465000  0.73915000  1.0 0.538877488
C  C365  1  0.60220000  0.62338000  0.77113000  1.0 -0.1407698515
C  C366  1  0.84308000  0.61554000  0.72937000  1.0 0.1295921245
C  C367  1  0.81471000  0.60789000  0.80239000  1.0 -0.1018392379
C  C368  1  0.68830000  0.50284000  0.63383000  1.0 0.1202368907
C  C369  1  0.57539000  0.62147000  0.83136000  1.0 -0.1322081174
C  C370  1  0.79557000  0.61686000  0.73910000  1.0 0.1202368907
C  C371  1  0.86245000  0.73642000  0.58467000  1.0 0.1387150632
C  C372  1  0.87176000  0.77905000  0.56635000  1.0 -0.1707864814
C  C373  1  0.76540000  0.61001000  0.50236000  1.0 0.1089854407
C  C374  1  0.60967000  0.76803000  0.63889000  1.0 -0.1018392379
C  C375  1  0.76146000  0.52797000  0.48296000  1.0 -0.158514393
C  C376  1  0.66790000  0.53432000  0.65930000  1.0 0.1202368907
C  C377  1  0.89475000  0.72037000  0.61282000  1.0 0.1295921245
C  C378  1  0.68431000  0.72575000  0.60391000  1.0 0.1202368907
C  C379  1  0.66666667  0.45992000  0.62463000  1.0 -0.1535722697
C  C380  1  0.62570000  0.45056000  0.64089000  1.0 -0.0890457364
C  C381  1  0.61408000  0.61818000  0.80770000  1.0 -0.1322081174
C  C382  1  0.88205000  0.50292000  0.59440000  1.0 0.1089854407
C  C383  1  0.76488000  0.62772000  0.46563000  1.0 -0.158514393
C  C384  1  0.94173000  0.78686000  0.60313000  1.0 -0.0890457364
C  C385  1  0.91156000  0.80294000  0.57592000  1.0 -0.1084743403
C  C386  1  0.53494000  0.62784000  0.81301000  1.0 -0.1084743403
C  C387  1  0.62421000  0.78251000  0.60377000  1.0 -0.0890457364
C  C388  1  0.63328000  0.73241000  0.65789000  1.0 -0.1707864814
C  C389  1  0.93451000  0.74533000  0.62235000  1.0 -0.1707864814
C  C390  1  0.91303000  0.53474000  0.61059000  1.0 0.1387150632
C  C391  1  0.62574000  0.52326000  0.67553000  1.0 -0.1407698515
C  C392  1  0.66248000  0.76230000  0.58512000  1.0 -0.158514393
C  C393  1  0.96256000  0.52500000  0.61120000  1.0 -0.1707864814
C  C394  1  0.60549000  0.48280000  0.66768000  1.0 -0.1018392379
C  C395  1  0.94130000  0.45160000  0.57940000  1.0 -0.1156335297
C  C396  1  0.76570000  0.59300000  0.43914000  1.0 -0.1018392379
C  C397  1  0.76160000  0.54430000  0.44762000  1.0 -0.0890457364
C  C398  1  0.89555000  0.46058000  0.57852000  1.0 -0.1535722697
C  C399  1  0.97550000  0.48460000  0.59280000  1.0 -0.1018392379
C  C400  1  0.77165000  0.41387000  0.57737000  1.0 0.5242255487
C  C401  1  0.76890000  0.36601000  0.56648000  1.0 -0.1018392379
C  C402  1  0.75790000  0.25690000  0.50020000  1.0 0.406899887
C  C409  1  0.61827000  0.73660000  0.42124000  1.0 0.5490934857
C  C410  1  0.64047000  0.12820000  0.49340000  1.0 -0.158514393
C  C411  1  0.63795000  0.03063000  0.47461000  1.0 -0.1750477965
C  C412  1  0.53880000  0.92082000  0.61073000  1.0 0.1295921245
C  C413  1  0.64373000  0.11266000  0.45717000  1.0 -0.1018392379
C  C414  1  0.68627000  0.01239000  0.73884000  1.0 0.1295921245
C  C415  1  0.62535000  0.88421000  0.51085000  1.0 0.538877488
C  C416  1  0.62662000  0.85220000  0.47887000  1.0 -0.1407698515
C  C417  1  0.63446000  0.09308000  0.52063000  1.0 0.1295921245
C  C418  1  0.64211000  0.06471000  0.44761000  1.0 -0.1018392379
C  C419  1  0.74716000  0.93830000  0.61617000  1.0 0.1202368907
C  C420  1  0.62853000  0.82539000  0.41864000  1.0 -0.1322081174
C  C421  1  0.63314000  0.04557000  0.51090000  1.0 0.1202368907
C  C422  1  0.51358000  0.11245000  0.66533000  1.0 0.1387150632
C  C423  1  0.47095000  0.12176000  0.68365000  1.0 -0.1707864814
C  C424  1  0.63999000  0.01540000  0.74764000  1.0 0.1089854407
C  C425  1  0.48197000  0.85967000  0.61111000  1.0 -0.1084743403
C  C426  1  0.72203000  0.01146000  0.76704000  1.0 -0.158514393
C  C427  1  0.71568000  0.91790000  0.59070000  1.0 0.1202368907
C  C428  1  0.52963000  0.14475000  0.63718000  1.0 0.1295921245
C  C429  1  0.52425000  0.93431000  0.64609000  1.0 0.1202368907
C  C430  1  0.79008000  0.91660000  0.62537000  1.0 -0.1535722697
C  C431  1  0.79944000  0.87570000  0.60911000  1.0 -0.0890457364
C  C432  1  0.63182000  0.86408000  0.44230000  1.0 -0.1322081174
C  C433  1  0.74708000  0.13205000  0.65560000  1.0 0.1089854407
C  C434  1  0.62228000  0.01488000  0.78437000  1.0 -0.158514393
C  C435  1  0.46314000  0.19173000  0.64687000  1.0 -0.0890457364
C  C436  1  0.44706000  0.16156000  0.67408000  1.0 -0.1084743403
C  C437  1  0.62216000  0.78494000  0.43699000  1.0 -0.1084743403
C  C438  1  0.46749000  0.87421000  0.64623000  1.0 -0.0890457364
C  C439  1  0.51759000  0.88328000  0.59211000  1.0 -0.1707864814
C  C440  1  0.50467000  0.18451000  0.62765000  1.0 -0.1707864814
C  C441  1  0.71526000  0.16303000  0.63941000  1.0 0.1387150632
C  C442  1  0.72674000  0.87574000  0.57447000  1.0 -0.1407698515
C  C443  1  0.48770000  0.91248000  0.66488000  1.0 -0.158514393
C  C444  1  0.72500000  0.21256000  0.63880000  1.0 -0.1707864814
C  C445  1  0.76720000  0.85549000  0.58232000  1.0 -0.1018392379
C  C446  1  0.79840000  0.19130000  0.67060000  1.0 -0.1156335297
C  C447  1  0.65700000  0.01570000  0.81086000  1.0 -0.1018392379
C  C448  1  0.70570000  0.01160000  0.80238000  1.0 -0.0890457364
C  C449  1  0.78942000  0.14555000  0.67148000  1.0 -0.1535722697
C  C450  1  0.76540000  0.22550000  0.65720000  1.0 -0.1018392379
C  C451  1  0.83613000  0.02165000  0.67263000  1.0 0.5242255487
C  C452  1  0.88399000  0.01890000  0.68352000  1.0 -0.1018392379
C  C453  1  0.99310000  0.00790000  0.74980000  1.0 0.406899887
C  C460  1  0.11827000  0.23660000  0.92124000  1.0 0.5490934857
C  C461  1  0.14047000  0.62820000  0.99340000  1.0 -0.158514393
C  C462  1  0.13795000  0.53063000  0.97461000  1.0 -0.1750477965
C  C463  1  0.03880000  0.42082000  0.11073000  1.0 0.1295921245
C  C464  1  0.14373000  0.61266000  0.95717000  1.0 -0.1018392379
C  C465  1  0.18627000  0.51239000  0.23884000  1.0 0.1295921245
C  C466  1  0.12535000  0.38421000  0.01085000  1.0 0.538877488
C  C467  1  0.12662000  0.35220000  0.97887000  1.0 -0.1407698515
C  C468  1  0.13446000  0.59308000  0.02063000  1.0 0.1295921245
C  C469  1  0.14211000  0.56471000  0.94761000  1.0 -0.1018392379
C  C470  1  0.24716000  0.43830000  0.11617000  1.0 0.1202368907
C  C471  1  0.12853000  0.32539000  0.91864000  1.0 -0.1322081174
C  C472  1  0.13314000  0.54557000  0.01090000  1.0 0.1202368907
C  C473  1  0.01358000  0.61245000  0.16533000  1.0 0.1387150632
C  C474  1  0.97095000  0.62176000  0.18365000  1.0 -0.1707864814
C  C475  1  0.13999000  0.51540000  0.24764000  1.0 0.1089854407
C  C476  1  0.98197000  0.35967000  0.11111000  1.0 -0.1018392379
C  C477  1  0.22203000  0.51146000  0.26704000  1.0 -0.158514393
C  C478  1  0.21568000  0.41790000  0.09070000  1.0 0.1202368907
C  C479  1  0.02963000  0.64475000  0.13718000  1.0 0.1295921245
C  C480  1  0.02425000  0.43431000  0.14609000  1.0 0.1202368907
C  C481  1  0.29008000  0.41660000  0.12537000  1.0 -0.1535722697
C  C482  1  0.29944000  0.37570000  0.10911000  1.0 -0.0890457364
C  C483  1  0.13182000  0.36408000  0.94230000  1.0 -0.1322081174
C  C484  1  0.24708000  0.63205000  0.15560000  1.0 0.1089854407
C  C485  1  0.12228000  0.51488000  0.28437000  1.0 -0.158514393
C  C486  1  0.96314000  0.69173000  0.14687000  1.0 -0.0890457364
C  C487  1  0.94706000  0.66156000  0.17408000  1.0 -0.1084743403
C  C488  1  0.12216000  0.28494000  0.93699000  1.0 -0.1084743403
C  C489  1  0.96749000  0.37421000  0.14623000  1.0 -0.0890457364
C  C490  1  0.01759000  0.38328000  0.09211000  1.0 -0.1707864814
C  C491  1  0.00467000  0.68451000  0.12765000  1.0 -0.1707864814
C  C492  1  0.21526000  0.66303000  0.13941000  1.0 0.1387150632
C  C493  1  0.22674000  0.37574000  0.07447000  1.0 -0.1407698515
C  C494  1  0.98770000  0.41248000  0.16488000  1.0 -0.158514393
C  C495  1  0.22500000  0.71256000  0.13880000  1.0 -0.1707864814
C  C496  1  0.26720000  0.35549000  0.08232000  1.0 -0.1018392379
C  C497  1  0.29840000  0.69130000  0.17060000  1.0 -0.1156335297
C  C498  1  0.15700000  0.51570000  0.31086000  1.0 -0.1018392379
C  C499  1  0.20570000  0.51160000  0.30238000  1.0 -0.0890457364
C  C500  1  0.28942000  0.64555000  0.17148000  1.0 -0.1535722697
C  C501  1  0.26540000  0.72550000  0.15720000  1.0 -0.1018392379
C  C502  1  0.33613000  0.52165000  0.17263000  1.0 0.5242255487
C  C503  1  0.38399000  0.51890000  0.18352000  1.0 -0.1018392379
C  C504  1  0.49310000  0.50790000  0.24980000  1.0 0.406899887
C  C511  1  0.11827000  0.73660000  0.07876000  1.0 0.5490934857
C  C512  1  0.14047000  0.12820000  0.00660000  1.0 -0.158514393
C  C513  1  0.13795000  0.03063000  0.02539000  1.0 -0.1750477965
C  C514  1  0.03880000  0.92082000  0.88927000  1.0 0.1295921245
C  C515  1  0.14373000  0.11266000  0.04283000  1.0 -0.1018392379
C  C516  1  0.18627000  0.01239000  0.76116000  1.0 0.1295921245
C  C517  1  0.12535000  0.88421000  0.98915000  1.0 0.538877488
C  C518  1  0.12662000  0.85220000  0.02113000  1.0 -0.1407698515
C  C519  1  0.13446000  0.09308000  0.97937000  1.0 0.1295921245
C  C520  1  0.14211000  0.06471000  0.05239000  1.0 -0.1018392379
C  C521  1  0.24716000  0.93830000  0.88383000  1.0 0.1202368907
C  C522  1  0.12853000  0.82539000  0.08136000  1.0 -0.1322081174
C  C523  1  0.13314000  0.04557000  0.98910000  1.0 0.1202368907
C  C524  1  0.01358000  0.11245000  0.83467000  1.0 0.1387150632
C  C525  1  0.97095000  0.12176000  0.81635000  1.0 -0.1707864814
C  C526  1  0.13999000  0.01540000  0.75236000  1.0 0.1089854407
C  C527  1  0.98197000  0.85967000  0.88889000  1.0 -0.1018392379
C  C528  1  0.22203000  0.01146000  0.73296000  1.0 -0.158514393
C  C529  1  0.21568000  0.91790000  0.90930000  1.0 0.1202368907
C  C530  1  0.02963000  0.14475000  0.86282000  1.0 0.1295921245
C  C531  1  0.02425000  0.93431000  0.85391000  1.0 0.1202368907
C  C532  1  0.29008000  0.91660000  0.87463000  1.0 -0.1535722697
C  C533  1  0.29944000  0.87570000  0.89089000  1.0 -0.0890457364
C  C534  1  0.13182000  0.86408000  0.05770000  1.0 -0.1322081174
C  C535  1  0.24708000  0.13205000  0.84440000  1.0 0.1089854407
C  C536  1  0.12228000  0.01488000  0.71563000  1.0 -0.158514393
C  C537  1  0.96314000  0.19173000  0.85313000  1.0 -0.0890457364
C  C538  1  0.94706000  0.16156000  0.82592000  1.0 -0.1084743403
C  C539  1  0.12216000  0.78494000  0.06301000  1.0 -0.1084743403
C  C540  1  0.96749000  0.87421000  0.85377000  1.0 -0.0890457364
C  C541  1  0.01759000  0.88328000  0.90789000  1.0 -0.1750477965
C  C542  1  0.00467000  0.18451000  0.87235000  1.0 -0.1707864814
C  C543  1  0.21526000  0.16303000  0.86059000  1.0 0.1387150632
C  C544  1  0.22674000  0.87574000  0.92553000  1.0 -0.1407698515
C  C545  1  0.98770000  0.91248000  0.83512000  1.0 -0.158514393
C  C546  1  0.22500000  0.21256000  0.86120000  1.0 -0.1707864814
C  C547  1  0.26720000  0.85549000  0.91768000  1.0 -0.1018392379
C  C548  1  0.29840000  0.19130000  0.82940000  1.0 -0.1156335297
C  C549  1  0.15700000  0.01570000  0.68914000  1.0 -0.1018392379
C  C550  1  0.20570000  0.01160000  0.69762000  1.0 -0.0890457364
C  C551  1  0.28942000  0.14555000  0.82852000  1.0 -0.1535722697
C  C552  1  0.26540000  0.22550000  0.84280000  1.0 -0.1018392379
C  C553  1  0.33613000  0.02165000  0.82737000  1.0 0.5242255487
C  C554  1  0.38399000  0.01890000  0.81648000  1.0 -0.1018392379
C  C555  1  0.49310000  0.00790000  0.75020000  1.0 0.406899887
C  C562  1  0.61827000  0.23660000  0.57876000  1.0 0.5490934857
C  C563  1  0.64047000  0.62820000  0.50660000  1.0 -0.158514393
C  C564  1  0.63795000  0.53063000  0.52539000  1.0 -0.1750477965
C  C565  1  0.53880000  0.42082000  0.38927000  1.0 0.1295921245
C  C566  1  0.64373000  0.61266000  0.54283000  1.0 -0.1018392379
C  C567  1  0.68627000  0.51239000  0.26116000  1.0 0.1295921245
C  C568  1  0.62535000  0.38421000  0.48915000  1.0 0.538877488
C  C569  1  0.62662000  0.35220000  0.52113000  1.0 -0.1407698515
C  C570  1  0.63446000  0.59308000  0.47937000  1.0 0.1295921245
C  C571  1  0.64211000  0.56471000  0.55239000  1.0 -0.1018392379
C  C572  1  0.74716000  0.43830000  0.38383000  1.0 0.1202368907
C  C573  1  0.62853000  0.32539000  0.58136000  1.0 -0.1322081174
C  C574  1  0.63314000  0.54557000  0.48910000  1.0 0.1202368907
C  C575  1  0.51358000  0.61245000  0.33467000  1.0 0.1387150632
C  C576  1  0.47095000  0.62176000  0.31635000  1.0 -0.1707864814
C  C577  1  0.63999000  0.51540000  0.25236000  1.0 0.1089854407
C  C578  1  0.48197000  0.35967000  0.38889000  1.0 -0.1018392379
C  C579  1  0.72203000  0.51146000  0.23296000  1.0 -0.158514393
C  C580  1  0.71568000  0.41790000  0.40930000  1.0 0.1202368907
C  C581  1  0.52963000  0.64475000  0.36282000  1.0 0.1295921245
C  C582  1  0.52425000  0.43431000  0.35391000  1.0 0.1202368907
C  C583  1  0.79008000  0.41660000  0.37463000  1.0 -0.1535722697
C  C584  1  0.79944000  0.37570000  0.39089000  1.0 -0.0890457364
C  C585  1  0.63182000  0.36408000  0.55770000  1.0 -0.1322081174
C  C586  1  0.74708000  0.63205000  0.34440000  1.0 0.1089854407
C  C587  1  0.62228000  0.51488000  0.21563000  1.0 -0.158514393
C  C588  1  0.46314000  0.69173000  0.35313000  1.0 -0.0890457364
C  C589  1  0.44706000  0.66156000  0.32592000  1.0 -0.1084743403
C  C590  1  0.62216000  0.28494000  0.56301000  1.0 -0.1084743403
C  C591  1  0.46749000  0.37421000  0.35377000  1.0 -0.0890457364
C  C592  1  0.51759000  0.38328000  0.40789000  1.0 -0.1707864814
C  C593  1  0.50467000  0.68451000  0.37235000  1.0 -0.1707864814
C  C594  1  0.71526000  0.66303000  0.36059000  1.0 0.1387150632
C  C595  1  0.72674000  0.37574000  0.42553000  1.0 -0.1407698515
C  C596  1  0.48770000  0.41248000  0.33512000  1.0 -0.158514393
C  C597  1  0.72500000  0.71256000  0.36120000  1.0 -0.1707864814
C  C598  1  0.76720000  0.35549000  0.41768000  1.0 -0.1018392379
C  C599  1  0.79840000  0.69130000  0.32940000  1.0 -0.1156335297
C  C600  1  0.65700000  0.51570000  0.18914000  1.0 -0.1018392379
C  C601  1  0.70570000  0.51160000  0.19762000  1.0 -0.0890457364
C  C602  1  0.78942000  0.64555000  0.32852000  1.0 -0.1535722697
C  C603  1  0.76540000  0.72550000  0.34280000  1.0 -0.1018392379
C  C604  1  0.83613000  0.52165000  0.32737000  1.0 0.5242255487
C  C605  1  0.88399000  0.51890000  0.31648000  1.0 -0.1018392379
C  C606  1  0.99310000  0.50790000  0.25020000  1.0 0.406899887
C  C613  1  0.88173000  0.26340000  0.92124000  1.0 0.5490934857
C  C614  1  0.85953000  0.87180000  0.99340000  1.0 -0.158514393
C  C615  1  0.86205000  0.96937000  0.97461000  1.0 -0.1750477965
C  C616  1  0.96120000  0.07918000  0.11073000  1.0 0.1295921245
C  C617  1  0.85627000  0.88734000  0.95717000  1.0 -0.1018392379
C  C618  1  0.81373000  0.98761000  0.23884000  1.0 0.1295921245
C  C619  1  0.87465000  0.11579000  0.01085000  1.0 0.538877488
C  C620  1  0.87338000  0.14780000  0.97887000  1.0 -0.1407698515
C  C621  1  0.86554000  0.90692000  0.02063000  1.0 0.1295921245
C  C622  1  0.85789000  0.93529000  0.94761000  1.0 -0.1018392379
C  C623  1  0.75284000  0.06170000  0.11617000  1.0 0.1202368907
C  C624  1  0.87147000  0.17461000  0.91864000  1.0 -0.1322081174
C  C625  1  0.86686000  0.95443000  0.01090000  1.0 0.1202368907
C  C626  1  0.98642000  0.88755000  0.16533000  1.0 0.1387150632
C  C627  1  0.02905000  0.87824000  0.18365000  1.0 -0.1707864814
C  C628  1  0.86001000  0.98460000  0.24764000  1.0 0.1089854407
C  C629  1  0.01803000  0.14033000  0.11111000  1.0 -0.1084743403
C  C630  1  0.77797000  0.98854000  0.26704000  1.0 -0.158514393
C  C631  1  0.78432000  0.08210000  0.09070000  1.0 0.1202368907
C  C632  1  0.97037000  0.85525000  0.13718000  1.0 0.1295921245
C  C633  1  0.97575000  0.06569000  0.14609000  1.0 0.1202368907
C  C634  1  0.70992000  0.08340000  0.12537000  1.0 -0.1535722697
C  C635  1  0.70056000  0.12430000  0.10911000  1.0 -0.0890457364
C  C636  1  0.86818000  0.13592000  0.94230000  1.0 -0.1322081174
C  C637  1  0.75292000  0.86795000  0.15560000  1.0 0.1089854407
C  C638  1  0.87772000  0.98512000  0.28437000  1.0 -0.158514393
C  C639  1  0.03686000  0.80827000  0.14687000  1.0 -0.0890457364
C  C640  1  0.05294000  0.83844000  0.17408000  1.0 -0.1084743403
C  C641  1  0.87784000  0.21506000  0.93699000  1.0 -0.1084743403
C  C642  1  0.03251000  0.12579000  0.14623000  1.0 -0.0890457364
C  C643  1  0.98241000  0.11672000  0.09211000  1.0 -0.1707864814
C  C644  1  0.99533000  0.81549000  0.12765000  1.0 -0.1707864814
C  C645  1  0.78474000  0.83697000  0.13941000  1.0 0.1387150632
C  C646  1  0.77326000  0.12426000  0.07447000  1.0 -0.1407698515
C  C647  1  0.01230000  0.08752000  0.16488000  1.0 -0.158514393
C  C648  1  0.77500000  0.78744000  0.13880000  1.0 -0.1707864814
C  C649  1  0.73280000  0.14451000  0.08232000  1.0 -0.1018392379
C  C650  1  0.70160000  0.80870000  0.17060000  1.0 -0.1156335297
C  C651  1  0.84300000  0.98430000  0.31086000  1.0 -0.1018392379
C  C652  1  0.79430000  0.98840000  0.30238000  1.0 -0.0890457364
C  C653  1  0.71058000  0.85445000  0.17148000  1.0 -0.1535722697
C  C654  1  0.73460000  0.77450000  0.15720000  1.0 -0.1018392379
C  C655  1  0.66387000  0.97835000  0.17263000  1.0 0.5242255487
C  C656  1  0.61601000  0.98110000  0.18352000  1.0 -0.1018392379
C  C657  1  0.50690000  0.99210000  0.24980000  1.0 0.406899887
C  C664  1  0.38173000  0.76340000  0.42124000  1.0 0.5490934857
C  C665  1  0.35953000  0.37180000  0.49340000  1.0 -0.158514393
C  C666  1  0.36205000  0.46937000  0.47461000  1.0 -0.1750477965
C  C667  1  0.46120000  0.57918000  0.61073000  1.0 0.1295921245
C  C668  1  0.35627000  0.38734000  0.45717000  1.0 -0.1018392379
C  C669  1  0.31373000  0.48761000  0.73884000  1.0 0.1295921245
C  C670  1  0.37465000  0.61579000  0.51085000  1.0 0.538877488
C  C671  1  0.37338000  0.64780000  0.47887000  1.0 -0.1407698515
C  C672  1  0.36554000  0.40692000  0.52063000  1.0 0.1295921245
C  C673  1  0.35789000  0.43529000  0.44761000  1.0 -0.1018392379
C  C674  1  0.25284000  0.56170000  0.61617000  1.0 0.1202368907
C  C675  1  0.37147000  0.67461000  0.41864000  1.0 -0.1322081174
C  C676  1  0.36686000  0.45443000  0.51090000  1.0 0.1202368907
C  C677  1  0.48642000  0.38755000  0.66533000  1.0 0.1387150632
C  C678  1  0.52905000  0.37824000  0.68365000  1.0 -0.1707864814
C  C679  1  0.36001000  0.48460000  0.74764000  1.0 0.1089854407
C  C680  1  0.51803000  0.64033000  0.61111000  1.0 -0.1084743403
C  C681  1  0.27797000  0.48854000  0.76704000  1.0 -0.158514393
C  C682  1  0.28432000  0.58210000  0.59070000  1.0 0.1202368907
C  C683  1  0.47037000  0.35525000  0.63718000  1.0 0.1295921245
C  C684  1  0.47575000  0.56569000  0.64609000  1.0 0.1202368907
C  C685  1  0.20992000  0.58340000  0.62537000  1.0 -0.1535722697
C  C686  1  0.20056000  0.62430000  0.60911000  1.0 -0.0890457364
C  C687  1  0.36818000  0.63592000  0.44230000  1.0 -0.1322081174
C  C688  1  0.25292000  0.36795000  0.65560000  1.0 0.1089854407
C  C689  1  0.37772000  0.48512000  0.78437000  1.0 -0.158514393
C  C690  1  0.53686000  0.30827000  0.64687000  1.0 -0.0890457364
C  C691  1  0.55294000  0.33844000  0.67408000  1.0 -0.1084743403
C  C692  1  0.37784000  0.71506000  0.43699000  1.0 -0.1084743403
C  C693  1  0.53251000  0.62579000  0.64623000  1.0 -0.0890457364
C  C694  1  0.48241000  0.61672000  0.59211000  1.0 -0.1707864814
C  C695  1  0.49533000  0.31549000  0.62765000  1.0 -0.1707864814
C  C696  1  0.28474000  0.33697000  0.63941000  1.0 0.1387150632
C  C697  1  0.27326000  0.62426000  0.57447000  1.0 -0.1407698515
C  C698  1  0.51230000  0.58752000  0.66488000  1.0 -0.158514393
C  C699  1  0.27500000  0.28744000  0.63880000  1.0 -0.1707864814
C  C700  1  0.23280000  0.64451000  0.58232000  1.0 -0.1018392379
C  C701  1  0.20160000  0.30870000  0.67060000  1.0 -0.1156335297
C  C702  1  0.34300000  0.48430000  0.81086000  1.0 -0.1018392379
C  C703  1  0.29430000  0.48840000  0.80238000  1.0 -0.0890457364
C  C704  1  0.21058000  0.35445000  0.67148000  1.0 -0.1535722697
C  C705  1  0.23460000  0.27450000  0.65720000  1.0 -0.1018392379
C  C706  1  0.16387000  0.47835000  0.67263000  1.0 0.5242255487
C  C707  1  0.11601000  0.48110000  0.68352000  1.0 -0.1018392379
C  C708  1  0.00690000  0.49210000  0.74980000  1.0 0.406899887
C  C715  1  0.38173000  0.26340000  0.57876000  1.0 0.5490934857
C  C716  1  0.35953000  0.87180000  0.50660000  1.0 -0.158514393
C  C717  1  0.36205000  0.96937000  0.52539000  1.0 -0.1750477965
C  C718  1  0.46120000  0.07918000  0.38927000  1.0 0.1295921245
C  C719  1  0.35627000  0.88734000  0.54283000  1.0 -0.1018392379
C  C720  1  0.31373000  0.98761000  0.26116000  1.0 0.1295921245
C  C721  1  0.37465000  0.11579000  0.48915000  1.0 0.538877488
C  C722  1  0.37338000  0.14780000  0.52113000  1.0 -0.1407698515
C  C723  1  0.36554000  0.90692000  0.47937000  1.0 0.1295921245
C  C724  1  0.35789000  0.93529000  0.55239000  1.0 -0.1018392379
C  C725  1  0.25284000  0.06170000  0.38383000  1.0 0.1202368907
C  C726  1  0.37147000  0.17461000  0.58136000  1.0 -0.1322081174
C  C727  1  0.36686000  0.95443000  0.48910000  1.0 0.1202368907
C  C728  1  0.48642000  0.88755000  0.33467000  1.0 0.1387150632
C  C729  1  0.52905000  0.87824000  0.31635000  1.0 -0.1707864814
C  C730  1  0.36001000  0.98460000  0.25236000  1.0 0.1089854407
C  C731  1  0.51803000  0.14033000  0.38889000  1.0 -0.1018392379
C  C732  1  0.27797000  0.98854000  0.23296000  1.0 -0.158514393
C  C733  1  0.28432000  0.08210000  0.40930000  1.0 0.1202368907
C  C734  1  0.47037000  0.85525000  0.36282000  1.0 0.1295921245
C  C735  1  0.47575000  0.06569000  0.35391000  1.0 0.1202368907
C  C736  1  0.20992000  0.08340000  0.37463000  1.0 -0.1535722697
C  C737  1  0.20056000  0.12430000  0.39089000  1.0 -0.0890457364
C  C738  1  0.36818000  0.13592000  0.55770000  1.0 -0.1322081174
C  C739  1  0.25292000  0.86795000  0.34440000  1.0 0.1089854407
C  C740  1  0.37772000  0.98512000  0.21563000  1.0 -0.158514393
C  C741  1  0.53686000  0.80827000  0.35313000  1.0 -0.0890457364
C  C742  1  0.55294000  0.83844000  0.32592000  1.0 -0.1084743403
C  C743  1  0.37784000  0.21506000  0.56301000  1.0 -0.1084743403
C  C744  1  0.53251000  0.12579000  0.35377000  1.0 -0.0890457364
C  C745  1  0.48241000  0.11672000  0.40789000  1.0 -0.1707864814
C  C746  1  0.49533000  0.81549000  0.37235000  1.0 -0.1707864814
C  C747  1  0.28474000  0.83697000  0.36059000  1.0 0.1387150632
C  C748  1  0.27326000  0.12426000  0.42553000  1.0 -0.1407698515
C  C749  1  0.51230000  0.08752000  0.33512000  1.0 -0.158514393
C  C750  1  0.27500000  0.78744000  0.36120000  1.0 -0.1707864814
C  C751  1  0.23280000  0.14451000  0.41768000  1.0 -0.1018392379
C  C752  1  0.20160000  0.80870000  0.32940000  1.0 -0.1156335297
C  C753  1  0.34300000  0.98430000  0.18914000  1.0 -0.1018392379
C  C754  1  0.29430000  0.98840000  0.19762000  1.0 -0.0890457364
C  C755  1  0.21058000  0.85445000  0.32852000  1.0 -0.1535722697
C  C756  1  0.23460000  0.77450000  0.34280000  1.0 -0.1018392379
C  C757  1  0.16387000  0.97835000  0.32737000  1.0 0.5242255487
C  C758  1  0.11601000  0.98110000  0.31648000  1.0 -0.1018392379
C  C759  1  0.00690000  0.99210000  0.25020000  1.0 0.406899887
C  C766  1  0.88173000  0.76340000  0.07876000  1.0 0.5490934857
C  C767  1  0.85953000  0.37180000  0.00660000  1.0 -0.158514393
C  C768  1  0.86205000  0.46937000  0.02539000  1.0 -0.1750477965
C  C769  1  0.96120000  0.57918000  0.88927000  1.0 0.1295921245
C  C770  1  0.85627000  0.38734000  0.04283000  1.0 -0.1018392379
C  C771  1  0.81373000  0.48761000  0.76116000  1.0 0.1295921245
C  C772  1  0.87465000  0.61579000  0.98915000  1.0 0.538877488
C  C773  1  0.87338000  0.64780000  0.02113000  1.0 -0.1407698515
C  C774  1  0.86554000  0.40692000  0.97937000  1.0 0.1295921245
C  C775  1  0.85789000  0.43529000  0.05239000  1.0 -0.1018392379
C  C776  1  0.75284000  0.56170000  0.88383000  1.0 0.1202368907
C  C777  1  0.87147000  0.67461000  0.08136000  1.0 -0.1322081174
C  C778  1  0.86686000  0.45443000  0.98910000  1.0 0.1202368907
C  C779  1  0.98642000  0.38755000  0.83467000  1.0 0.1387150632
C  C780  1  0.02905000  0.37824000  0.81635000  1.0 -0.1707864814
C  C781  1  0.86001000  0.48460000  0.75236000  1.0 0.1089854407
C  C782  1  0.01803000  0.64033000  0.88889000  1.0 -0.1018392379
C  C783  1  0.77797000  0.48854000  0.73296000  1.0 -0.158514393
C  C784  1  0.78432000  0.58210000  0.90930000  1.0 0.1202368907
C  C785  1  0.97037000  0.35525000  0.86282000  1.0 0.1295921245
C  C786  1  0.97575000  0.56569000  0.85391000  1.0 0.1202368907
C  C787  1  0.70992000  0.58340000  0.87463000  1.0 -0.1535722697
C  C788  1  0.70056000  0.62430000  0.89089000  1.0 -0.0890457364
C  C789  1  0.86818000  0.63592000  0.05770000  1.0 -0.1322081174
C  C790  1  0.75292000  0.36795000  0.84440000  1.0 0.1089854407
C  C791  1  0.87772000  0.48512000  0.71563000  1.0 -0.158514393
C  C792  1  0.03686000  0.30827000  0.85313000  1.0 -0.0890457364
C  C793  1  0.05294000  0.33844000  0.82592000  1.0 -0.1084743403
C  C794  1  0.87784000  0.71506000  0.06301000  1.0 -0.1084743403
C  C795  1  0.03251000  0.62579000  0.85377000  1.0 -0.0890457364
C  C796  1  0.98241000  0.61672000  0.90789000  1.0 -0.1707864814
C  C797  1  0.99533000  0.31549000  0.87235000  1.0 -0.1707864814
C  C798  1  0.78474000  0.33697000  0.86059000  1.0 0.1387150632
C  C799  1  0.77326000  0.62426000  0.92553000  1.0 -0.1407698515
C  C800  1  0.01230000  0.58752000  0.83512000  1.0 -0.158514393
C  C801  1  0.77500000  0.28744000  0.86120000  1.0 -0.1707864814
C  C802  1  0.73280000  0.64451000  0.91768000  1.0 -0.1018392379
C  C803  1  0.70160000  0.30870000  0.82940000  1.0 -0.1156335297
C  C804  1  0.84300000  0.48430000  0.68914000  1.0 -0.1018392379
C  C805  1  0.79430000  0.48840000  0.69762000  1.0 -0.0890457364
C  C806  1  0.71058000  0.35445000  0.82852000  1.0 -0.1535722697
C  C807  1  0.73460000  0.27450000  0.84280000  1.0 -0.1018392379
C  C808  1  0.66387000  0.47835000  0.82737000  1.0 0.5242255487
C  C809  1  0.61601000  0.48110000  0.81648000  1.0 -0.1018392379
C  C810  1  0.50690000  0.49210000  0.75020000  1.0 0.406899887
C  C46  1  0.70660000  0.17150000  0.91400000  0.34 -0.0890457364
C  C47  1  0.70230000  0.20870000  0.93660000  0.34 -0.0650688486
C  C48  1  0.71870000  0.20960000  0.96840000  0.34 0.0378441269
C  C97  1  0.20660000  0.67150000  0.41400000  0.34 -0.0890457364
C  C98  1  0.20230000  0.70870000  0.43660000  0.34 -0.0650688486
C  C99  1  0.21870000  0.70960000  0.46840000  0.34 0.0378441269
C  C148  1  0.20660000  0.17150000  0.58600000  0.34 -0.0890457364
C  C149  1  0.20230000  0.20870000  0.56340000  0.34 -0.0650688486
C  C150  1  0.21870000  0.20960000  0.53160000  0.34 0.0378441269
C  C199  1  0.70660000  0.67150000  0.08600000  0.34 -0.0890457364
C  C200  1  0.70230000  0.70870000  0.06340000  0.34 -0.0650688486
C  C201  1  0.71870000  0.70960000  0.03160000  0.34 0.0378441269
C  C250  1  0.79340000  0.82850000  0.41400000  0.34 -0.0890457364
C  C251  1  0.79770000  0.79130000  0.43660000  0.34 -0.0650688486
C  C252  1  0.78130000  0.79040000  0.46840000  0.34 0.0378441269
C  C301  1  0.29340000  0.32850000  0.91400000  0.34 -0.0890457364
C  C302  1  0.29770000  0.29130000  0.93660000  0.34 -0.0650688486
C  C303  1  0.28130000  0.29040000  0.96840000  0.34 0.0378441269
C  C352  1  0.29340000  0.82850000  0.08600000  0.34 -0.0890457364
C  C353  1  0.29770000  0.79130000  0.06340000  0.34 -0.0650688486
C  C354  1  0.28130000  0.79040000  0.03160000  0.34 0.0378441269
C  C403  1  0.79340000  0.32850000  0.58600000  0.34 -0.0890457364
C  C404  1  0.79770000  0.29130000  0.56340000  0.34 -0.0650688486
C  C405  1  0.78130000  0.29040000  0.53160000  0.34 0.0378441269
C  C454  1  0.92150000  0.04340000  0.66400000  0.34 -0.0890457364
C  C455  1  0.95870000  0.04770000  0.68660000  0.34 -0.0650688486
C  C456  1  0.95960000  0.03130000  0.71840000  0.34 0.0378441269
C  C505  1  0.42150000  0.54340000  0.16400000  0.34 -0.0890457364
C  C506  1  0.45870000  0.54770000  0.18660000  0.34 -0.0650688486
C  C507  1  0.45960000  0.53130000  0.21840000  0.34 0.0378441269
C  C556  1  0.42150000  0.04340000  0.83600000  0.34 -0.0890457364
C  C557  1  0.45870000  0.04770000  0.81340000  0.34 -0.0650688486
C  C558  1  0.45960000  0.03130000  0.78160000  0.34 0.0378441269
C  C607  1  0.92150000  0.54340000  0.33600000  0.34 -0.0890457364
C  C608  1  0.95870000  0.54770000  0.31340000  0.34 -0.0650688486
C  C609  1  0.95960000  0.53130000  0.28160000  0.34 0.0378441269
C  C658  1  0.57850000  0.95660000  0.16400000  0.34 -0.0890457364
C  C659  1  0.54130000  0.95230000  0.18660000  0.34 -0.0650688486
C  C660  1  0.54040000  0.96870000  0.21840000  0.34 0.0378441269
C  C709  1  0.07850000  0.45660000  0.66400000  0.34 -0.0890457364
C  C710  1  0.04130000  0.45230000  0.68660000  0.34 -0.0650688486
C  C711  1  0.04040000  0.46870000  0.71840000  0.34 0.0378441269
C  C760  1  0.07850000  0.95660000  0.33600000  0.34 -0.0890457364
C  C761  1  0.04130000  0.95230000  0.31340000  0.34 -0.0650688486
C  C762  1  0.04040000  0.96870000  0.28160000  0.34 0.0378441269
C  C811  1  0.57850000  0.45660000  0.83600000  0.34 -0.0890457364
C  C812  1  0.54130000  0.45230000  0.81340000  0.34 -0.0650688486
C  C813  1  0.54040000  0.46870000  0.78160000  0.34 0.0378441269
C  C49  1  0.74780000  0.17250000  0.91360000  0.66 -0.0610806638
C  C50  1  0.76010000  0.21210000  0.93320000  0.66 -0.0610806638
C  C51  1  0.74920000  0.20710000  0.97280000  0.66 -0.0299343351
C  C100  1  0.24780000  0.67250000  0.41360000  0.66 -0.0610806638
C  C101  1  0.26010000  0.71210000  0.43320000  0.66 -0.0610806638
C  C102  1  0.24920000  0.70710000  0.47280000  0.66 -0.0299343351
C  C151  1  0.24780000  0.17250000  0.58640000  0.66 -0.0610806638
C  C152  1  0.26010000  0.21210000  0.56680000  0.66 -0.0610806638
C  C153  1  0.24920000  0.20710000  0.52720000  0.66 -0.0299343351
C  C202  1  0.74780000  0.67250000  0.08640000  0.66 -0.0610806638
C  C203  1  0.76010000  0.71210000  0.06680000  0.66 -0.0610806638
C  C204  1  0.74920000  0.70710000  0.02720000  0.66 -0.0299343351
C  C253  1  0.75220000  0.82750000  0.41360000  0.66 -0.0610806638
C  C254  1  0.73990000  0.78790000  0.43320000  0.66 -0.0610806638
C  C255  1  0.75080000  0.79290000  0.47280000  0.66 -0.0299343351
C  C304  1  0.25220000  0.32750000  0.91360000  0.66 -0.0610806638
C  C305  1  0.23990000  0.28790000  0.93320000  0.66 -0.0610806638
C  C306  1  0.25080000  0.29290000  0.97280000  0.66 -0.0299343351
C  C355  1  0.25220000  0.82750000  0.08640000  0.66 -0.0610806638
C  C356  1  0.23990000  0.78790000  0.06680000  0.66 -0.0610806638
C  C357  1  0.25080000  0.79290000  0.02720000  0.66 -0.0299343351
C  C406  1  0.75220000  0.32750000  0.58640000  0.66 -0.0610806638
C  C407  1  0.73990000  0.28790000  0.56680000  0.66 -0.0610806638
C  C408  1  0.75080000  0.29290000  0.52720000  0.66 -0.0299343351
C  C457  1  0.92250000  0.00220000  0.66360000  0.66 -0.0610806638
C  C458  1  0.96210000  0.98990000  0.68320000  0.66 -0.0610806638
C  C459  1  0.95710000  0.00080000  0.72280000  0.66 -0.0299343351
C  C508  1  0.42250000  0.50220000  0.16360000  0.66 -0.0610806638
C  C509  1  0.46210000  0.48990000  0.18320000  0.66 -0.0610806638
C  C510  1  0.45710000  0.50080000  0.22280000  0.66 -0.0299343351
C  C559  1  0.42250000  0.00220000  0.83640000  0.66 -0.0610806638
C  C560  1  0.46210000  0.98990000  0.81680000  0.66 -0.0610806638
C  C561  1  0.45710000  0.00080000  0.77720000  0.66 -0.0299343351
C  C610  1  0.92250000  0.50220000  0.33640000  0.66 -0.0610806638
C  C611  1  0.96210000  0.48990000  0.31680000  0.66 -0.0610806638
C  C612  1  0.95710000  0.50080000  0.27720000  0.66 -0.0299343351
C  C661  1  0.57750000  0.99780000  0.16360000  0.66 -0.0610806638
C  C662  1  0.53790000  0.01010000  0.18320000  0.66 -0.0610806638
C  C663  1  0.54290000  0.99920000  0.22280000  0.66 -0.0299343351
C  C712  1  0.07750000  0.49780000  0.66360000  0.66 -0.0610806638
C  C713  1  0.03790000  0.51010000  0.68320000  0.66 -0.0610806638
C  C714  1  0.04290000  0.49920000  0.72280000  0.66 -0.0299343351
C  C763  1  0.07750000  0.99780000  0.33640000  0.66 -0.0610806638
C  C764  1  0.03790000  0.01010000  0.31680000  0.66 -0.0610806638
C  C765  1  0.04290000  0.99920000  0.27720000  0.66 -0.0299343351
C  C814  1  0.57750000  0.49780000  0.83640000  0.66 -0.0610806638
C  C815  1  0.53790000  0.51010000  0.81680000  0.66 -0.0610806638
C  C816  1  0.54290000  0.49920000  0.77720000  0.66 -0.0299343351
S  S1  1  0.95667000  0.86864000  0.73426000  1.0 0.1502674251
S  S2  1  0.73815000  0.14991000  0.97932000  1.0 0.0609202151
S  S3  1  0.45667000  0.36864000  0.23426000  1.0 0.1502674251
S  S4  1  0.23815000  0.64991000  0.47932000  1.0 0.0609202151
S  S5  1  0.45667000  0.86864000  0.76574000  1.0 0.1502674251
S  S6  1  0.23815000  0.14991000  0.52068000  1.0 0.0609202151
S  S7  1  0.95667000  0.36864000  0.26574000  1.0 0.1502674251
S  S8  1  0.73815000  0.64991000  0.02068000  1.0 0.0609202151
S  S9  1  0.54333000  0.13136000  0.23426000  1.0 0.1502674251
S  S10  1  0.76185000  0.85009000  0.47932000  1.0 0.0609202151
S  S11  1  0.04333000  0.63136000  0.73426000  1.0 0.1502674251
S  S12  1  0.26185000  0.35009000  0.97932000  1.0 0.0609202151
S  S13  1  0.04333000  0.13136000  0.26574000  1.0 0.1502674251
S  S14  1  0.26185000  0.85009000  0.02068000  1.0 0.0609202151
S  S15  1  0.54333000  0.63136000  0.76574000  1.0 0.1502674251
S  S16  1  0.76185000  0.35009000  0.52068000  1.0 0.0609202151
S  S17  1  0.61864000  0.79333000  0.48426000  1.0 0.1502674251
S  S18  1  0.89991000  0.01185000  0.72932000  1.0 0.0609202151
S  S19  1  0.11864000  0.29333000  0.98426000  1.0 0.1502674251
S  S20  1  0.39991000  0.51185000  0.22932000  1.0 0.0609202151
S  S21  1  0.11864000  0.79333000  0.01574000  1.0 0.1502674251
S  S22  1  0.39991000  0.01185000  0.77068000  1.0 0.0609202151
S  S23  1  0.61864000  0.29333000  0.51574000  1.0 0.1502674251
S  S24  1  0.89991000  0.51185000  0.27068000  1.0 0.0609202151
S  S25  1  0.88136000  0.20667000  0.98426000  1.0 0.1502674251
S  S26  1  0.60009000  0.98815000  0.22932000  1.0 0.0609202151
S  S27  1  0.38136000  0.70667000  0.48426000  1.0 0.1502674251
S  S28  1  0.10009000  0.48815000  0.72932000  1.0 0.0609202151
S  S29  1  0.38136000  0.20667000  0.51574000  1.0 0.1502674251
S  S30  1  0.10009000  0.98815000  0.27068000  1.0 0.0609202151
S  S31  1  0.88136000  0.70667000  0.01574000  1.0 0.1502674251
S  S32  1  0.60009000  0.48815000  0.77068000  1.0 0.0609202151
N  N1  1  0.65337000  0.88072000  0.80806000  1.0 -0.1971500738
N  N2  1  0.61221000  0.92954000  0.87566000  1.0 -0.1971500738
N  N3  1  0.62501000  0.81987000  0.87447000  1.0 -0.191293522
N  N4  1  0.77736000  0.80058000  0.90581000  1.0 -0.2300579511
N  N5  1  0.73227000  0.86551000  0.96411000  1.0 -0.2201007336
N  N6  1  0.67254000  0.79448000  0.91740000  1.0 -0.2139968696
N  N7  1  0.76922000  0.83084000  0.87804000  1.0 -0.0214333063
N  N8  1  0.73162000  0.89845000  0.93751000  1.0 -0.0299343351
N  N9  1  0.65721000  0.93686000  0.88383000  1.0 -0.0299343351
N  N10  1  0.76739000  0.93516000  0.86272000  1.0 -0.0214333063
N  N11  1  0.66351000  0.82794000  0.89279000  1.0 -0.0115313431
N  N12  1  0.69626000  0.87636000  0.82100000  1.0 -0.0214333063
N  N13  1  0.73406000  0.94156000  0.95206000  1.0 -0.2201007336
N  N14  1  0.77093000  0.97719000  0.87901000  1.0 -0.2364460089
N  N15  1  0.66243000  0.97737000  0.90181000  1.0 -0.2201007336
N  N16  1  0.80043000  0.82401000  0.85080000  1.0 -0.2300579511
N  N17  1  0.80226000  0.92820000  0.83917000  1.0 -0.1971500738
N  N18  1  0.72907000  0.87707000  0.79402000  1.0 -0.2536931552
N  N19  1  0.15337000  0.38072000  0.30806000  1.0 -0.1971500738
N  N20  1  0.11221000  0.42954000  0.37566000  1.0 -0.1971500738
N  N21  1  0.12501000  0.31987000  0.37447000  1.0 -0.191293522
N  N22  1  0.27736000  0.30058000  0.40581000  1.0 -0.2300579511
N  N23  1  0.23227000  0.36551000  0.46411000  1.0 -0.2201007336
N  N24  1  0.17254000  0.29448000  0.41740000  1.0 -0.2139968696
N  N25  1  0.26922000  0.33084000  0.37804000  1.0 -0.0214333063
N  N26  1  0.23162000  0.39845000  0.43751000  1.0 -0.0299343351
N  N27  1  0.15721000  0.43686000  0.38383000  1.0 -0.0299343351
N  N28  1  0.26739000  0.43516000  0.36272000  1.0 -0.0214333063
N  N29  1  0.16351000  0.32794000  0.39279000  1.0 -0.0115313431
N  N30  1  0.19626000  0.37636000  0.32100000  1.0 -0.0214333063
N  N31  1  0.23406000  0.44156000  0.45206000  1.0 -0.2201007336
N  N32  1  0.27093000  0.47719000  0.37901000  1.0 -0.2364460089
N  N33  1  0.16243000  0.47737000  0.40181000  1.0 -0.2201007336
N  N34  1  0.30043000  0.32401000  0.35080000  1.0 -0.2300579511
N  N35  1  0.30226000  0.42820000  0.33917000  1.0 -0.1971500738
N  N36  1  0.22907000  0.37707000  0.29402000  1.0 -0.2536931552
N  N37  1  0.15337000  0.88072000  0.69194000  1.0 -0.1971500738
N  N38  1  0.11221000  0.92954000  0.62434000  1.0 -0.1971500738
N  N39  1  0.12501000  0.81987000  0.62553000  1.0 -0.191293522
N  N40  1  0.27736000  0.80058000  0.59419000  1.0 -0.2300579511
N  N41  1  0.23227000  0.86551000  0.53589000  1.0 -0.2201007336
N  N42  1  0.17254000  0.79448000  0.58260000  1.0 -0.2139968696
N  N43  1  0.26922000  0.83084000  0.62196000  1.0 -0.0214333063
N  N44  1  0.23162000  0.89845000  0.56249000  1.0 -0.0299343351
N  N45  1  0.15721000  0.93686000  0.61617000  1.0 -0.0299343351
N  N46  1  0.26739000  0.93516000  0.63728000  1.0 -0.0214333063
N  N47  1  0.16351000  0.82794000  0.60721000  1.0 -0.0115313431
N  N48  1  0.19626000  0.87636000  0.67900000  1.0 -0.0214333063
N  N49  1  0.23406000  0.94156000  0.54794000  1.0 -0.2201007336
N  N50  1  0.27093000  0.97719000  0.62099000  1.0 -0.2364460089
N  N51  1  0.16243000  0.97737000  0.59819000  1.0 -0.2201007336
N  N52  1  0.30043000  0.82401000  0.64920000  1.0 -0.2300579511
N  N53  1  0.30226000  0.92820000  0.66083000  1.0 -0.1971500738
N  N54  1  0.22907000  0.87707000  0.70598000  1.0 -0.2536931552
N  N55  1  0.65337000  0.38072000  0.19194000  1.0 -0.1971500738
N  N56  1  0.61221000  0.42954000  0.12434000  1.0 -0.1971500738
N  N57  1  0.62501000  0.31987000  0.12553000  1.0 -0.191293522
N  N58  1  0.77736000  0.30058000  0.09419000  1.0 -0.2300579511
N  N59  1  0.73227000  0.36551000  0.03589000  1.0 -0.2201007336
N  N60  1  0.67254000  0.29448000  0.08260000  1.0 -0.2139968696
N  N61  1  0.76922000  0.33084000  0.12196000  1.0 -0.0214333063
N  N62  1  0.73162000  0.39845000  0.06249000  1.0 -0.0299343351
N  N63  1  0.65721000  0.43686000  0.11617000  1.0 -0.0299343351
N  N64  1  0.76739000  0.43516000  0.13728000  1.0 -0.0214333063
N  N65  1  0.66351000  0.32794000  0.10721000  1.0 -0.0115313431
N  N66  1  0.69626000  0.37636000  0.17900000  1.0 -0.0214333063
N  N67  1  0.73406000  0.44156000  0.04794000  1.0 -0.2201007336
N  N68  1  0.77093000  0.47719000  0.12099000  1.0 -0.2364460089
N  N69  1  0.66243000  0.47737000  0.09819000  1.0 -0.2201007336
N  N70  1  0.80043000  0.32401000  0.14920000  1.0 -0.2300579511
N  N71  1  0.80226000  0.42820000  0.16083000  1.0 -0.1971500738
N  N72  1  0.72907000  0.37707000  0.20598000  1.0 -0.2536931552
N  N73  1  0.84663000  0.11928000  0.30806000  1.0 -0.1971500738
N  N74  1  0.88779000  0.07046000  0.37566000  1.0 -0.1971500738
N  N75  1  0.87499000  0.18013000  0.37447000  1.0 -0.191293522
N  N76  1  0.72264000  0.19942000  0.40581000  1.0 -0.2300579511
N  N77  1  0.76773000  0.13449000  0.46411000  1.0 -0.2201007336
N  N78  1  0.82746000  0.20552000  0.41740000  1.0 -0.2139968696
N  N79  1  0.73078000  0.16916000  0.37804000  1.0 -0.0214333063
N  N80  1  0.76838000  0.10155000  0.43751000  1.0 -0.0299343351
N  N81  1  0.84279000  0.06314000  0.38383000  1.0 -0.0299343351
N  N82  1  0.73261000  0.06484000  0.36272000  1.0 -0.0214333063
N  N83  1  0.83649000  0.17206000  0.39279000  1.0 -0.0115313431
N  N84  1  0.80374000  0.12364000  0.32100000  1.0 -0.0214333063
N  N85  1  0.76594000  0.05844000  0.45206000  1.0 -0.2201007336
N  N86  1  0.72907000  0.02281000  0.37901000  1.0 -0.2364460089
N  N87  1  0.83757000  0.02263000  0.40181000  1.0 -0.2201007336
N  N88  1  0.69957000  0.17599000  0.35080000  1.0 -0.2300579511
N  N89  1  0.69774000  0.07180000  0.33917000  1.0 -0.1971500738
N  N90  1  0.77093000  0.12293000  0.29402000  1.0 -0.2536931552
N  N91  1  0.34663000  0.61928000  0.80806000  1.0 -0.1971500738
N  N92  1  0.38779000  0.57046000  0.87566000  1.0 -0.1971500738
N  N93  1  0.37499000  0.68013000  0.87447000  1.0 -0.191293522
N  N94  1  0.22264000  0.69942000  0.90581000  1.0 -0.2300579511
N  N95  1  0.26773000  0.63449000  0.96411000  1.0 -0.2201007336
N  N96  1  0.32746000  0.70552000  0.91740000  1.0 -0.2139968696
N  N97  1  0.23078000  0.66916000  0.87804000  1.0 -0.0214333063
N  N98  1  0.26838000  0.60155000  0.93751000  1.0 -0.0299343351
N  N99  1  0.34279000  0.56314000  0.88383000  1.0 -0.0299343351
N  N100  1  0.23261000  0.56484000  0.86272000  1.0 -0.0214333063
N  N101  1  0.33649000  0.67206000  0.89279000  1.0 -0.0115313431
N  N102  1  0.30374000  0.62364000  0.82100000  1.0 -0.0214333063
N  N103  1  0.26594000  0.55844000  0.95206000  1.0 -0.2201007336
N  N104  1  0.22907000  0.52281000  0.87901000  1.0 -0.2364460089
N  N105  1  0.33757000  0.52263000  0.90181000  1.0 -0.2201007336
N  N106  1  0.19957000  0.67599000  0.85080000  1.0 -0.2300579511
N  N107  1  0.19774000  0.57180000  0.83917000  1.0 -0.1971500738
N  N108  1  0.27093000  0.62293000  0.79402000  1.0 -0.2536931552
N  N109  1  0.34663000  0.11928000  0.19194000  1.0 -0.1971500738
N  N110  1  0.38779000  0.07046000  0.12434000  1.0 -0.1971500738
N  N111  1  0.37499000  0.18013000  0.12553000  1.0 -0.191293522
N  N112  1  0.22264000  0.19942000  0.09419000  1.0 -0.2300579511
N  N113  1  0.26773000  0.13449000  0.03589000  1.0 -0.2201007336
N  N114  1  0.32746000  0.20552000  0.08260000  1.0 -0.2139968696
N  N115  1  0.23078000  0.16916000  0.12196000  1.0 -0.0214333063
N  N116  1  0.26838000  0.10155000  0.06249000  1.0 -0.0299343351
N  N117  1  0.34279000  0.06314000  0.11617000  1.0 -0.0299343351
N  N118  1  0.23261000  0.06484000  0.13728000  1.0 -0.0214333063
N  N119  1  0.33649000  0.17206000  0.10721000  1.0 -0.0115313431
N  N120  1  0.30374000  0.12364000  0.17900000  1.0 -0.0214333063
N  N121  1  0.26594000  0.05844000  0.04794000  1.0 -0.2201007336
N  N122  1  0.22907000  0.02281000  0.12099000  1.0 -0.2364460089
N  N123  1  0.33757000  0.02263000  0.09819000  1.0 -0.2201007336
N  N124  1  0.19957000  0.17599000  0.14920000  1.0 -0.2300579511
N  N125  1  0.19774000  0.07180000  0.16083000  1.0 -0.1971500738
N  N126  1  0.27093000  0.12293000  0.20598000  1.0 -0.2536931552
N  N127  1  0.84663000  0.61928000  0.69194000  1.0 -0.1971500738
N  N128  1  0.88779000  0.57046000  0.62434000  1.0 -0.1971500738
N  N129  1  0.87499000  0.68013000  0.62553000  1.0 -0.191293522
N  N130  1  0.72264000  0.69942000  0.59419000  1.0 -0.2300579511
N  N131  1  0.76773000  0.63449000  0.53589000  1.0 -0.2201007336
N  N132  1  0.82746000  0.70552000  0.58260000  1.0 -0.2139968696
N  N133  1  0.73078000  0.66916000  0.62196000  1.0 -0.0214333063
N  N134  1  0.76838000  0.60155000  0.56249000  1.0 -0.0299343351
N  N135  1  0.84279000  0.56314000  0.61617000  1.0 -0.0299343351
N  N136  1  0.73261000  0.56484000  0.63728000  1.0 -0.0214333063
N  N137  1  0.83649000  0.67206000  0.60721000  1.0 -0.0115313431
N  N138  1  0.80374000  0.62364000  0.67900000  1.0 -0.0214333063
N  N139  1  0.76594000  0.55844000  0.54794000  1.0 -0.2201007336
N  N140  1  0.72907000  0.52281000  0.62099000  1.0 -0.2364460089
N  N141  1  0.83757000  0.52263000  0.59819000  1.0 -0.2201007336
N  N142  1  0.69957000  0.67599000  0.64920000  1.0 -0.2300579511
N  N143  1  0.69774000  0.57180000  0.66083000  1.0 -0.1971500738
N  N144  1  0.77093000  0.62293000  0.70598000  1.0 -0.2536931552
N  N145  1  0.63072000  0.09663000  0.55806000  1.0 -0.1971500738
N  N146  1  0.67954000  0.13779000  0.62566000  1.0 -0.1971500738
N  N147  1  0.56987000  0.12499000  0.62447000  1.0 -0.191293522
N  N148  1  0.55058000  0.97264000  0.65581000  1.0 -0.2300579511
N  N149  1  0.61551000  0.01773000  0.71411000  1.0 -0.2201007336
N  N150  1  0.54448000  0.07746000  0.66740000  1.0 -0.2139968696
N  N151  1  0.58084000  0.98078000  0.62804000  1.0 -0.0214333063
N  N152  1  0.64845000  0.01838000  0.68751000  1.0 -0.0299343351
N  N153  1  0.68686000  0.09279000  0.63383000  1.0 -0.0299343351
N  N154  1  0.68516000  0.98261000  0.61272000  1.0 -0.0214333063
N  N155  1  0.57794000  0.08649000  0.64279000  1.0 -0.0115313431
N  N156  1  0.62636000  0.05374000  0.57100000  1.0 -0.0214333063
N  N157  1  0.69156000  0.01594000  0.70206000  1.0 -0.2201007336
N  N158  1  0.72719000  0.97907000  0.62901000  1.0 -0.2364460089
N  N159  1  0.72737000  0.08757000  0.65181000  1.0 -0.2201007336
N  N160  1  0.57401000  0.94957000  0.60080000  1.0 -0.2300579511
N  N161  1  0.67820000  0.94774000  0.58917000  1.0 -0.1971500738
N  N162  1  0.62707000  0.02093000  0.54402000  1.0 -0.2536931552
N  N163  1  0.13072000  0.59663000  0.05806000  1.0 -0.1971500738
N  N164  1  0.17954000  0.63779000  0.12566000  1.0 -0.1971500738
N  N165  1  0.06987000  0.62499000  0.12447000  1.0 -0.191293522
N  N166  1  0.05058000  0.47264000  0.15581000  1.0 -0.2300579511
N  N167  1  0.11551000  0.51773000  0.21411000  1.0 -0.2201007336
N  N168  1  0.04448000  0.57746000  0.16740000  1.0 -0.2139968696
N  N169  1  0.08084000  0.48078000  0.12804000  1.0 -0.0214333063
N  N170  1  0.14845000  0.51838000  0.18751000  1.0 -0.0299343351
N  N171  1  0.18686000  0.59279000  0.13383000  1.0 -0.0299343351
N  N172  1  0.18516000  0.48261000  0.11272000  1.0 -0.0214333063
N  N173  1  0.07794000  0.58649000  0.14279000  1.0 -0.0115313431
N  N174  1  0.12636000  0.55374000  0.07100000  1.0 -0.0214333063
N  N175  1  0.19156000  0.51594000  0.20206000  1.0 -0.2201007336
N  N176  1  0.22719000  0.47907000  0.12901000  1.0 -0.2364460089
N  N177  1  0.22737000  0.58757000  0.15181000  1.0 -0.2201007336
N  N178  1  0.07401000  0.44957000  0.10080000  1.0 -0.2300579511
N  N179  1  0.17820000  0.44774000  0.08917000  1.0 -0.1971500738
N  N180  1  0.12707000  0.52093000  0.04402000  1.0 -0.2536931552
N  N181  1  0.13072000  0.09663000  0.94194000  1.0 -0.1971500738
N  N182  1  0.17954000  0.13779000  0.87434000  1.0 -0.1971500738
N  N183  1  0.06987000  0.12499000  0.87553000  1.0 -0.191293522
N  N184  1  0.05058000  0.97264000  0.84419000  1.0 -0.2300579511
N  N185  1  0.11551000  0.01773000  0.78589000  1.0 -0.2201007336
N  N186  1  0.04448000  0.07746000  0.83260000  1.0 -0.2139968696
N  N187  1  0.08084000  0.98078000  0.87196000  1.0 -0.0214333063
N  N188  1  0.14845000  0.01838000  0.81249000  1.0 -0.0299343351
N  N189  1  0.18686000  0.09279000  0.86617000  1.0 -0.0299343351
N  N190  1  0.18516000  0.98261000  0.88728000  1.0 -0.0214333063
N  N191  1  0.07794000  0.08649000  0.85721000  1.0 -0.0115313431
N  N192  1  0.12636000  0.05374000  0.92900000  1.0 -0.0214333063
N  N193  1  0.19156000  0.01594000  0.79794000  1.0 -0.2201007336
N  N194  1  0.22719000  0.97907000  0.87099000  1.0 -0.2364460089
N  N195  1  0.22737000  0.08757000  0.84819000  1.0 -0.2201007336
N  N196  1  0.07401000  0.94957000  0.89920000  1.0 -0.2300579511
N  N197  1  0.17820000  0.94774000  0.91083000  1.0 -0.1971500738
N  N198  1  0.12707000  0.02093000  0.95598000  1.0 -0.2536931552
N  N199  1  0.63072000  0.59663000  0.44194000  1.0 -0.1971500738
N  N200  1  0.67954000  0.63779000  0.37434000  1.0 -0.1971500738
N  N201  1  0.56987000  0.62499000  0.37553000  1.0 -0.191293522
N  N202  1  0.55058000  0.47264000  0.34419000  1.0 -0.2300579511
N  N203  1  0.61551000  0.51773000  0.28589000  1.0 -0.2201007336
N  N204  1  0.54448000  0.57746000  0.33260000  1.0 -0.2139968696
N  N205  1  0.58084000  0.48078000  0.37196000  1.0 -0.0214333063
N  N206  1  0.64845000  0.51838000  0.31249000  1.0 -0.0299343351
N  N207  1  0.68686000  0.59279000  0.36617000  1.0 -0.0299343351
N  N208  1  0.68516000  0.48261000  0.38728000  1.0 -0.0214333063
N  N209  1  0.57794000  0.58649000  0.35721000  1.0 -0.0115313431
N  N210  1  0.62636000  0.55374000  0.42900000  1.0 -0.0214333063
N  N211  1  0.69156000  0.51594000  0.29794000  1.0 -0.2201007336
N  N212  1  0.72719000  0.47907000  0.37099000  1.0 -0.2364460089
N  N213  1  0.72737000  0.58757000  0.34819000  1.0 -0.2201007336
N  N214  1  0.57401000  0.44957000  0.39920000  1.0 -0.2300579511
N  N215  1  0.67820000  0.44774000  0.41083000  1.0 -0.1971500738
N  N216  1  0.62707000  0.52093000  0.45598000  1.0 -0.2536931552
N  N217  1  0.86928000  0.90337000  0.05806000  1.0 -0.1971500738
N  N218  1  0.82046000  0.86221000  0.12566000  1.0 -0.1971500738
N  N219  1  0.93013000  0.87501000  0.12447000  1.0 -0.191293522
N  N220  1  0.94942000  0.02736000  0.15581000  1.0 -0.2300579511
N  N221  1  0.88449000  0.98227000  0.21411000  1.0 -0.2201007336
N  N222  1  0.95552000  0.92254000  0.16740000  1.0 -0.2139968696
N  N223  1  0.91916000  0.01922000  0.12804000  1.0 -0.0214333063
N  N224  1  0.85155000  0.98162000  0.18751000  1.0 -0.0299343351
N  N225  1  0.81314000  0.90721000  0.13383000  1.0 -0.0299343351
N  N226  1  0.81484000  0.01739000  0.11272000  1.0 -0.0214333063
N  N227  1  0.92206000  0.91351000  0.14279000  1.0 -0.0115313431
N  N228  1  0.87364000  0.94626000  0.07100000  1.0 -0.0214333063
N  N229  1  0.80844000  0.98406000  0.20206000  1.0 -0.2201007336
N  N230  1  0.77281000  0.02093000  0.12901000  1.0 -0.2364460089
N  N231  1  0.77263000  0.91243000  0.15181000  1.0 -0.2201007336
N  N232  1  0.92599000  0.05043000  0.10080000  1.0 -0.2300579511
N  N233  1  0.82180000  0.05226000  0.08917000  1.0 -0.1971500738
N  N234  1  0.87293000  0.97907000  0.04402000  1.0 -0.2536931552
N  N235  1  0.36928000  0.40337000  0.55806000  1.0 -0.1971500738
N  N236  1  0.32046000  0.36221000  0.62566000  1.0 -0.1971500738
N  N237  1  0.43013000  0.37501000  0.62447000  1.0 -0.191293522
N  N238  1  0.44942000  0.52736000  0.65581000  1.0 -0.2300579511
N  N239  1  0.38449000  0.48227000  0.71411000  1.0 -0.2201007336
N  N240  1  0.45552000  0.42254000  0.66740000  1.0 -0.2139968696
N  N241  1  0.41916000  0.51922000  0.62804000  1.0 -0.0214333063
N  N242  1  0.35155000  0.48162000  0.68751000  1.0 -0.0299343351
N  N243  1  0.31314000  0.40721000  0.63383000  1.0 -0.0299343351
N  N244  1  0.31484000  0.51739000  0.61272000  1.0 -0.0214333063
N  N245  1  0.42206000  0.41351000  0.64279000  1.0 -0.0115313431
N  N246  1  0.37364000  0.44626000  0.57100000  1.0 -0.0214333063
N  N247  1  0.30844000  0.48406000  0.70206000  1.0 -0.2201007336
N  N248  1  0.27281000  0.52093000  0.62901000  1.0 -0.2364460089
N  N249  1  0.27263000  0.41243000  0.65181000  1.0 -0.2201007336
N  N250  1  0.42599000  0.55043000  0.60080000  1.0 -0.2300579511
N  N251  1  0.32180000  0.55226000  0.58917000  1.0 -0.1971500738
N  N252  1  0.37293000  0.47907000  0.54402000  1.0 -0.2536931552
N  N253  1  0.36928000  0.90337000  0.44194000  1.0 -0.1971500738
N  N254  1  0.32046000  0.86221000  0.37434000  1.0 -0.1971500738
N  N255  1  0.43013000  0.87501000  0.37553000  1.0 -0.191293522
N  N256  1  0.44942000  0.02736000  0.34419000  1.0 -0.2300579511
N  N257  1  0.38449000  0.98227000  0.28589000  1.0 -0.2201007336
N  N258  1  0.45552000  0.92254000  0.33260000  1.0 -0.2139968696
N  N259  1  0.41916000  0.01922000  0.37196000  1.0 -0.0214333063
N  N260  1  0.35155000  0.98162000  0.31249000  1.0 -0.0299343351
N  N261  1  0.31314000  0.90721000  0.36617000  1.0 -0.0299343351
N  N262  1  0.31484000  0.01739000  0.38728000  1.0 -0.0214333063
N  N263  1  0.42206000  0.91351000  0.35721000  1.0 -0.0115313431
N  N264  1  0.37364000  0.94626000  0.42900000  1.0 -0.0214333063
N  N265  1  0.30844000  0.98406000  0.29794000  1.0 -0.2201007336
N  N266  1  0.27281000  0.02093000  0.37099000  1.0 -0.2364460089
N  N267  1  0.27263000  0.91243000  0.34819000  1.0 -0.2201007336
N  N268  1  0.42599000  0.05043000  0.39920000  1.0 -0.2300579511
N  N269  1  0.32180000  0.05226000  0.41083000  1.0 -0.1971500738
N  N270  1  0.37293000  0.97907000  0.45598000  1.0 -0.2536931552
N  N271  1  0.86928000  0.40337000  0.94194000  1.0 -0.1971500738
N  N272  1  0.82046000  0.36221000  0.87434000  1.0 -0.1971500738
N  N273  1  0.93013000  0.37501000  0.87553000  1.0 -0.191293522
N  N274  1  0.94942000  0.52736000  0.84419000  1.0 -0.2300579511
N  N275  1  0.88449000  0.48227000  0.78589000  1.0 -0.2201007336
N  N276  1  0.95552000  0.42254000  0.83260000  1.0 -0.2139968696
N  N277  1  0.91916000  0.51922000  0.87196000  1.0 -0.0214333063
N  N278  1  0.85155000  0.48162000  0.81249000  1.0 -0.0299343351
N  N279  1  0.81314000  0.40721000  0.86617000  1.0 -0.0299343351
N  N280  1  0.81484000  0.51739000  0.88728000  1.0 -0.0214333063
N  N281  1  0.92206000  0.41351000  0.85721000  1.0 -0.0115313431
N  N282  1  0.87364000  0.44626000  0.92900000  1.0 -0.0214333063
N  N283  1  0.80844000  0.48406000  0.79794000  1.0 -0.2201007336
N  N284  1  0.77281000  0.52093000  0.87099000  1.0 -0.2364460089
N  N285  1  0.77263000  0.41243000  0.84819000  1.0 -0.2201007336
N  N286  1  0.92599000  0.55043000  0.89920000  1.0 -0.2300579511
N  N287  1  0.82180000  0.55226000  0.91083000  1.0 -0.1971500738
N  N288  1  0.87293000  0.47907000  0.95598000  1.0 -0.2536931552
O  O1  1  0.70710000  0.77600000  0.00620000  0.34 -0.2816254702
O  O12  1  0.20710000  0.27600000  0.50620000  0.34 -0.2816254702
O  O23  1  0.20710000  0.77600000  0.49380000  0.34 -0.2816254702
O  O34  1  0.70710000  0.27600000  0.99380000  0.34 -0.2816254702
O  O45  1  0.79290000  0.22400000  0.50620000  0.34 -0.2816254702
O  O56  1  0.29290000  0.72400000  0.00620000  0.34 -0.2816254702
O  O67  1  0.29290000  0.22400000  0.99380000  0.34 -0.2816254702
O  O78  1  0.79290000  0.72400000  0.49380000  0.34 -0.2816254702
O  O89  1  0.52600000  0.04290000  0.75620000  0.34 -0.2816254702
O  O100  1  0.02600000  0.54290000  0.25620000  0.34 -0.2930171737
O  O111  1  0.02600000  0.04290000  0.74380000  0.34 -0.2816254702
O  O122  1  0.52600000  0.54290000  0.24380000  0.34 -0.2816254702
O  O133  1  0.97400000  0.95710000  0.25620000  0.34 -0.2930171737
O  O144  1  0.47400000  0.45710000  0.75620000  0.34 -0.2816254702
O  O155  1  0.47400000  0.95710000  0.24380000  0.34 -0.2816254702
O  O166  1  0.97400000  0.45710000  0.74380000  0.34 -0.2816254702
O  O10  1  0.79782000  0.79438000  0.77280000  0.68 0.1387150632
O  O21  1  0.29782000  0.29438000  0.27280000  0.68 0.1387150632
O  O32  1  0.29782000  0.79438000  0.72720000  0.68 0.1387150632
O  O43  1  0.79782000  0.29438000  0.22720000  0.68 0.1502674251
O  O54  1  0.70218000  0.20562000  0.27280000  0.68 0.1502674251
O  O65  1  0.20218000  0.70562000  0.77280000  0.68 0.1295921245
O  O76  1  0.20218000  0.20562000  0.22720000  0.68 0.1502674251
O  O87  1  0.70218000  0.70562000  0.72720000  0.68 0.1502674251
O  O98  1  0.54438000  0.95218000  0.52280000  0.68 0.1387150632
O  O109  1  0.04438000  0.45218000  0.02280000  0.68 0.1295921245
O  O120  1  0.04438000  0.95218000  0.97720000  0.68 0.1387150632
O  O131  1  0.54438000  0.45218000  0.47720000  0.68 0.1387150632
O  O142  1  0.95562000  0.04782000  0.02280000  0.68 0.1387150632
O  O153  1  0.45562000  0.54782000  0.52280000  0.68 0.1387150632
O  O164  1  0.45562000  0.04782000  0.47720000  0.68 0.1387150632
O  O175  1  0.95562000  0.54782000  0.97720000  0.68 0.1502674251
O  O3  1  0.01896000  0.86962000  0.63798000  1.0 -0.4977995578
O  O4  1  0.04831000  0.86790000  0.69401000  1.0 -0.512748805
O  O5  1  0.87959000  0.86292000  0.79177000  1.0 -0.536990895
O  O6  1  0.82303000  0.88675000  0.75472000  1.0 -0.5168918475
O  O7  1  0.73162000  0.05367000  0.94762000  1.0 -0.5168918475
O  O8  1  0.72121000  0.07478000  0.88888000  1.0 -0.512748805
O  O9  1  0.74110000  0.73591000  0.97215000  1.0 -0.2300579511
O  O14  1  0.51896000  0.36962000  0.13798000  1.0 -0.4977995578
O  O15  1  0.54831000  0.36790000  0.19401000  1.0 -0.512748805
O  O16  1  0.37959000  0.36292000  0.29177000  1.0 -0.536990895
O  O17  1  0.32303000  0.38675000  0.25472000  1.0 -0.5168918475
O  O18  1  0.23162000  0.55367000  0.44762000  1.0 -0.5168918475
O  O19  1  0.22121000  0.57478000  0.38888000  1.0 -0.512748805
O  O20  1  0.24110000  0.23591000  0.47215000  1.0 -0.2300579511
O  O25  1  0.51896000  0.86962000  0.86202000  1.0 -0.4977995578
O  O26  1  0.54831000  0.86790000  0.80599000  1.0 -0.512748805
O  O27  1  0.37959000  0.86292000  0.70823000  1.0 -0.536990895
O  O28  1  0.32303000  0.88675000  0.74528000  1.0 -0.5168918475
O  O29  1  0.23162000  0.05367000  0.55238000  1.0 -0.5168918475
O  O30  1  0.22121000  0.07478000  0.61112000  1.0 -0.512748805
O  O31  1  0.24110000  0.73591000  0.52785000  1.0 -0.2300579511
O  O36  1  0.01896000  0.36962000  0.36202000  1.0 -0.4977995578
O  O37  1  0.04831000  0.36790000  0.30599000  1.0 -0.512748805
O  O38  1  0.87959000  0.36292000  0.20823000  1.0 -0.536990895
O  O39  1  0.82303000  0.38675000  0.24528000  1.0 -0.5168918475
O  O40  1  0.73162000  0.55367000  0.05238000  1.0 -0.5168918475
O  O41  1  0.72121000  0.57478000  0.11112000  1.0 -0.512748805
O  O42  1  0.74110000  0.23591000  0.02785000  1.0 -0.2300579511
O  O47  1  0.48104000  0.13038000  0.13798000  1.0 -0.4977995578
O  O48  1  0.45169000  0.13210000  0.19401000  1.0 -0.512748805
O  O49  1  0.62041000  0.13708000  0.29177000  1.0 -0.536990895
O  O50  1  0.67697000  0.11325000  0.25472000  1.0 -0.5168918475
O  O51  1  0.76838000  0.94633000  0.44762000  1.0 -0.5168918475
O  O52  1  0.77879000  0.92522000  0.38888000  1.0 -0.512748805
O  O53  1  0.75890000  0.26409000  0.47215000  1.0 -0.2300579511
O  O58  1  0.98104000  0.63038000  0.63798000  1.0 -0.4977995578
O  O59  1  0.95169000  0.63210000  0.69401000  1.0 -0.512748805
O  O60  1  0.12041000  0.63708000  0.79177000  1.0 -0.536990895
O  O61  1  0.17697000  0.61325000  0.75472000  1.0 -0.5168918475
O  O62  1  0.26838000  0.44633000  0.94762000  1.0 -0.5168918475
O  O63  1  0.27879000  0.42522000  0.88888000  1.0 -0.512748805
O  O64  1  0.25890000  0.76409000  0.97215000  1.0 -0.2300579511
O  O69  1  0.98104000  0.13038000  0.36202000  1.0 -0.4977995578
O  O70  1  0.95169000  0.13210000  0.30599000  1.0 -0.512748805
O  O71  1  0.12041000  0.13708000  0.20823000  1.0 -0.536990895
O  O72  1  0.17697000  0.11325000  0.24528000  1.0 -0.5168918475
O  O73  1  0.26838000  0.94633000  0.05238000  1.0 -0.5168918475
O  O74  1  0.27879000  0.92522000  0.11112000  1.0 -0.512748805
O  O75  1  0.25890000  0.26409000  0.02785000  1.0 -0.2300579511
O  O80  1  0.48104000  0.63038000  0.86202000  1.0 -0.4977995578
O  O81  1  0.45169000  0.63210000  0.80599000  1.0 -0.512748805
O  O82  1  0.62041000  0.63708000  0.70823000  1.0 -0.536990895
O  O83  1  0.67697000  0.61325000  0.74528000  1.0 -0.5168918475
O  O84  1  0.76838000  0.44633000  0.55238000  1.0 -0.5168918475
O  O85  1  0.77879000  0.42522000  0.61112000  1.0 -0.512748805
O  O86  1  0.75890000  0.76409000  0.52785000  1.0 -0.2300579511
O  O91  1  0.61962000  0.73104000  0.38798000  1.0 -0.4977995578
O  O92  1  0.61790000  0.70169000  0.44401000  1.0 -0.512748805
O  O93  1  0.61292000  0.87041000  0.54177000  1.0 -0.536990895
O  O94  1  0.63675000  0.92697000  0.50472000  1.0 -0.5168918475
O  O95  1  0.80367000  0.01838000  0.69762000  1.0 -0.5168918475
O  O96  1  0.82478000  0.02879000  0.63888000  1.0 -0.512748805
O  O97  1  0.48591000  0.00890000  0.72215000  1.0 -0.2300579511
O  O102  1  0.11962000  0.23104000  0.88798000  1.0 -0.4977995578
O  O103  1  0.11790000  0.20169000  0.94401000  1.0 -0.512748805
O  O104  1  0.11292000  0.37041000  0.04177000  1.0 -0.536990895
O  O105  1  0.13675000  0.42697000  0.00472000  1.0 -0.5168918475
O  O106  1  0.30367000  0.51838000  0.19762000  1.0 -0.5168918475
O  O107  1  0.32478000  0.52879000  0.13888000  1.0 -0.512748805
O  O108  1  0.98591000  0.50890000  0.22215000  1.0 -0.2300579511
O  O113  1  0.11962000  0.73104000  0.11202000  1.0 -0.4977995578
O  O114  1  0.11790000  0.70169000  0.05599000  1.0 -0.512748805
O  O115  1  0.11292000  0.87041000  0.95823000  1.0 -0.536990895
O  O116  1  0.13675000  0.92697000  0.99528000  1.0 -0.5168918475
O  O117  1  0.30367000  0.01838000  0.80238000  1.0 -0.5168918475
O  O118  1  0.32478000  0.02879000  0.86112000  1.0 -0.512748805
O  O119  1  0.98591000  0.00890000  0.77785000  1.0 -0.2364460089
O  O124  1  0.61962000  0.23104000  0.61202000  1.0 -0.4977995578
O  O125  1  0.61790000  0.20169000  0.55599000  1.0 -0.512748805
O  O126  1  0.61292000  0.37041000  0.45823000  1.0 -0.536990895
O  O127  1  0.63675000  0.42697000  0.49528000  1.0 -0.5168918475
O  O128  1  0.80367000  0.51838000  0.30238000  1.0 -0.5168918475
O  O129  1  0.82478000  0.52879000  0.36112000  1.0 -0.512748805
O  O130  1  0.48591000  0.50890000  0.27785000  1.0 -0.2300579511
O  O135  1  0.88038000  0.26896000  0.88798000  1.0 -0.4977995578
O  O136  1  0.88210000  0.29831000  0.94401000  1.0 -0.512748805
O  O137  1  0.88708000  0.12959000  0.04177000  1.0 -0.536990895
O  O138  1  0.86325000  0.07303000  0.00472000  1.0 -0.5168918475
O  O139  1  0.69633000  0.98162000  0.19762000  1.0 -0.5168918475
O  O140  1  0.67522000  0.97121000  0.13888000  1.0 -0.512748805
O  O141  1  0.01409000  0.99110000  0.22215000  1.0 -0.2300579511
O  O146  1  0.38038000  0.76896000  0.38798000  1.0 -0.4977995578
O  O147  1  0.38210000  0.79831000  0.44401000  1.0 -0.512748805
O  O148  1  0.38708000  0.62959000  0.54177000  1.0 -0.536990895
O  O149  1  0.36325000  0.57303000  0.50472000  1.0 -0.5168918475
O  O150  1  0.19633000  0.48162000  0.69762000  1.0 -0.5168918475
O  O151  1  0.17522000  0.47121000  0.63888000  1.0 -0.512748805
O  O152  1  0.51409000  0.49110000  0.72215000  1.0 -0.2300579511
O  O157  1  0.38038000  0.26896000  0.61202000  1.0 -0.4977995578
O  O158  1  0.38210000  0.29831000  0.55599000  1.0 -0.512748805
O  O159  1  0.38708000  0.12959000  0.45823000  1.0 -0.536990895
O  O160  1  0.36325000  0.07303000  0.49528000  1.0 -0.5168918475
O  O161  1  0.19633000  0.98162000  0.30238000  1.0 -0.5168918475
O  O162  1  0.17522000  0.97121000  0.36112000  1.0 -0.512748805
O  O163  1  0.51409000  0.99110000  0.27785000  1.0 -0.2300579511
O  O168  1  0.88038000  0.76896000  0.11202000  1.0 -0.4977995578
O  O169  1  0.88210000  0.79831000  0.05599000  1.0 -0.512748805
O  O170  1  0.88708000  0.62959000  0.95823000  1.0 -0.536990895
O  O171  1  0.86325000  0.57303000  0.99528000  1.0 -0.5168918475
O  O172  1  0.69633000  0.48162000  0.80238000  1.0 -0.5168918475
O  O173  1  0.67522000  0.47121000  0.86112000  1.0 -0.512748805
O  O174  1  0.01409000  0.49110000  0.77785000  1.0 -0.2364460089
O  O11  1  0.78710000  0.79060000  0.74153000  0.32 0.1089854407
O  O22  1  0.28710000  0.29060000  0.24153000  0.32 0.1089854407
O  O33  1  0.28710000  0.79060000  0.75847000  0.32 0.1039287497
O  O44  1  0.78710000  0.29060000  0.25847000  0.32 0.1039287497
O  O55  1  0.71290000  0.20940000  0.24153000  0.32 0.1089854407
O  O66  1  0.21290000  0.70940000  0.74153000  0.32 0.1089854407
O  O77  1  0.21290000  0.20940000  0.25847000  0.32 0.1039287497
O  O88  1  0.71290000  0.70940000  0.75847000  0.32 0.1039287497
O  O99  1  0.54060000  0.96290000  0.49153000  0.32 0.1089854407
O  O110  1  0.04060000  0.46290000  0.99153000  0.32 0.1089854407
O  O121  1  0.04060000  0.96290000  0.00847000  0.32 0.1039287497
O  O132  1  0.54060000  0.46290000  0.50847000  0.32 0.1089854407
O  O143  1  0.95940000  0.03710000  0.99153000  0.32 0.1089854407
O  O154  1  0.45940000  0.53710000  0.49153000  0.32 0.1089854407
O  O165  1  0.45940000  0.03710000  0.50847000  0.32 0.1089854407
O  O176  1  0.95940000  0.53710000  0.00847000  0.32 0.1039287497
O  O2  1  0.76960000  0.77979000  0.00368000  0.66 -0.2930171737
O  O13  1  0.26960000  0.27979000  0.50368000  0.66 -0.2930171737
O  O24  1  0.26960000  0.77979000  0.49632000  0.66 -0.2930171737
O  O35  1  0.76960000  0.27979000  0.99632000  0.66 -0.2930171737
O  O46  1  0.73040000  0.22021000  0.50368000  0.66 -0.2930171737
O  O57  1  0.23040000  0.72021000  0.00368000  0.66 -0.2930171737
O  O68  1  0.23040000  0.22021000  0.99632000  0.66 -0.2930171737
O  O79  1  0.73040000  0.72021000  0.49632000  0.66 -0.2930171737
O  O90  1  0.52979000  0.98040000  0.75368000  0.66 -0.2930171737
O  O101  1  0.02979000  0.48040000  0.25368000  0.66 -0.297206401
O  O112  1  0.02979000  0.98040000  0.74632000  0.66 -0.297206401
O  O123  1  0.52979000  0.48040000  0.24632000  0.66 -0.2930171737
O  O134  1  0.97021000  0.01960000  0.25368000  0.66 -0.297206401
O  O145  1  0.47021000  0.51960000  0.75368000  0.66 -0.2930171737
O  O156  1  0.47021000  0.01960000  0.24632000  0.66 -0.2930171737
O  O167  1  0.97021000  0.51960000  0.74632000  0.66 -0.297206401
