# DDEC6 charges by PACMAN v1.1 (https://github.com/mtap-research/PACMAN-charge/)
data_ja8b11221_si_003_ASR_pacman
_symmetry_space_group_name_H-M   'P 1'
_cell_length_a   29.83480000
_cell_length_b   29.83480000
_cell_length_c   29.83480000
_cell_angle_alpha   90.00000000
_cell_angle_beta   90.00000000
_cell_angle_gamma   90.00000000
_symmetry_Int_Tables_number   1
_chemical_formula_structural   Zn24H717.6C626.4N5.76O80.88
_chemical_formula_sum   'Zn24 H717.6 C626.4 N5.76 O80.88'
_cell_volume   26556.41168512
_cell_formula_units_Z   1
loop_
 _symmetry_equiv_pos_site_id
 _symmetry_equiv_pos_as_xyz
  1  'x, y, z'
loop_
 _atom_site_type_symbol
 _atom_site_label
 _atom_site_symmetry_multiplicity
 _atom_site_fract_x
 _atom_site_fract_y
 _atom_site_fract_z
 _atom_site_occupancy
 _atom_site_charge
Zn  Zn1  1  0.55379000  0.67773000  0.00000000  1.0 0.8611963871
Zn  Zn2  1  0.44621000  0.32227000  0.00000000  1.0 0.8611963871
Zn  Zn3  1  0.44621000  0.67773000  0.00000000  1.0 0.8611963871
Zn  Zn4  1  0.55379000  0.32227000  0.00000000  1.0 0.8611963871
Zn  Zn5  1  0.00000000  0.55379000  0.67773000  1.0 0.8611963871
Zn  Zn6  1  0.00000000  0.44621000  0.32227000  1.0 0.8611963871
Zn  Zn7  1  0.00000000  0.44621000  0.67773000  1.0 0.8611963871
Zn  Zn8  1  0.00000000  0.55379000  0.32227000  1.0 0.8611963871
Zn  Zn9  1  0.67773000  0.00000000  0.55379000  1.0 0.8611963871
Zn  Zn10  1  0.32227000  0.00000000  0.44621000  1.0 0.8611963871
Zn  Zn11  1  0.67773000  0.00000000  0.44621000  1.0 0.8611963871
Zn  Zn12  1  0.32227000  0.00000000  0.55379000  1.0 0.8611963871
Zn  Zn13  1  0.50000000  0.75165000  0.05281000  1.0 0.9693017486
Zn  Zn14  1  0.50000000  0.24835000  0.05281000  1.0 0.9693017486
Zn  Zn15  1  0.50000000  0.75165000  0.94719000  1.0 0.9693017486
Zn  Zn16  1  0.50000000  0.24835000  0.94719000  1.0 0.9693017486
Zn  Zn17  1  0.05281000  0.50000000  0.75165000  1.0 0.9693017486
Zn  Zn18  1  0.05281000  0.50000000  0.24835000  1.0 0.9693017486
Zn  Zn19  1  0.94719000  0.50000000  0.75165000  1.0 0.9693017486
Zn  Zn20  1  0.94719000  0.50000000  0.24835000  1.0 0.9693017486
Zn  Zn21  1  0.75165000  0.05281000  0.50000000  1.0 0.9693017486
Zn  Zn22  1  0.24835000  0.05281000  0.50000000  1.0 0.9693017486
Zn  Zn23  1  0.75165000  0.94719000  0.50000000  1.0 0.9693017486
Zn  Zn24  1  0.24835000  0.94719000  0.50000000  1.0 0.9693017486
H  H1  1  0.59852000  0.76820000  0.15088000  1.0 0.130161393
H  H2  1  0.71655000  0.66522000  0.14250000  1.0 0.1102231042
H  H3  1  0.65801000  0.66209000  0.09040000  1.0 0.1102231042
H  H4  1  0.63588000  0.83030000  0.17961000  1.0 0.0983118109
H  H5  1  0.66170000  0.85015000  0.22199000  1.0 0.0908029036
H  H6  1  0.62234000  0.79930000  0.27234000  1.0 0.0983118109
H  H7  1  0.59490000  0.78233000  0.22974000  1.0 0.0983118109
H  H8  1  0.64160000  0.72243000  0.28811000  1.0 0.0908029036
H  H9  1  0.60944000  0.70753000  0.24810000  1.0 0.0983118109
H  H10  1  0.57930000  0.74915000  0.32901000  1.0 0.0983118109
H  H11  1  0.54674000  0.73607000  0.28870000  1.0 0.0983118109
H  H12  1  0.73029000  0.84325000  0.18721000  1.0 0.0908029036
H  H13  1  0.70972000  0.81341000  0.14793000  1.0 0.0983118109
H  H14  1  0.67527000  0.90044000  0.15102000  1.0 0.0908029036
H  H15  1  0.68906000  0.87174000  0.10810000  1.0 0.0908029036
H  H16  1  0.74704000  0.92629000  0.16090000  1.0 0.0983118109
H  H17  1  0.76717000  0.89021000  0.12701000  1.0 0.0908029036
H  H18  1  0.72281000  0.93305000  0.06934000  1.0 0.0908029036
H  H19  1  0.72441000  0.97225000  0.10563000  1.0 0.070625861
H  H20  1  0.78273000  0.96973000  0.04439000  1.0 0.0908029036
H  H21  1  0.80870000  0.93715000  0.07817000  1.0 0.1195246312
H  H22  1  0.79561000  0.98683000  0.09357000  1.0 0.0784114938
H  H23  1  0.59356000  0.66301000  0.32352000  1.0 0.0983118109
H  H24  1  0.54216000  0.66567000  0.30915000  1.0 0.0983118109
H  H25  1  0.40148000  0.23180000  0.15088000  1.0 0.130161393
H  H26  1  0.28345000  0.33478000  0.14250000  1.0 0.1102231042
H  H27  1  0.34199000  0.33791000  0.09040000  1.0 0.1102231042
H  H28  1  0.36412000  0.16970000  0.17961000  1.0 0.0983118109
H  H29  1  0.33830000  0.14985000  0.22199000  1.0 0.0908029036
H  H30  1  0.37766000  0.20070000  0.27234000  1.0 0.0983118109
H  H31  1  0.40510000  0.21767000  0.22974000  1.0 0.0983118109
H  H32  1  0.35840000  0.27757000  0.28811000  1.0 0.0908029036
H  H33  1  0.39056000  0.29247000  0.24810000  1.0 0.0983118109
H  H34  1  0.42070000  0.25085000  0.32901000  1.0 0.0983118109
H  H35  1  0.45326000  0.26393000  0.28870000  1.0 0.0983118109
H  H36  1  0.26971000  0.15675000  0.18721000  1.0 0.0908029036
H  H37  1  0.29028000  0.18659000  0.14793000  1.0 0.0983118109
H  H38  1  0.32473000  0.09956000  0.15102000  1.0 0.0908029036
H  H39  1  0.31094000  0.12826000  0.10810000  1.0 0.0908029036
H  H40  1  0.25296000  0.07371000  0.16090000  1.0 0.0983118109
H  H41  1  0.23283000  0.10979000  0.12701000  1.0 0.0983118109
H  H42  1  0.27719000  0.06695000  0.06934000  1.0 0.0908029036
H  H43  1  0.27559000  0.02775000  0.10563000  1.0 0.070625861
H  H44  1  0.21727000  0.03027000  0.04439000  1.0 0.0908029036
H  H45  1  0.19130000  0.06285000  0.07817000  1.0 0.1102231042
H  H46  1  0.20439000  0.01317000  0.09357000  1.0 0.070625861
H  H47  1  0.40644000  0.33699000  0.32352000  1.0 0.0983118109
H  H48  1  0.45784000  0.33433000  0.30915000  1.0 0.0983118109
H  H49  1  0.40148000  0.76820000  0.84912000  1.0 0.130161393
H  H50  1  0.28345000  0.66522000  0.85750000  1.0 0.1102231042
H  H51  1  0.34199000  0.66209000  0.90960000  1.0 0.1102231042
H  H52  1  0.36412000  0.83030000  0.82039000  1.0 0.0983118109
H  H53  1  0.33830000  0.85015000  0.77801000  1.0 0.0908029036
H  H54  1  0.37766000  0.79930000  0.72766000  1.0 0.0983118109
H  H55  1  0.40510000  0.78233000  0.77026000  1.0 0.0983118109
H  H56  1  0.35840000  0.72243000  0.71189000  1.0 0.0908029036
H  H57  1  0.39056000  0.70753000  0.75190000  1.0 0.0983118109
H  H58  1  0.42070000  0.74915000  0.67099000  1.0 0.0983118109
H  H59  1  0.45326000  0.73607000  0.71130000  1.0 0.0983118109
H  H60  1  0.26971000  0.84325000  0.81279000  1.0 0.0908029036
H  H61  1  0.29028000  0.81341000  0.85207000  1.0 0.0908029036
H  H62  1  0.32473000  0.90044000  0.84898000  1.0 0.0908029036
H  H63  1  0.31094000  0.87174000  0.89190000  1.0 0.0908029036
H  H64  1  0.25296000  0.92629000  0.83910000  1.0 0.0983118109
H  H65  1  0.23283000  0.89021000  0.87299000  1.0 0.0983118109
H  H66  1  0.27719000  0.93305000  0.93066000  1.0 0.0908029036
H  H67  1  0.27559000  0.97225000  0.89437000  1.0 0.070625861
H  H68  1  0.21727000  0.96973000  0.95561000  1.0 0.0908029036
H  H69  1  0.19130000  0.93715000  0.92183000  1.0 0.1195246312
H  H70  1  0.20439000  0.98683000  0.90643000  1.0 0.0784114938
H  H71  1  0.40644000  0.66301000  0.67648000  1.0 0.0983118109
H  H72  1  0.45784000  0.66567000  0.69085000  1.0 0.0983118109
H  H73  1  0.59852000  0.23180000  0.84912000  1.0 0.130161393
H  H74  1  0.71655000  0.33478000  0.85750000  1.0 0.1102231042
H  H75  1  0.65801000  0.33791000  0.90960000  1.0 0.1102231042
H  H76  1  0.63588000  0.16970000  0.82039000  1.0 0.0983118109
H  H77  1  0.66170000  0.14985000  0.77801000  1.0 0.0908029036
H  H78  1  0.62234000  0.20070000  0.72766000  1.0 0.0983118109
H  H79  1  0.59490000  0.21767000  0.77026000  1.0 0.0983118109
H  H80  1  0.64160000  0.27757000  0.71189000  1.0 0.0908029036
H  H81  1  0.60944000  0.29247000  0.75190000  1.0 0.0983118109
H  H82  1  0.57930000  0.25085000  0.67099000  1.0 0.0983118109
H  H83  1  0.54674000  0.26393000  0.71130000  1.0 0.0983118109
H  H84  1  0.73029000  0.15675000  0.81279000  1.0 0.0908029036
H  H85  1  0.70972000  0.18659000  0.85207000  1.0 0.0983118109
H  H86  1  0.67527000  0.09956000  0.84898000  1.0 0.0908029036
H  H87  1  0.68906000  0.12826000  0.89190000  1.0 0.0908029036
H  H88  1  0.74704000  0.07371000  0.83910000  1.0 0.0983118109
H  H89  1  0.76717000  0.10979000  0.87299000  1.0 0.0908029036
H  H90  1  0.72281000  0.06695000  0.93066000  1.0 0.0908029036
H  H91  1  0.72441000  0.02775000  0.89437000  1.0 0.070625861
H  H92  1  0.78273000  0.03027000  0.95561000  1.0 0.0908029036
H  H93  1  0.80870000  0.06285000  0.92183000  1.0 0.1195246312
H  H94  1  0.79561000  0.01317000  0.90643000  1.0 0.070625861
H  H95  1  0.59356000  0.33699000  0.67648000  1.0 0.0983118109
H  H96  1  0.54216000  0.33433000  0.69085000  1.0 0.0983118109
H  H97  1  0.15088000  0.59852000  0.76820000  1.0 0.130161393
H  H98  1  0.14250000  0.71655000  0.66522000  1.0 0.1102231042
H  H99  1  0.09040000  0.65801000  0.66209000  1.0 0.1102231042
H  H100  1  0.17961000  0.63588000  0.83030000  1.0 0.0983118109
H  H101  1  0.22199000  0.66170000  0.85015000  1.0 0.0908029036
H  H102  1  0.27234000  0.62234000  0.79930000  1.0 0.0983118109
H  H103  1  0.22974000  0.59490000  0.78233000  1.0 0.0983118109
H  H104  1  0.28811000  0.64160000  0.72243000  1.0 0.0908029036
H  H105  1  0.24810000  0.60944000  0.70753000  1.0 0.0983118109
H  H106  1  0.32901000  0.57930000  0.74915000  1.0 0.0983118109
H  H107  1  0.28870000  0.54674000  0.73607000  1.0 0.0983118109
H  H108  1  0.18721000  0.73029000  0.84325000  1.0 0.0908029036
H  H109  1  0.14793000  0.70972000  0.81341000  1.0 0.0983118109
H  H110  1  0.15102000  0.67527000  0.90044000  1.0 0.0908029036
H  H111  1  0.10810000  0.68906000  0.87174000  1.0 0.0908029036
H  H112  1  0.16090000  0.74704000  0.92629000  1.0 0.0983118109
H  H113  1  0.12701000  0.76717000  0.89021000  1.0 0.0908029036
H  H114  1  0.06934000  0.72281000  0.93305000  1.0 0.0908029036
H  H115  1  0.10563000  0.72441000  0.97225000  1.0 0.070625861
H  H116  1  0.04439000  0.78273000  0.96973000  1.0 0.0908029036
H  H117  1  0.07817000  0.80870000  0.93715000  1.0 0.1195246312
H  H118  1  0.09357000  0.79561000  0.98683000  1.0 0.0784114938
H  H119  1  0.32352000  0.59356000  0.66301000  1.0 0.0983118109
H  H120  1  0.30915000  0.54216000  0.66567000  1.0 0.0983118109
H  H121  1  0.15088000  0.40148000  0.23180000  1.0 0.130161393
H  H122  1  0.14250000  0.28345000  0.33478000  1.0 0.1102231042
H  H123  1  0.09040000  0.34199000  0.33791000  1.0 0.1102231042
H  H124  1  0.17961000  0.36412000  0.16970000  1.0 0.0983118109
H  H125  1  0.22199000  0.33830000  0.14985000  1.0 0.0908029036
H  H126  1  0.27234000  0.37766000  0.20070000  1.0 0.0983118109
H  H127  1  0.22974000  0.40510000  0.21767000  1.0 0.0983118109
H  H128  1  0.28811000  0.35840000  0.27757000  1.0 0.0908029036
H  H129  1  0.24810000  0.39056000  0.29247000  1.0 0.0983118109
H  H130  1  0.32901000  0.42070000  0.25085000  1.0 0.0983118109
H  H131  1  0.28870000  0.45326000  0.26393000  1.0 0.0983118109
H  H132  1  0.18721000  0.26971000  0.15675000  1.0 0.0908029036
H  H133  1  0.14793000  0.29028000  0.18659000  1.0 0.0983118109
H  H134  1  0.15102000  0.32473000  0.09956000  1.0 0.0908029036
H  H135  1  0.10810000  0.31094000  0.12826000  1.0 0.0908029036
H  H136  1  0.16090000  0.25296000  0.07371000  1.0 0.0983118109
H  H137  1  0.12701000  0.23283000  0.10979000  1.0 0.0983118109
H  H138  1  0.06934000  0.27719000  0.06695000  1.0 0.0908029036
H  H139  1  0.10563000  0.27559000  0.02775000  1.0 0.070625861
H  H140  1  0.04439000  0.21727000  0.03027000  1.0 0.0908029036
H  H141  1  0.07817000  0.19130000  0.06285000  1.0 0.1102231042
H  H142  1  0.09357000  0.20439000  0.01317000  1.0 0.0784114938
H  H143  1  0.32352000  0.40644000  0.33699000  1.0 0.0983118109
H  H144  1  0.30915000  0.45784000  0.33433000  1.0 0.0983118109
H  H145  1  0.84912000  0.40148000  0.76820000  1.0 0.130161393
H  H146  1  0.85750000  0.28345000  0.66522000  1.0 0.1102231042
H  H147  1  0.90960000  0.34199000  0.66209000  1.0 0.1102231042
H  H148  1  0.82039000  0.36412000  0.83030000  1.0 0.0983118109
H  H149  1  0.77801000  0.33830000  0.85015000  1.0 0.0908029036
H  H150  1  0.72766000  0.37766000  0.79930000  1.0 0.0983118109
H  H151  1  0.77026000  0.40510000  0.78233000  1.0 0.0983118109
H  H152  1  0.71189000  0.35840000  0.72243000  1.0 0.0908029036
H  H153  1  0.75190000  0.39056000  0.70753000  1.0 0.0983118109
H  H154  1  0.67099000  0.42070000  0.74915000  1.0 0.0983118109
H  H155  1  0.71130000  0.45326000  0.73607000  1.0 0.0983118109
H  H156  1  0.81279000  0.26971000  0.84325000  1.0 0.0908029036
H  H157  1  0.85207000  0.29028000  0.81341000  1.0 0.0983118109
H  H158  1  0.84898000  0.32473000  0.90044000  1.0 0.0908029036
H  H159  1  0.89190000  0.31094000  0.87174000  1.0 0.0908029036
H  H160  1  0.83910000  0.25296000  0.92629000  1.0 0.0983118109
H  H161  1  0.87299000  0.23283000  0.89021000  1.0 0.0983118109
H  H162  1  0.93066000  0.27719000  0.93305000  1.0 0.0908029036
H  H163  1  0.89437000  0.27559000  0.97225000  1.0 0.070625861
H  H164  1  0.95561000  0.21727000  0.96973000  1.0 0.0908029036
H  H165  1  0.92183000  0.19130000  0.93715000  1.0 0.1195246312
H  H166  1  0.90643000  0.20439000  0.98683000  1.0 0.0784114938
H  H167  1  0.67648000  0.40644000  0.66301000  1.0 0.0983118109
H  H168  1  0.69085000  0.45784000  0.66567000  1.0 0.0983118109
H  H169  1  0.84912000  0.59852000  0.23180000  1.0 0.130161393
H  H170  1  0.85750000  0.71655000  0.33478000  1.0 0.1102231042
H  H171  1  0.90960000  0.65801000  0.33791000  1.0 0.1102231042
H  H172  1  0.82039000  0.63588000  0.16970000  1.0 0.0983118109
H  H173  1  0.77801000  0.66170000  0.14985000  1.0 0.0908029036
H  H174  1  0.72766000  0.62234000  0.20070000  1.0 0.0983118109
H  H175  1  0.77026000  0.59490000  0.21767000  1.0 0.0983118109
H  H176  1  0.71189000  0.64160000  0.27757000  1.0 0.0908029036
H  H177  1  0.75190000  0.60944000  0.29247000  1.0 0.0983118109
H  H178  1  0.67099000  0.57930000  0.25085000  1.0 0.0983118109
H  H179  1  0.71130000  0.54674000  0.26393000  1.0 0.0983118109
H  H180  1  0.81279000  0.73029000  0.15675000  1.0 0.0908029036
H  H181  1  0.85207000  0.70972000  0.18659000  1.0 0.0983118109
H  H182  1  0.84898000  0.67527000  0.09956000  1.0 0.0908029036
H  H183  1  0.89190000  0.68906000  0.12826000  1.0 0.0908029036
H  H184  1  0.83910000  0.74704000  0.07371000  1.0 0.0983118109
H  H185  1  0.87299000  0.76717000  0.10979000  1.0 0.0908029036
H  H186  1  0.93066000  0.72281000  0.06695000  1.0 0.0908029036
H  H187  1  0.89437000  0.72441000  0.02775000  1.0 0.070625861
H  H188  1  0.95561000  0.78273000  0.03027000  1.0 0.0908029036
H  H189  1  0.92183000  0.80870000  0.06285000  1.0 0.1195246312
H  H190  1  0.90643000  0.79561000  0.01317000  1.0 0.0784114938
H  H191  1  0.67648000  0.59356000  0.33699000  1.0 0.0983118109
H  H192  1  0.69085000  0.54216000  0.33433000  1.0 0.0983118109
H  H193  1  0.76820000  0.15088000  0.59852000  1.0 0.130161393
H  H194  1  0.66522000  0.14250000  0.71655000  1.0 0.1102231042
H  H195  1  0.66209000  0.09040000  0.65801000  1.0 0.1102231042
H  H196  1  0.83030000  0.17961000  0.63588000  1.0 0.0983118109
H  H197  1  0.85015000  0.22199000  0.66170000  1.0 0.0908029036
H  H198  1  0.79930000  0.27234000  0.62234000  1.0 0.0983118109
H  H199  1  0.78233000  0.22974000  0.59490000  1.0 0.0983118109
H  H200  1  0.72243000  0.28811000  0.64160000  1.0 0.0908029036
H  H201  1  0.70753000  0.24810000  0.60944000  1.0 0.0983118109
H  H202  1  0.74915000  0.32901000  0.57930000  1.0 0.0983118109
H  H203  1  0.73607000  0.28870000  0.54674000  1.0 0.0983118109
H  H204  1  0.84325000  0.18721000  0.73029000  1.0 0.0908029036
H  H205  1  0.81341000  0.14793000  0.70972000  1.0 0.0983118109
H  H206  1  0.90044000  0.15102000  0.67527000  1.0 0.0908029036
H  H207  1  0.87174000  0.10810000  0.68906000  1.0 0.0908029036
H  H208  1  0.92629000  0.16090000  0.74704000  1.0 0.0983118109
H  H209  1  0.89021000  0.12701000  0.76717000  1.0 0.0908029036
H  H210  1  0.93305000  0.06934000  0.72281000  1.0 0.0908029036
H  H211  1  0.97225000  0.10563000  0.72441000  1.0 0.070625861
H  H212  1  0.96973000  0.04439000  0.78273000  1.0 0.0908029036
H  H213  1  0.93715000  0.07817000  0.80870000  1.0 0.1195246312
H  H214  1  0.98683000  0.09357000  0.79561000  1.0 0.0784114938
H  H215  1  0.66301000  0.32352000  0.59356000  1.0 0.0983118109
H  H216  1  0.66567000  0.30915000  0.54216000  1.0 0.0983118109
H  H217  1  0.23180000  0.15088000  0.40148000  1.0 0.130161393
H  H218  1  0.33478000  0.14250000  0.28345000  1.0 0.1102231042
H  H219  1  0.33791000  0.09040000  0.34199000  1.0 0.1102231042
H  H220  1  0.16970000  0.17961000  0.36412000  1.0 0.0983118109
H  H221  1  0.14985000  0.22199000  0.33830000  1.0 0.0908029036
H  H222  1  0.20070000  0.27234000  0.37766000  1.0 0.0983118109
H  H223  1  0.21767000  0.22974000  0.40510000  1.0 0.0983118109
H  H224  1  0.27757000  0.28811000  0.35840000  1.0 0.0908029036
H  H225  1  0.29247000  0.24810000  0.39056000  1.0 0.0983118109
H  H226  1  0.25085000  0.32901000  0.42070000  1.0 0.0983118109
H  H227  1  0.26393000  0.28870000  0.45326000  1.0 0.0983118109
H  H228  1  0.15675000  0.18721000  0.26971000  1.0 0.0908029036
H  H229  1  0.18659000  0.14793000  0.29028000  1.0 0.0983118109
H  H230  1  0.09956000  0.15102000  0.32473000  1.0 0.0908029036
H  H231  1  0.12826000  0.10810000  0.31094000  1.0 0.0908029036
H  H232  1  0.07371000  0.16090000  0.25296000  1.0 0.0983118109
H  H233  1  0.10979000  0.12701000  0.23283000  1.0 0.0983118109
H  H234  1  0.06695000  0.06934000  0.27719000  1.0 0.0908029036
H  H235  1  0.02775000  0.10563000  0.27559000  1.0 0.070625861
H  H236  1  0.03027000  0.04439000  0.21727000  1.0 0.0908029036
H  H237  1  0.06285000  0.07817000  0.19130000  1.0 0.1102231042
H  H238  1  0.01317000  0.09357000  0.20439000  1.0 0.070625861
H  H239  1  0.33699000  0.32352000  0.40644000  1.0 0.0983118109
H  H240  1  0.33433000  0.30915000  0.45784000  1.0 0.0983118109
H  H241  1  0.76820000  0.84912000  0.40148000  1.0 0.130161393
H  H242  1  0.66522000  0.85750000  0.28345000  1.0 0.1102231042
H  H243  1  0.66209000  0.90960000  0.34199000  1.0 0.1102231042
H  H244  1  0.83030000  0.82039000  0.36412000  1.0 0.0983118109
H  H245  1  0.85015000  0.77801000  0.33830000  1.0 0.0908029036
H  H246  1  0.79930000  0.72766000  0.37766000  1.0 0.0983118109
H  H247  1  0.78233000  0.77026000  0.40510000  1.0 0.0983118109
H  H248  1  0.72243000  0.71189000  0.35840000  1.0 0.0908029036
H  H249  1  0.70753000  0.75190000  0.39056000  1.0 0.0983118109
H  H250  1  0.74915000  0.67099000  0.42070000  1.0 0.0983118109
H  H251  1  0.73607000  0.71130000  0.45326000  1.0 0.0983118109
H  H252  1  0.84325000  0.81279000  0.26971000  1.0 0.0908029036
H  H253  1  0.81341000  0.85207000  0.29028000  1.0 0.0983118109
H  H254  1  0.90044000  0.84898000  0.32473000  1.0 0.0908029036
H  H255  1  0.87174000  0.89190000  0.31094000  1.0 0.0908029036
H  H256  1  0.92629000  0.83910000  0.25296000  1.0 0.0983118109
H  H257  1  0.89021000  0.87299000  0.23283000  1.0 0.0983118109
H  H258  1  0.93305000  0.93066000  0.27719000  1.0 0.0908029036
H  H259  1  0.97225000  0.89437000  0.27559000  1.0 0.070625861
H  H260  1  0.96973000  0.95561000  0.21727000  1.0 0.0908029036
H  H261  1  0.93715000  0.92183000  0.19130000  1.0 0.1195246312
H  H262  1  0.98683000  0.90643000  0.20439000  1.0 0.0784114938
H  H263  1  0.66301000  0.67648000  0.40644000  1.0 0.0983118109
H  H264  1  0.66567000  0.69085000  0.45784000  1.0 0.0983118109
H  H265  1  0.23180000  0.84912000  0.59852000  1.0 0.130161393
H  H266  1  0.33478000  0.85750000  0.71655000  1.0 0.1102231042
H  H267  1  0.33791000  0.90960000  0.65801000  1.0 0.1102231042
H  H268  1  0.16970000  0.82039000  0.63588000  1.0 0.0983118109
H  H269  1  0.14985000  0.77801000  0.66170000  1.0 0.0908029036
H  H270  1  0.20070000  0.72766000  0.62234000  1.0 0.0983118109
H  H271  1  0.21767000  0.77026000  0.59490000  1.0 0.0983118109
H  H272  1  0.27757000  0.71189000  0.64160000  1.0 0.0908029036
H  H273  1  0.29247000  0.75190000  0.60944000  1.0 0.0983118109
H  H274  1  0.25085000  0.67099000  0.57930000  1.0 0.0983118109
H  H275  1  0.26393000  0.71130000  0.54674000  1.0 0.0983118109
H  H276  1  0.15675000  0.81279000  0.73029000  1.0 0.0908029036
H  H277  1  0.18659000  0.85207000  0.70972000  1.0 0.0983118109
H  H278  1  0.09956000  0.84898000  0.67527000  1.0 0.0908029036
H  H279  1  0.12826000  0.89190000  0.68906000  1.0 0.0908029036
H  H280  1  0.07371000  0.83910000  0.74704000  1.0 0.0983118109
H  H281  1  0.10979000  0.87299000  0.76717000  1.0 0.0983118109
H  H282  1  0.06695000  0.93066000  0.72281000  1.0 0.0908029036
H  H283  1  0.02775000  0.89437000  0.72441000  1.0 0.070625861
H  H284  1  0.03027000  0.95561000  0.78273000  1.0 0.0908029036
H  H285  1  0.06285000  0.92183000  0.80870000  1.0 0.1102231042
H  H286  1  0.01317000  0.90643000  0.79561000  1.0 0.0784114938
H  H287  1  0.33699000  0.67648000  0.59356000  1.0 0.0983118109
H  H288  1  0.33433000  0.69085000  0.54216000  1.0 0.0983118109
H  H289  1  0.40148000  0.23180000  0.84912000  1.0 0.130161393
H  H290  1  0.28345000  0.33478000  0.85750000  1.0 0.1102231042
H  H291  1  0.34199000  0.33791000  0.90960000  1.0 0.1102231042
H  H292  1  0.36412000  0.16970000  0.82039000  1.0 0.0983118109
H  H293  1  0.33830000  0.14985000  0.77801000  1.0 0.0908029036
H  H294  1  0.37766000  0.20070000  0.72766000  1.0 0.0983118109
H  H295  1  0.40510000  0.21767000  0.77026000  1.0 0.0983118109
H  H296  1  0.35840000  0.27757000  0.71189000  1.0 0.0908029036
H  H297  1  0.39056000  0.29247000  0.75190000  1.0 0.0983118109
H  H298  1  0.42070000  0.25085000  0.67099000  1.0 0.0983118109
H  H299  1  0.45326000  0.26393000  0.71130000  1.0 0.0983118109
H  H300  1  0.26971000  0.15675000  0.81279000  1.0 0.0908029036
H  H301  1  0.29028000  0.18659000  0.85207000  1.0 0.0983118109
H  H302  1  0.32473000  0.09956000  0.84898000  1.0 0.0908029036
H  H303  1  0.31094000  0.12826000  0.89190000  1.0 0.0908029036
H  H304  1  0.25296000  0.07371000  0.83910000  1.0 0.0983118109
H  H305  1  0.23283000  0.10979000  0.87299000  1.0 0.0983118109
H  H306  1  0.27719000  0.06695000  0.93066000  1.0 0.0908029036
H  H307  1  0.27559000  0.02775000  0.89437000  1.0 0.070625861
H  H308  1  0.21727000  0.03027000  0.95561000  1.0 0.0908029036
H  H309  1  0.19130000  0.06285000  0.92183000  1.0 0.1102231042
H  H310  1  0.20439000  0.01317000  0.90643000  1.0 0.070625861
H  H311  1  0.40644000  0.33699000  0.67648000  1.0 0.0983118109
H  H312  1  0.45784000  0.33433000  0.69085000  1.0 0.0983118109
H  H313  1  0.59852000  0.76820000  0.84912000  1.0 0.130161393
H  H314  1  0.71655000  0.66522000  0.85750000  1.0 0.1102231042
H  H315  1  0.65801000  0.66209000  0.90960000  1.0 0.1102231042
H  H316  1  0.63588000  0.83030000  0.82039000  1.0 0.0983118109
H  H317  1  0.66170000  0.85015000  0.77801000  1.0 0.0908029036
H  H318  1  0.62234000  0.79930000  0.72766000  1.0 0.0983118109
H  H319  1  0.59490000  0.78233000  0.77026000  1.0 0.0983118109
H  H320  1  0.64160000  0.72243000  0.71189000  1.0 0.0908029036
H  H321  1  0.60944000  0.70753000  0.75190000  1.0 0.0983118109
H  H322  1  0.57930000  0.74915000  0.67099000  1.0 0.0983118109
H  H323  1  0.54674000  0.73607000  0.71130000  1.0 0.0983118109
H  H324  1  0.73029000  0.84325000  0.81279000  1.0 0.0908029036
H  H325  1  0.70972000  0.81341000  0.85207000  1.0 0.0983118109
H  H326  1  0.67527000  0.90044000  0.84898000  1.0 0.0908029036
H  H327  1  0.68906000  0.87174000  0.89190000  1.0 0.0908029036
H  H328  1  0.74704000  0.92629000  0.83910000  1.0 0.0983118109
H  H329  1  0.76717000  0.89021000  0.87299000  1.0 0.0908029036
H  H330  1  0.72281000  0.93305000  0.93066000  1.0 0.0908029036
H  H331  1  0.72441000  0.97225000  0.89437000  1.0 0.070625861
H  H332  1  0.78273000  0.96973000  0.95561000  1.0 0.0908029036
H  H333  1  0.80870000  0.93715000  0.92183000  1.0 0.1195246312
H  H334  1  0.79561000  0.98683000  0.90643000  1.0 0.0784114938
H  H335  1  0.59356000  0.66301000  0.67648000  1.0 0.0983118109
H  H336  1  0.54216000  0.66567000  0.69085000  1.0 0.0983118109
H  H337  1  0.59852000  0.23180000  0.15088000  1.0 0.130161393
H  H338  1  0.71655000  0.33478000  0.14250000  1.0 0.1102231042
H  H339  1  0.65801000  0.33791000  0.09040000  1.0 0.1102231042
H  H340  1  0.63588000  0.16970000  0.17961000  1.0 0.0983118109
H  H341  1  0.66170000  0.14985000  0.22199000  1.0 0.0908029036
H  H342  1  0.62234000  0.20070000  0.27234000  1.0 0.0983118109
H  H343  1  0.59490000  0.21767000  0.22974000  1.0 0.0983118109
H  H344  1  0.64160000  0.27757000  0.28811000  1.0 0.0908029036
H  H345  1  0.60944000  0.29247000  0.24810000  1.0 0.0983118109
H  H346  1  0.57930000  0.25085000  0.32901000  1.0 0.0983118109
H  H347  1  0.54674000  0.26393000  0.28870000  1.0 0.0983118109
H  H348  1  0.73029000  0.15675000  0.18721000  1.0 0.0908029036
H  H349  1  0.70972000  0.18659000  0.14793000  1.0 0.0983118109
H  H350  1  0.67527000  0.09956000  0.15102000  1.0 0.0908029036
H  H351  1  0.68906000  0.12826000  0.10810000  1.0 0.0908029036
H  H352  1  0.74704000  0.07371000  0.16090000  1.0 0.0983118109
H  H353  1  0.76717000  0.10979000  0.12701000  1.0 0.0908029036
H  H354  1  0.72281000  0.06695000  0.06934000  1.0 0.0908029036
H  H355  1  0.72441000  0.02775000  0.10563000  1.0 0.070625861
H  H356  1  0.78273000  0.03027000  0.04439000  1.0 0.0908029036
H  H357  1  0.80870000  0.06285000  0.07817000  1.0 0.1195246312
H  H358  1  0.79561000  0.01317000  0.09357000  1.0 0.070625861
H  H359  1  0.59356000  0.33699000  0.32352000  1.0 0.0983118109
H  H360  1  0.54216000  0.33433000  0.30915000  1.0 0.0983118109
H  H361  1  0.40148000  0.76820000  0.15088000  1.0 0.130161393
H  H362  1  0.28345000  0.66522000  0.14250000  1.0 0.1102231042
H  H363  1  0.34199000  0.66209000  0.09040000  1.0 0.1102231042
H  H364  1  0.36412000  0.83030000  0.17961000  1.0 0.0983118109
H  H365  1  0.33830000  0.85015000  0.22199000  1.0 0.0908029036
H  H366  1  0.37766000  0.79930000  0.27234000  1.0 0.0983118109
H  H367  1  0.40510000  0.78233000  0.22974000  1.0 0.0983118109
H  H368  1  0.35840000  0.72243000  0.28811000  1.0 0.0908029036
H  H369  1  0.39056000  0.70753000  0.24810000  1.0 0.0983118109
H  H370  1  0.42070000  0.74915000  0.32901000  1.0 0.0983118109
H  H371  1  0.45326000  0.73607000  0.28870000  1.0 0.0983118109
H  H372  1  0.26971000  0.84325000  0.18721000  1.0 0.0908029036
H  H373  1  0.29028000  0.81341000  0.14793000  1.0 0.0983118109
H  H374  1  0.32473000  0.90044000  0.15102000  1.0 0.0908029036
H  H375  1  0.31094000  0.87174000  0.10810000  1.0 0.0908029036
H  H376  1  0.25296000  0.92629000  0.16090000  1.0 0.0983118109
H  H377  1  0.23283000  0.89021000  0.12701000  1.0 0.0983118109
H  H378  1  0.27719000  0.93305000  0.06934000  1.0 0.0908029036
H  H379  1  0.27559000  0.97225000  0.10563000  1.0 0.070625861
H  H380  1  0.21727000  0.96973000  0.04439000  1.0 0.0908029036
H  H381  1  0.19130000  0.93715000  0.07817000  1.0 0.1195246312
H  H382  1  0.20439000  0.98683000  0.09357000  1.0 0.0784114938
H  H383  1  0.40644000  0.66301000  0.32352000  1.0 0.0983118109
H  H384  1  0.45784000  0.66567000  0.30915000  1.0 0.0983118109
H  H385  1  0.84912000  0.40148000  0.23180000  1.0 0.130161393
H  H386  1  0.85750000  0.28345000  0.33478000  1.0 0.1102231042
H  H387  1  0.90960000  0.34199000  0.33791000  1.0 0.1102231042
H  H388  1  0.82039000  0.36412000  0.16970000  1.0 0.0983118109
H  H389  1  0.77801000  0.33830000  0.14985000  1.0 0.0908029036
H  H390  1  0.72766000  0.37766000  0.20070000  1.0 0.0983118109
H  H391  1  0.77026000  0.40510000  0.21767000  1.0 0.0983118109
H  H392  1  0.71189000  0.35840000  0.27757000  1.0 0.0908029036
H  H393  1  0.75190000  0.39056000  0.29247000  1.0 0.0983118109
H  H394  1  0.67099000  0.42070000  0.25085000  1.0 0.0983118109
H  H395  1  0.71130000  0.45326000  0.26393000  1.0 0.0983118109
H  H396  1  0.81279000  0.26971000  0.15675000  1.0 0.0908029036
H  H397  1  0.85207000  0.29028000  0.18659000  1.0 0.0983118109
H  H398  1  0.84898000  0.32473000  0.09956000  1.0 0.0908029036
H  H399  1  0.89190000  0.31094000  0.12826000  1.0 0.0908029036
H  H400  1  0.83910000  0.25296000  0.07371000  1.0 0.0983118109
H  H401  1  0.87299000  0.23283000  0.10979000  1.0 0.0983118109
H  H402  1  0.93066000  0.27719000  0.06695000  1.0 0.0908029036
H  H403  1  0.89437000  0.27559000  0.02775000  1.0 0.070625861
H  H404  1  0.95561000  0.21727000  0.03027000  1.0 0.0908029036
H  H405  1  0.92183000  0.19130000  0.06285000  1.0 0.1195246312
H  H406  1  0.90643000  0.20439000  0.01317000  1.0 0.0784114938
H  H407  1  0.67648000  0.40644000  0.33699000  1.0 0.0983118109
H  H408  1  0.69085000  0.45784000  0.33433000  1.0 0.0983118109
H  H409  1  0.84912000  0.59852000  0.76820000  1.0 0.130161393
H  H410  1  0.85750000  0.71655000  0.66522000  1.0 0.1102231042
H  H411  1  0.90960000  0.65801000  0.66209000  1.0 0.1102231042
H  H412  1  0.82039000  0.63588000  0.83030000  1.0 0.0983118109
H  H413  1  0.77801000  0.66170000  0.85015000  1.0 0.0908029036
H  H414  1  0.72766000  0.62234000  0.79930000  1.0 0.0983118109
H  H415  1  0.77026000  0.59490000  0.78233000  1.0 0.0983118109
H  H416  1  0.71189000  0.64160000  0.72243000  1.0 0.0908029036
H  H417  1  0.75190000  0.60944000  0.70753000  1.0 0.0983118109
H  H418  1  0.67099000  0.57930000  0.74915000  1.0 0.0983118109
H  H419  1  0.71130000  0.54674000  0.73607000  1.0 0.0983118109
H  H420  1  0.81279000  0.73029000  0.84325000  1.0 0.0908029036
H  H421  1  0.85207000  0.70972000  0.81341000  1.0 0.0983118109
H  H422  1  0.84898000  0.67527000  0.90044000  1.0 0.0908029036
H  H423  1  0.89190000  0.68906000  0.87174000  1.0 0.0908029036
H  H424  1  0.83910000  0.74704000  0.92629000  1.0 0.0983118109
H  H425  1  0.87299000  0.76717000  0.89021000  1.0 0.0908029036
H  H426  1  0.93066000  0.72281000  0.93305000  1.0 0.0908029036
H  H427  1  0.89437000  0.72441000  0.97225000  1.0 0.070625861
H  H428  1  0.95561000  0.78273000  0.96973000  1.0 0.0908029036
H  H429  1  0.92183000  0.80870000  0.93715000  1.0 0.1195246312
H  H430  1  0.90643000  0.79561000  0.98683000  1.0 0.0784114938
H  H431  1  0.67648000  0.59356000  0.66301000  1.0 0.0983118109
H  H432  1  0.69085000  0.54216000  0.66567000  1.0 0.0983118109
H  H433  1  0.15088000  0.59852000  0.23180000  1.0 0.130161393
H  H434  1  0.14250000  0.71655000  0.33478000  1.0 0.1102231042
H  H435  1  0.09040000  0.65801000  0.33791000  1.0 0.1102231042
H  H436  1  0.17961000  0.63588000  0.16970000  1.0 0.0983118109
H  H437  1  0.22199000  0.66170000  0.14985000  1.0 0.0908029036
H  H438  1  0.27234000  0.62234000  0.20070000  1.0 0.0983118109
H  H439  1  0.22974000  0.59490000  0.21767000  1.0 0.0983118109
H  H440  1  0.28811000  0.64160000  0.27757000  1.0 0.0908029036
H  H441  1  0.24810000  0.60944000  0.29247000  1.0 0.0983118109
H  H442  1  0.32901000  0.57930000  0.25085000  1.0 0.0983118109
H  H443  1  0.28870000  0.54674000  0.26393000  1.0 0.0983118109
H  H444  1  0.18721000  0.73029000  0.15675000  1.0 0.0908029036
H  H445  1  0.14793000  0.70972000  0.18659000  1.0 0.0983118109
H  H446  1  0.15102000  0.67527000  0.09956000  1.0 0.0908029036
H  H447  1  0.10810000  0.68906000  0.12826000  1.0 0.0908029036
H  H448  1  0.16090000  0.74704000  0.07371000  1.0 0.0983118109
H  H449  1  0.12701000  0.76717000  0.10979000  1.0 0.0908029036
H  H450  1  0.06934000  0.72281000  0.06695000  1.0 0.0908029036
H  H451  1  0.10563000  0.72441000  0.02775000  1.0 0.070625861
H  H452  1  0.04439000  0.78273000  0.03027000  1.0 0.0908029036
H  H453  1  0.07817000  0.80870000  0.06285000  1.0 0.1102231042
H  H454  1  0.09357000  0.79561000  0.01317000  1.0 0.0784114938
H  H455  1  0.32352000  0.59356000  0.33699000  1.0 0.0983118109
H  H456  1  0.30915000  0.54216000  0.33433000  1.0 0.0983118109
H  H457  1  0.15088000  0.40148000  0.76820000  1.0 0.130161393
H  H458  1  0.14250000  0.28345000  0.66522000  1.0 0.1102231042
H  H459  1  0.09040000  0.34199000  0.66209000  1.0 0.1102231042
H  H460  1  0.17961000  0.36412000  0.83030000  1.0 0.0983118109
H  H461  1  0.22199000  0.33830000  0.85015000  1.0 0.0908029036
H  H462  1  0.27234000  0.37766000  0.79930000  1.0 0.0983118109
H  H463  1  0.22974000  0.40510000  0.78233000  1.0 0.0983118109
H  H464  1  0.28811000  0.35840000  0.72243000  1.0 0.0908029036
H  H465  1  0.24810000  0.39056000  0.70753000  1.0 0.0983118109
H  H466  1  0.32901000  0.42070000  0.74915000  1.0 0.0983118109
H  H467  1  0.28870000  0.45326000  0.73607000  1.0 0.0983118109
H  H468  1  0.18721000  0.26971000  0.84325000  1.0 0.0908029036
H  H469  1  0.14793000  0.29028000  0.81341000  1.0 0.0908029036
H  H470  1  0.15102000  0.32473000  0.90044000  1.0 0.0908029036
H  H471  1  0.10810000  0.31094000  0.87174000  1.0 0.0908029036
H  H472  1  0.16090000  0.25296000  0.92629000  1.0 0.0983118109
H  H473  1  0.12701000  0.23283000  0.89021000  1.0 0.0983118109
H  H474  1  0.06934000  0.27719000  0.93305000  1.0 0.0908029036
H  H475  1  0.10563000  0.27559000  0.97225000  1.0 0.070625861
H  H476  1  0.04439000  0.21727000  0.96973000  1.0 0.0908029036
H  H477  1  0.07817000  0.19130000  0.93715000  1.0 0.1195246312
H  H478  1  0.09357000  0.20439000  0.98683000  1.0 0.0784114938
H  H479  1  0.32352000  0.40644000  0.66301000  1.0 0.0983118109
H  H480  1  0.30915000  0.45784000  0.66567000  1.0 0.0983118109
H  H481  1  0.23180000  0.84912000  0.40148000  1.0 0.130161393
H  H482  1  0.33478000  0.85750000  0.28345000  1.0 0.1102231042
H  H483  1  0.33791000  0.90960000  0.34199000  1.0 0.1102231042
H  H484  1  0.16970000  0.82039000  0.36412000  1.0 0.0983118109
H  H485  1  0.14985000  0.77801000  0.33830000  1.0 0.0908029036
H  H486  1  0.20070000  0.72766000  0.37766000  1.0 0.0983118109
H  H487  1  0.21767000  0.77026000  0.40510000  1.0 0.0983118109
H  H488  1  0.27757000  0.71189000  0.35840000  1.0 0.0908029036
H  H489  1  0.29247000  0.75190000  0.39056000  1.0 0.0983118109
H  H490  1  0.25085000  0.67099000  0.42070000  1.0 0.0983118109
H  H491  1  0.26393000  0.71130000  0.45326000  1.0 0.0983118109
H  H492  1  0.15675000  0.81279000  0.26971000  1.0 0.0908029036
H  H493  1  0.18659000  0.85207000  0.29028000  1.0 0.0908029036
H  H494  1  0.09956000  0.84898000  0.32473000  1.0 0.0908029036
H  H495  1  0.12826000  0.89190000  0.31094000  1.0 0.0908029036
H  H496  1  0.07371000  0.83910000  0.25296000  1.0 0.0983118109
H  H497  1  0.10979000  0.87299000  0.23283000  1.0 0.0983118109
H  H498  1  0.06695000  0.93066000  0.27719000  1.0 0.0908029036
H  H499  1  0.02775000  0.89437000  0.27559000  1.0 0.070625861
H  H500  1  0.03027000  0.95561000  0.21727000  1.0 0.0908029036
H  H501  1  0.06285000  0.92183000  0.19130000  1.0 0.1102231042
H  H502  1  0.01317000  0.90643000  0.20439000  1.0 0.0784114938
H  H503  1  0.33699000  0.67648000  0.40644000  1.0 0.0983118109
H  H504  1  0.33433000  0.69085000  0.45784000  1.0 0.0983118109
H  H505  1  0.76820000  0.84912000  0.59852000  1.0 0.130161393
H  H506  1  0.66522000  0.85750000  0.71655000  1.0 0.1102231042
H  H507  1  0.66209000  0.90960000  0.65801000  1.0 0.1102231042
H  H508  1  0.83030000  0.82039000  0.63588000  1.0 0.0983118109
H  H509  1  0.85015000  0.77801000  0.66170000  1.0 0.0908029036
H  H510  1  0.79930000  0.72766000  0.62234000  1.0 0.0983118109
H  H511  1  0.78233000  0.77026000  0.59490000  1.0 0.0983118109
H  H512  1  0.72243000  0.71189000  0.64160000  1.0 0.0908029036
H  H513  1  0.70753000  0.75190000  0.60944000  1.0 0.0983118109
H  H514  1  0.74915000  0.67099000  0.57930000  1.0 0.0983118109
H  H515  1  0.73607000  0.71130000  0.54674000  1.0 0.0983118109
H  H516  1  0.84325000  0.81279000  0.73029000  1.0 0.0908029036
H  H517  1  0.81341000  0.85207000  0.70972000  1.0 0.0983118109
H  H518  1  0.90044000  0.84898000  0.67527000  1.0 0.0908029036
H  H519  1  0.87174000  0.89190000  0.68906000  1.0 0.0908029036
H  H520  1  0.92629000  0.83910000  0.74704000  1.0 0.0983118109
H  H521  1  0.89021000  0.87299000  0.76717000  1.0 0.0908029036
H  H522  1  0.93305000  0.93066000  0.72281000  1.0 0.0908029036
H  H523  1  0.97225000  0.89437000  0.72441000  1.0 0.070625861
H  H524  1  0.96973000  0.95561000  0.78273000  1.0 0.0908029036
H  H525  1  0.93715000  0.92183000  0.80870000  1.0 0.1195246312
H  H526  1  0.98683000  0.90643000  0.79561000  1.0 0.0784114938
H  H527  1  0.66301000  0.67648000  0.59356000  1.0 0.0983118109
H  H528  1  0.66567000  0.69085000  0.54216000  1.0 0.0983118109
H  H529  1  0.23180000  0.15088000  0.59852000  1.0 0.130161393
H  H530  1  0.33478000  0.14250000  0.71655000  1.0 0.1102231042
H  H531  1  0.33791000  0.09040000  0.65801000  1.0 0.1102231042
H  H532  1  0.16970000  0.17961000  0.63588000  1.0 0.0983118109
H  H533  1  0.14985000  0.22199000  0.66170000  1.0 0.0908029036
H  H534  1  0.20070000  0.27234000  0.62234000  1.0 0.0983118109
H  H535  1  0.21767000  0.22974000  0.59490000  1.0 0.0983118109
H  H536  1  0.27757000  0.28811000  0.64160000  1.0 0.0908029036
H  H537  1  0.29247000  0.24810000  0.60944000  1.0 0.0983118109
H  H538  1  0.25085000  0.32901000  0.57930000  1.0 0.0983118109
H  H539  1  0.26393000  0.28870000  0.54674000  1.0 0.0983118109
H  H540  1  0.15675000  0.18721000  0.73029000  1.0 0.0908029036
H  H541  1  0.18659000  0.14793000  0.70972000  1.0 0.0983118109
H  H542  1  0.09956000  0.15102000  0.67527000  1.0 0.0908029036
H  H543  1  0.12826000  0.10810000  0.68906000  1.0 0.0908029036
H  H544  1  0.07371000  0.16090000  0.74704000  1.0 0.0983118109
H  H545  1  0.10979000  0.12701000  0.76717000  1.0 0.0983118109
H  H546  1  0.06695000  0.06934000  0.72281000  1.0 0.0908029036
H  H547  1  0.02775000  0.10563000  0.72441000  1.0 0.070625861
H  H548  1  0.03027000  0.04439000  0.78273000  1.0 0.0908029036
H  H549  1  0.06285000  0.07817000  0.80870000  1.0 0.1102231042
H  H550  1  0.01317000  0.09357000  0.79561000  1.0 0.070625861
H  H551  1  0.33699000  0.32352000  0.59356000  1.0 0.0983118109
H  H552  1  0.33433000  0.30915000  0.54216000  1.0 0.0983118109
H  H553  1  0.76820000  0.15088000  0.40148000  1.0 0.130161393
H  H554  1  0.66522000  0.14250000  0.28345000  1.0 0.1102231042
H  H555  1  0.66209000  0.09040000  0.34199000  1.0 0.1102231042
H  H556  1  0.83030000  0.17961000  0.36412000  1.0 0.0983118109
H  H557  1  0.85015000  0.22199000  0.33830000  1.0 0.0908029036
H  H558  1  0.79930000  0.27234000  0.37766000  1.0 0.0983118109
H  H559  1  0.78233000  0.22974000  0.40510000  1.0 0.0983118109
H  H560  1  0.72243000  0.28811000  0.35840000  1.0 0.0908029036
H  H561  1  0.70753000  0.24810000  0.39056000  1.0 0.0983118109
H  H562  1  0.74915000  0.32901000  0.42070000  1.0 0.0983118109
H  H563  1  0.73607000  0.28870000  0.45326000  1.0 0.0983118109
H  H564  1  0.84325000  0.18721000  0.26971000  1.0 0.0908029036
H  H565  1  0.81341000  0.14793000  0.29028000  1.0 0.0983118109
H  H566  1  0.90044000  0.15102000  0.32473000  1.0 0.0908029036
H  H567  1  0.87174000  0.10810000  0.31094000  1.0 0.0908029036
H  H568  1  0.92629000  0.16090000  0.25296000  1.0 0.0983118109
H  H569  1  0.89021000  0.12701000  0.23283000  1.0 0.0908029036
H  H570  1  0.93305000  0.06934000  0.27719000  1.0 0.0908029036
H  H571  1  0.97225000  0.10563000  0.27559000  1.0 0.070625861
H  H572  1  0.96973000  0.04439000  0.21727000  1.0 0.0908029036
H  H573  1  0.93715000  0.07817000  0.19130000  1.0 0.1195246312
H  H574  1  0.98683000  0.09357000  0.20439000  1.0 0.0784114938
H  H575  1  0.66301000  0.32352000  0.40644000  1.0 0.0983118109
H  H576  1  0.66567000  0.30915000  0.45784000  1.0 0.0983118109
H  H577  1  0.50000000  0.96759000  0.06913000  1.0 0.0983118109
H  H578  1  0.50000000  0.88990000  0.06732000  1.0 0.1195246312
H  H579  1  0.50000000  0.03241000  0.06913000  1.0 0.0983118109
H  H580  1  0.50000000  0.11010000  0.06732000  1.0 0.1195246312
H  H581  1  0.50000000  0.96759000  0.93087000  1.0 0.0983118109
H  H582  1  0.50000000  0.88990000  0.93268000  1.0 0.1195246312
H  H583  1  0.50000000  0.03241000  0.93087000  1.0 0.0983118109
H  H584  1  0.50000000  0.11010000  0.93268000  1.0 0.1195246312
H  H585  1  0.06913000  0.50000000  0.96759000  1.0 0.0983118109
H  H586  1  0.06732000  0.50000000  0.88990000  1.0 0.1195246312
H  H587  1  0.06913000  0.50000000  0.03241000  1.0 0.0983118109
H  H588  1  0.06732000  0.50000000  0.11010000  1.0 0.1195246312
H  H589  1  0.93087000  0.50000000  0.96759000  1.0 0.0983118109
H  H590  1  0.93268000  0.50000000  0.88990000  1.0 0.1195246312
H  H591  1  0.93087000  0.50000000  0.03241000  1.0 0.0983118109
H  H592  1  0.93268000  0.50000000  0.11010000  1.0 0.1195246312
H  H593  1  0.96759000  0.06913000  0.50000000  1.0 0.0983118109
H  H594  1  0.88990000  0.06732000  0.50000000  1.0 0.1195246312
H  H595  1  0.03241000  0.06913000  0.50000000  1.0 0.0983118109
H  H596  1  0.11010000  0.06732000  0.50000000  1.0 0.1195246312
H  H597  1  0.96759000  0.93087000  0.50000000  1.0 0.0983118109
H  H598  1  0.88990000  0.93268000  0.50000000  1.0 0.1195246312
H  H599  1  0.03241000  0.93087000  0.50000000  1.0 0.0983118109
H  H600  1  0.11010000  0.93268000  0.50000000  1.0 0.1195246312
H  H601  1  0.25157000  0.60888000  0.98434000  0.06 0.070625861
H  H602  1  0.27710000  0.60052000  0.93750000  0.06 0.070625861
H  H603  1  0.28223000  0.53428000  0.96808000  0.06 0.1102231042
H  H604  1  0.28472000  0.55127000  0.01453000  0.06 0.070625861
H  H605  1  0.74843000  0.39112000  0.98434000  0.06 0.070625861
H  H606  1  0.72290000  0.39948000  0.93750000  0.06 0.070625861
H  H607  1  0.71777000  0.46572000  0.96808000  0.06 0.1102231042
H  H608  1  0.71528000  0.44873000  0.01453000  0.06 0.070625861
H  H609  1  0.74843000  0.60888000  0.01566000  0.06 0.070625861
H  H610  1  0.72290000  0.60052000  0.06250000  0.06 0.070625861
H  H611  1  0.71777000  0.53428000  0.03192000  0.06 0.1102231042
H  H612  1  0.71528000  0.55127000  0.98547000  0.06 0.070625861
H  H613  1  0.25157000  0.39112000  0.01566000  0.06 0.070625861
H  H614  1  0.27710000  0.39948000  0.06250000  0.06 0.070625861
H  H615  1  0.28223000  0.46572000  0.03192000  0.06 0.1102231042
H  H616  1  0.28472000  0.44873000  0.98547000  0.06 0.070625861
H  H617  1  0.98434000  0.25157000  0.60888000  0.06 0.070625861
H  H618  1  0.93750000  0.27710000  0.60052000  0.06 0.070625861
H  H619  1  0.96808000  0.28223000  0.53428000  0.06 0.1102231042
H  H620  1  0.01453000  0.28472000  0.55127000  0.06 0.070625861
H  H621  1  0.98434000  0.74843000  0.39112000  0.06 0.070625861
H  H622  1  0.93750000  0.72290000  0.39948000  0.06 0.070625861
H  H623  1  0.96808000  0.71777000  0.46572000  0.06 0.1102231042
H  H624  1  0.01453000  0.71528000  0.44873000  0.06 0.070625861
H  H625  1  0.01566000  0.74843000  0.60888000  0.06 0.070625861
H  H626  1  0.06250000  0.72290000  0.60052000  0.06 0.070625861
H  H627  1  0.03192000  0.71777000  0.53428000  0.06 0.1102231042
H  H628  1  0.98547000  0.71528000  0.55127000  0.06 0.070625861
H  H629  1  0.01566000  0.25157000  0.39112000  0.06 0.070625861
H  H630  1  0.06250000  0.27710000  0.39948000  0.06 0.070625861
H  H631  1  0.03192000  0.28223000  0.46572000  0.06 0.1102231042
H  H632  1  0.98547000  0.28472000  0.44873000  0.06 0.070625861
H  H633  1  0.60888000  0.98434000  0.25157000  0.06 0.070625861
H  H634  1  0.60052000  0.93750000  0.27710000  0.06 0.070625861
H  H635  1  0.53428000  0.96808000  0.28223000  0.06 0.1102231042
H  H636  1  0.55127000  0.01453000  0.28472000  0.06 0.070625861
H  H637  1  0.39112000  0.98434000  0.74843000  0.06 0.070625861
H  H638  1  0.39948000  0.93750000  0.72290000  0.06 0.070625861
H  H639  1  0.46572000  0.96808000  0.71777000  0.06 0.1102231042
H  H640  1  0.44873000  0.01453000  0.71528000  0.06 0.070625861
H  H641  1  0.60888000  0.01566000  0.74843000  0.06 0.070625861
H  H642  1  0.60052000  0.06250000  0.72290000  0.06 0.070625861
H  H643  1  0.53428000  0.03192000  0.71777000  0.06 0.1102231042
H  H644  1  0.55127000  0.98547000  0.71528000  0.06 0.070625861
H  H645  1  0.39112000  0.01566000  0.25157000  0.06 0.070625861
H  H646  1  0.39948000  0.06250000  0.27710000  0.06 0.070625861
H  H647  1  0.46572000  0.03192000  0.28223000  0.06 0.1102231042
H  H648  1  0.44873000  0.98547000  0.28472000  0.06 0.070625861
H  H649  1  0.74843000  0.39112000  0.01566000  0.06 0.070625861
H  H650  1  0.72290000  0.39948000  0.06250000  0.06 0.070625861
H  H651  1  0.71777000  0.46572000  0.03192000  0.06 0.1102231042
H  H652  1  0.71528000  0.44873000  0.98547000  0.06 0.070625861
H  H653  1  0.25157000  0.60888000  0.01566000  0.06 0.070625861
H  H654  1  0.27710000  0.60052000  0.06250000  0.06 0.070625861
H  H655  1  0.28223000  0.53428000  0.03192000  0.06 0.1102231042
H  H656  1  0.28472000  0.55127000  0.98547000  0.06 0.070625861
H  H657  1  0.25157000  0.39112000  0.98434000  0.06 0.070625861
H  H658  1  0.27710000  0.39948000  0.93750000  0.06 0.070625861
H  H659  1  0.28223000  0.46572000  0.96808000  0.06 0.1102231042
H  H660  1  0.28472000  0.44873000  0.01453000  0.06 0.070625861
H  H661  1  0.74843000  0.60888000  0.98434000  0.06 0.070625861
H  H662  1  0.72290000  0.60052000  0.93750000  0.06 0.070625861
H  H663  1  0.71777000  0.53428000  0.96808000  0.06 0.1102231042
H  H664  1  0.71528000  0.55127000  0.01453000  0.06 0.070625861
H  H665  1  0.01566000  0.74843000  0.39112000  0.06 0.070625861
H  H666  1  0.06250000  0.72290000  0.39948000  0.06 0.070625861
H  H667  1  0.03192000  0.71777000  0.46572000  0.06 0.1102231042
H  H668  1  0.98547000  0.71528000  0.44873000  0.06 0.070625861
H  H669  1  0.01566000  0.25157000  0.60888000  0.06 0.070625861
H  H670  1  0.06250000  0.27710000  0.60052000  0.06 0.070625861
H  H671  1  0.03192000  0.28223000  0.53428000  0.06 0.1102231042
H  H672  1  0.98547000  0.28472000  0.55127000  0.06 0.070625861
H  H673  1  0.98434000  0.25157000  0.39112000  0.06 0.070625861
H  H674  1  0.93750000  0.27710000  0.39948000  0.06 0.070625861
H  H675  1  0.96808000  0.28223000  0.46572000  0.06 0.1102231042
H  H676  1  0.01453000  0.28472000  0.44873000  0.06 0.070625861
H  H677  1  0.98434000  0.74843000  0.60888000  0.06 0.070625861
H  H678  1  0.93750000  0.72290000  0.60052000  0.06 0.070625861
H  H679  1  0.96808000  0.71777000  0.53428000  0.06 0.1102231042
H  H680  1  0.01453000  0.71528000  0.55127000  0.06 0.070625861
H  H681  1  0.39112000  0.01566000  0.74843000  0.06 0.070625861
H  H682  1  0.39948000  0.06250000  0.72290000  0.06 0.070625861
H  H683  1  0.46572000  0.03192000  0.71777000  0.06 0.1102231042
H  H684  1  0.44873000  0.98547000  0.71528000  0.06 0.070625861
H  H685  1  0.60888000  0.01566000  0.25157000  0.06 0.070625861
H  H686  1  0.60052000  0.06250000  0.27710000  0.06 0.070625861
H  H687  1  0.53428000  0.03192000  0.28223000  0.06 0.1102231042
H  H688  1  0.55127000  0.98547000  0.28472000  0.06 0.070625861
H  H689  1  0.39112000  0.98434000  0.25157000  0.06 0.070625861
H  H690  1  0.39948000  0.93750000  0.27710000  0.06 0.070625861
H  H691  1  0.46572000  0.96808000  0.28223000  0.06 0.1102231042
H  H692  1  0.44873000  0.01453000  0.28472000  0.06 0.070625861
H  H693  1  0.60888000  0.98434000  0.74843000  0.06 0.070625861
H  H694  1  0.60052000  0.93750000  0.72290000  0.06 0.070625861
H  H695  1  0.53428000  0.96808000  0.71777000  0.06 0.1102231042
H  H696  1  0.55127000  0.01453000  0.71528000  0.06 0.070625861
H  H697  1  0.41905000  0.56491000  0.03247000  0.12 0.135873303
H  H698  1  0.34875000  0.54393000  0.95234000  0.12 0.1523253904
H  H699  1  0.38092000  0.60992000  0.00489000  0.12 0.0784114938
H  H700  1  0.37415000  0.60855000  0.95137000  0.12 0.0538786777
H  H701  1  0.31298000  0.64032000  0.01664000  0.12 0.0577621532
H  H702  1  0.31884000  0.65759000  0.96582000  0.12 0.0908029036
H  H703  1  0.58095000  0.43509000  0.03247000  0.12 0.135873303
H  H704  1  0.65125000  0.45607000  0.95234000  0.12 0.1523253904
H  H705  1  0.61908000  0.39008000  0.00489000  0.12 0.0784114938
H  H706  1  0.62585000  0.39145000  0.95137000  0.12 0.0538786777
H  H707  1  0.68702000  0.35968000  0.01664000  0.12 0.0577621532
H  H708  1  0.68116000  0.34241000  0.96582000  0.12 0.0908029036
H  H709  1  0.58095000  0.56491000  0.96753000  0.12 0.135873303
H  H710  1  0.65125000  0.54393000  0.04766000  0.12 0.1523253904
H  H711  1  0.61908000  0.60992000  0.99511000  0.12 0.0784114938
H  H712  1  0.62585000  0.60855000  0.04863000  0.12 0.0538786777
H  H713  1  0.68702000  0.64032000  0.98336000  0.12 0.0577621532
H  H714  1  0.68116000  0.65759000  0.03418000  0.12 0.0908029036
H  H715  1  0.41905000  0.43509000  0.96753000  0.12 0.135873303
H  H716  1  0.34875000  0.45607000  0.04766000  0.12 0.1523253904
H  H717  1  0.38092000  0.39008000  0.99511000  0.12 0.0784114938
H  H718  1  0.37415000  0.39145000  0.04863000  0.12 0.0538786777
H  H719  1  0.31298000  0.35968000  0.98336000  0.12 0.0577621532
H  H720  1  0.31884000  0.34241000  0.03418000  0.12 0.0908029036
H  H721  1  0.03247000  0.41905000  0.56491000  0.12 0.135873303
H  H722  1  0.95234000  0.34875000  0.54393000  0.12 0.1523253904
H  H723  1  0.00489000  0.38092000  0.60992000  0.12 0.0784114938
H  H724  1  0.95137000  0.37415000  0.60855000  0.12 0.0538786777
H  H725  1  0.01664000  0.31298000  0.64032000  0.12 0.0577621532
H  H726  1  0.96582000  0.31884000  0.65759000  0.12 0.0908029036
H  H727  1  0.03247000  0.58095000  0.43509000  0.12 0.135873303
H  H728  1  0.95234000  0.65125000  0.45607000  0.12 0.1523253904
H  H729  1  0.00489000  0.61908000  0.39008000  0.12 0.0784114938
H  H730  1  0.95137000  0.62585000  0.39145000  0.12 0.0538786777
H  H731  1  0.01664000  0.68702000  0.35968000  0.12 0.0577621532
H  H732  1  0.96582000  0.68116000  0.34241000  0.12 0.0908029036
H  H733  1  0.96753000  0.58095000  0.56491000  0.12 0.135873303
H  H734  1  0.04766000  0.65125000  0.54393000  0.12 0.1523253904
H  H735  1  0.99511000  0.61908000  0.60992000  0.12 0.0784114938
H  H736  1  0.04863000  0.62585000  0.60855000  0.12 0.0538786777
H  H737  1  0.98336000  0.68702000  0.64032000  0.12 0.0577621532
H  H738  1  0.03418000  0.68116000  0.65759000  0.12 0.0908029036
H  H739  1  0.96753000  0.41905000  0.43509000  0.12 0.135873303
H  H740  1  0.04766000  0.34875000  0.45607000  0.12 0.1523253904
H  H741  1  0.99511000  0.38092000  0.39008000  0.12 0.0784114938
H  H742  1  0.04863000  0.37415000  0.39145000  0.12 0.0538786777
H  H743  1  0.98336000  0.31298000  0.35968000  0.12 0.0577621532
H  H744  1  0.03418000  0.31884000  0.34241000  0.12 0.0908029036
H  H745  1  0.56491000  0.03247000  0.41905000  0.12 0.135873303
H  H746  1  0.54393000  0.95234000  0.34875000  0.12 0.1523253904
H  H747  1  0.60992000  0.00489000  0.38092000  0.12 0.0784114938
H  H748  1  0.60855000  0.95137000  0.37415000  0.12 0.0538786777
H  H749  1  0.64032000  0.01664000  0.31298000  0.12 0.0577621532
H  H750  1  0.65759000  0.96582000  0.31884000  0.12 0.0908029036
H  H751  1  0.43509000  0.03247000  0.58095000  0.12 0.135873303
H  H752  1  0.45607000  0.95234000  0.65125000  0.12 0.1523253904
H  H753  1  0.39008000  0.00489000  0.61908000  0.12 0.0784114938
H  H754  1  0.39145000  0.95137000  0.62585000  0.12 0.0538786777
H  H755  1  0.35968000  0.01664000  0.68702000  0.12 0.0577621532
H  H756  1  0.34241000  0.96582000  0.68116000  0.12 0.0908029036
H  H757  1  0.56491000  0.96753000  0.58095000  0.12 0.135873303
H  H758  1  0.54393000  0.04766000  0.65125000  0.12 0.1523253904
H  H759  1  0.60992000  0.99511000  0.61908000  0.12 0.0784114938
H  H760  1  0.60855000  0.04863000  0.62585000  0.12 0.0538786777
H  H761  1  0.64032000  0.98336000  0.68702000  0.12 0.0577621532
H  H762  1  0.65759000  0.03418000  0.68116000  0.12 0.0908029036
H  H763  1  0.43509000  0.96753000  0.41905000  0.12 0.135873303
H  H764  1  0.45607000  0.04766000  0.34875000  0.12 0.1523253904
H  H765  1  0.39008000  0.99511000  0.38092000  0.12 0.0784114938
H  H766  1  0.39145000  0.04863000  0.37415000  0.12 0.0538786777
H  H767  1  0.35968000  0.98336000  0.31298000  0.12 0.0577621532
H  H768  1  0.34241000  0.03418000  0.31884000  0.12 0.0908029036
H  H769  1  0.58095000  0.43509000  0.96753000  0.12 0.135873303
H  H770  1  0.65125000  0.45607000  0.04766000  0.12 0.1523253904
H  H771  1  0.61908000  0.39008000  0.99511000  0.12 0.0784114938
H  H772  1  0.62585000  0.39145000  0.04863000  0.12 0.0538786777
H  H773  1  0.68702000  0.35968000  0.98336000  0.12 0.0577621532
H  H774  1  0.68116000  0.34241000  0.03418000  0.12 0.0908029036
H  H775  1  0.41905000  0.56491000  0.96753000  0.12 0.135873303
H  H776  1  0.34875000  0.54393000  0.04766000  0.12 0.1523253904
H  H777  1  0.38092000  0.60992000  0.99511000  0.12 0.0784114938
H  H778  1  0.37415000  0.60855000  0.04863000  0.12 0.0538786777
H  H779  1  0.31298000  0.64032000  0.98336000  0.12 0.0577621532
H  H780  1  0.31884000  0.65759000  0.03418000  0.12 0.0908029036
H  H781  1  0.41905000  0.43509000  0.03247000  0.12 0.135873303
H  H782  1  0.34875000  0.45607000  0.95234000  0.12 0.1523253904
H  H783  1  0.38092000  0.39008000  0.00489000  0.12 0.0784114938
H  H784  1  0.37415000  0.39145000  0.95137000  0.12 0.0538786777
H  H785  1  0.31298000  0.35968000  0.01664000  0.12 0.0577621532
H  H786  1  0.31884000  0.34241000  0.96582000  0.12 0.0908029036
H  H787  1  0.58095000  0.56491000  0.03247000  0.12 0.135873303
H  H788  1  0.65125000  0.54393000  0.95234000  0.12 0.1523253904
H  H789  1  0.61908000  0.60992000  0.00489000  0.12 0.0784114938
H  H790  1  0.62585000  0.60855000  0.95137000  0.12 0.0538786777
H  H791  1  0.68702000  0.64032000  0.01664000  0.12 0.0577621532
H  H792  1  0.68116000  0.65759000  0.96582000  0.12 0.0908029036
H  H793  1  0.96753000  0.58095000  0.43509000  0.12 0.135873303
H  H794  1  0.04766000  0.65125000  0.45607000  0.12 0.1523253904
H  H795  1  0.99511000  0.61908000  0.39008000  0.12 0.0784114938
H  H796  1  0.04863000  0.62585000  0.39145000  0.12 0.0538786777
H  H797  1  0.98336000  0.68702000  0.35968000  0.12 0.0577621532
H  H798  1  0.03418000  0.68116000  0.34241000  0.12 0.0908029036
H  H799  1  0.96753000  0.41905000  0.56491000  0.12 0.135873303
H  H800  1  0.04766000  0.34875000  0.54393000  0.12 0.1523253904
H  H801  1  0.99511000  0.38092000  0.60992000  0.12 0.0784114938
H  H802  1  0.04863000  0.37415000  0.60855000  0.12 0.0538786777
H  H803  1  0.98336000  0.31298000  0.64032000  0.12 0.0577621532
H  H804  1  0.03418000  0.31884000  0.65759000  0.12 0.0908029036
H  H805  1  0.03247000  0.41905000  0.43509000  0.12 0.135873303
H  H806  1  0.95234000  0.34875000  0.45607000  0.12 0.1523253904
H  H807  1  0.00489000  0.38092000  0.39008000  0.12 0.0784114938
H  H808  1  0.95137000  0.37415000  0.39145000  0.12 0.0538786777
H  H809  1  0.01664000  0.31298000  0.35968000  0.12 0.0577621532
H  H810  1  0.96582000  0.31884000  0.34241000  0.12 0.0908029036
H  H811  1  0.03247000  0.58095000  0.56491000  0.12 0.135873303
H  H812  1  0.95234000  0.65125000  0.54393000  0.12 0.1523253904
H  H813  1  0.00489000  0.61908000  0.60992000  0.12 0.0784114938
H  H814  1  0.95137000  0.62585000  0.60855000  0.12 0.0538786777
H  H815  1  0.01664000  0.68702000  0.64032000  0.12 0.0577621532
H  H816  1  0.96582000  0.68116000  0.65759000  0.12 0.0908029036
H  H817  1  0.43509000  0.96753000  0.58095000  0.12 0.135873303
H  H818  1  0.45607000  0.04766000  0.65125000  0.12 0.1523253904
H  H819  1  0.39008000  0.99511000  0.61908000  0.12 0.0784114938
H  H820  1  0.39145000  0.04863000  0.62585000  0.12 0.0538786777
H  H821  1  0.35968000  0.98336000  0.68702000  0.12 0.0577621532
H  H822  1  0.34241000  0.03418000  0.68116000  0.12 0.0908029036
H  H823  1  0.56491000  0.96753000  0.41905000  0.12 0.135873303
H  H824  1  0.54393000  0.04766000  0.34875000  0.12 0.1523253904
H  H825  1  0.60992000  0.99511000  0.38092000  0.12 0.0784114938
H  H826  1  0.60855000  0.04863000  0.37415000  0.12 0.0538786777
H  H827  1  0.64032000  0.98336000  0.31298000  0.12 0.0577621532
H  H828  1  0.65759000  0.03418000  0.31884000  0.12 0.0908029036
H  H829  1  0.43509000  0.03247000  0.41905000  0.12 0.135873303
H  H830  1  0.45607000  0.95234000  0.34875000  0.12 0.1523253904
H  H831  1  0.39008000  0.00489000  0.38092000  0.12 0.0784114938
H  H832  1  0.39145000  0.95137000  0.37415000  0.12 0.0538786777
H  H833  1  0.35968000  0.01664000  0.31298000  0.12 0.0577621532
H  H834  1  0.34241000  0.96582000  0.31884000  0.12 0.0908029036
H  H835  1  0.56491000  0.03247000  0.58095000  0.12 0.135873303
H  H836  1  0.54393000  0.95234000  0.65125000  0.12 0.1523253904
H  H837  1  0.60992000  0.00489000  0.61908000  0.12 0.0784114938
H  H838  1  0.60855000  0.95137000  0.62585000  0.12 0.0538786777
H  H839  1  0.64032000  0.01664000  0.68702000  0.12 0.0577621532
H  H840  1  0.65759000  0.96582000  0.68116000  0.12 0.0908029036
H  H841  1  0.43316000  0.53772000  0.00000000  0.38 0.130161393
H  H842  1  0.56684000  0.46228000  0.00000000  0.38 0.130161393
H  H843  1  0.56684000  0.53772000  0.00000000  0.38 0.130161393
H  H844  1  0.43316000  0.46228000  0.00000000  0.38 0.130161393
H  H845  1  0.00000000  0.43316000  0.53772000  0.38 0.130161393
H  H846  1  0.00000000  0.56684000  0.46228000  0.38 0.130161393
H  H847  1  0.00000000  0.56684000  0.53772000  0.38 0.130161393
H  H848  1  0.00000000  0.43316000  0.46228000  0.38 0.130161393
H  H849  1  0.53772000  0.00000000  0.43316000  0.38 0.130161393
H  H850  1  0.46228000  0.00000000  0.56684000  0.38 0.130161393
H  H851  1  0.53772000  0.00000000  0.56684000  0.38 0.130161393
H  H852  1  0.46228000  0.00000000  0.43316000  0.38 0.130161393
H  H853  1  0.56792000  0.90131000  0.19792000  0.5 0.0983118109
H  H854  1  0.56812000  0.94707000  0.13376000  0.5 0.1195246312
H  H855  1  0.57782000  0.69147000  0.39413000  0.5 0.0908029036
H  H856  1  0.52757000  0.70304000  0.38010000  0.5 0.070625861
H  H857  1  0.50407000  0.63567000  0.40302000  0.5 0.1523253904
H  H858  1  0.55350000  0.63104000  0.42332000  0.5 0.1102231042
H  H859  1  0.54276000  0.61210000  0.37430000  0.5 0.1102231042
H  H860  1  0.43208000  0.09869000  0.19792000  0.5 0.0983118109
H  H861  1  0.43188000  0.05293000  0.13376000  0.5 0.1195246312
H  H862  1  0.42218000  0.30853000  0.39413000  0.5 0.0908029036
H  H863  1  0.47243000  0.29696000  0.38010000  0.5 0.070625861
H  H864  1  0.49593000  0.36433000  0.40302000  0.5 0.1523253904
H  H865  1  0.44650000  0.36896000  0.42332000  0.5 0.1102231042
H  H866  1  0.45724000  0.38790000  0.37430000  0.5 0.1102231042
H  H867  1  0.43208000  0.90131000  0.80208000  0.5 0.0983118109
H  H868  1  0.43188000  0.94707000  0.86624000  0.5 0.1195246312
H  H869  1  0.42218000  0.69147000  0.60587000  0.5 0.0908029036
H  H870  1  0.47243000  0.70304000  0.61990000  0.5 0.070625861
H  H871  1  0.49593000  0.63567000  0.59698000  0.5 0.1523253904
H  H872  1  0.44650000  0.63104000  0.57668000  0.5 0.1102231042
H  H873  1  0.45724000  0.61210000  0.62570000  0.5 0.1102231042
H  H874  1  0.56792000  0.09869000  0.80208000  0.5 0.0983118109
H  H875  1  0.56812000  0.05293000  0.86624000  0.5 0.1195246312
H  H876  1  0.57782000  0.30853000  0.60587000  0.5 0.0908029036
H  H877  1  0.52757000  0.29696000  0.61990000  0.5 0.070625861
H  H878  1  0.50407000  0.36433000  0.59698000  0.5 0.1523253904
H  H879  1  0.55350000  0.36896000  0.57668000  0.5 0.1102231042
H  H880  1  0.54276000  0.38790000  0.62570000  0.5 0.1102231042
H  H881  1  0.19792000  0.56792000  0.90131000  0.5 0.0983118109
H  H882  1  0.13376000  0.56812000  0.94707000  0.5 0.1195246312
H  H883  1  0.39413000  0.57782000  0.69147000  0.5 0.0908029036
H  H884  1  0.38010000  0.52757000  0.70304000  0.5 0.070625861
H  H885  1  0.40302000  0.50407000  0.63567000  0.5 0.1523253904
H  H886  1  0.42332000  0.55350000  0.63104000  0.5 0.1102231042
H  H887  1  0.37430000  0.54276000  0.61210000  0.5 0.1102231042
H  H888  1  0.19792000  0.43208000  0.09869000  0.5 0.0983118109
H  H889  1  0.13376000  0.43188000  0.05293000  0.5 0.1195246312
H  H890  1  0.39413000  0.42218000  0.30853000  0.5 0.0908029036
H  H891  1  0.38010000  0.47243000  0.29696000  0.5 0.070625861
H  H892  1  0.40302000  0.49593000  0.36433000  0.5 0.1523253904
H  H893  1  0.42332000  0.44650000  0.36896000  0.5 0.1102231042
H  H894  1  0.37430000  0.45724000  0.38790000  0.5 0.1102231042
H  H895  1  0.80208000  0.43208000  0.90131000  0.5 0.0983118109
H  H896  1  0.86624000  0.43188000  0.94707000  0.5 0.1195246312
H  H897  1  0.60587000  0.42218000  0.69147000  0.5 0.0908029036
H  H898  1  0.61990000  0.47243000  0.70304000  0.5 0.070625861
H  H899  1  0.59698000  0.49593000  0.63567000  0.5 0.1523253904
H  H900  1  0.57668000  0.44650000  0.63104000  0.5 0.1102231042
H  H901  1  0.62570000  0.45724000  0.61210000  0.5 0.1102231042
H  H902  1  0.80208000  0.56792000  0.09869000  0.5 0.0983118109
H  H903  1  0.86624000  0.56812000  0.05293000  0.5 0.1195246312
H  H904  1  0.60587000  0.57782000  0.30853000  0.5 0.0908029036
H  H905  1  0.61990000  0.52757000  0.29696000  0.5 0.070625861
H  H906  1  0.59698000  0.50407000  0.36433000  0.5 0.1523253904
H  H907  1  0.57668000  0.55350000  0.36896000  0.5 0.1102231042
H  H908  1  0.62570000  0.54276000  0.38790000  0.5 0.1102231042
H  H909  1  0.90131000  0.19792000  0.56792000  0.5 0.0983118109
H  H910  1  0.94707000  0.13376000  0.56812000  0.5 0.1195246312
H  H911  1  0.69147000  0.39413000  0.57782000  0.5 0.0908029036
H  H912  1  0.70304000  0.38010000  0.52757000  0.5 0.070625861
H  H913  1  0.63567000  0.40302000  0.50407000  0.5 0.1523253904
H  H914  1  0.63104000  0.42332000  0.55350000  0.5 0.1102231042
H  H915  1  0.61210000  0.37430000  0.54276000  0.5 0.1102231042
H  H916  1  0.09869000  0.19792000  0.43208000  0.5 0.0983118109
H  H917  1  0.05293000  0.13376000  0.43188000  0.5 0.1195246312
H  H918  1  0.30853000  0.39413000  0.42218000  0.5 0.0908029036
H  H919  1  0.29696000  0.38010000  0.47243000  0.5 0.070625861
H  H920  1  0.36433000  0.40302000  0.49593000  0.5 0.1523253904
H  H921  1  0.36896000  0.42332000  0.44650000  0.5 0.1102231042
H  H922  1  0.38790000  0.37430000  0.45724000  0.5 0.1102231042
H  H923  1  0.90131000  0.80208000  0.43208000  0.5 0.0983118109
H  H924  1  0.94707000  0.86624000  0.43188000  0.5 0.1195246312
H  H925  1  0.69147000  0.60587000  0.42218000  0.5 0.0908029036
H  H926  1  0.70304000  0.61990000  0.47243000  0.5 0.070625861
H  H927  1  0.63567000  0.59698000  0.49593000  0.5 0.1523253904
H  H928  1  0.63104000  0.57668000  0.44650000  0.5 0.1102231042
H  H929  1  0.61210000  0.62570000  0.45724000  0.5 0.1102231042
H  H930  1  0.09869000  0.80208000  0.56792000  0.5 0.0983118109
H  H931  1  0.05293000  0.86624000  0.56812000  0.5 0.1195246312
H  H932  1  0.30853000  0.60587000  0.57782000  0.5 0.0908029036
H  H933  1  0.29696000  0.61990000  0.52757000  0.5 0.070625861
H  H934  1  0.36433000  0.59698000  0.50407000  0.5 0.1523253904
H  H935  1  0.36896000  0.57668000  0.55350000  0.5 0.1102231042
H  H936  1  0.38790000  0.62570000  0.54276000  0.5 0.1102231042
H  H937  1  0.43208000  0.09869000  0.80208000  0.5 0.0983118109
H  H938  1  0.43188000  0.05293000  0.86624000  0.5 0.1195246312
H  H939  1  0.42218000  0.30853000  0.60587000  0.5 0.0908029036
H  H940  1  0.47243000  0.29696000  0.61990000  0.5 0.070625861
H  H941  1  0.49593000  0.36433000  0.59698000  0.5 0.1523253904
H  H942  1  0.44650000  0.36896000  0.57668000  0.5 0.1102231042
H  H943  1  0.45724000  0.38790000  0.62570000  0.5 0.1102231042
H  H944  1  0.56792000  0.90131000  0.80208000  0.5 0.0983118109
H  H945  1  0.56812000  0.94707000  0.86624000  0.5 0.1195246312
H  H946  1  0.57782000  0.69147000  0.60587000  0.5 0.0908029036
H  H947  1  0.52757000  0.70304000  0.61990000  0.5 0.070625861
H  H948  1  0.50407000  0.63567000  0.59698000  0.5 0.1523253904
H  H949  1  0.55350000  0.63104000  0.57668000  0.5 0.1102231042
H  H950  1  0.54276000  0.61210000  0.62570000  0.5 0.1102231042
H  H951  1  0.56792000  0.09869000  0.19792000  0.5 0.0983118109
H  H952  1  0.56812000  0.05293000  0.13376000  0.5 0.1195246312
H  H953  1  0.57782000  0.30853000  0.39413000  0.5 0.0908029036
H  H954  1  0.52757000  0.29696000  0.38010000  0.5 0.070625861
H  H955  1  0.50407000  0.36433000  0.40302000  0.5 0.1523253904
H  H956  1  0.55350000  0.36896000  0.42332000  0.5 0.1102231042
H  H957  1  0.54276000  0.38790000  0.37430000  0.5 0.1102231042
H  H958  1  0.43208000  0.90131000  0.19792000  0.5 0.0983118109
H  H959  1  0.43188000  0.94707000  0.13376000  0.5 0.1195246312
H  H960  1  0.42218000  0.69147000  0.39413000  0.5 0.0908029036
H  H961  1  0.47243000  0.70304000  0.38010000  0.5 0.070625861
H  H962  1  0.49593000  0.63567000  0.40302000  0.5 0.1523253904
H  H963  1  0.44650000  0.63104000  0.42332000  0.5 0.1102231042
H  H964  1  0.45724000  0.61210000  0.37430000  0.5 0.1102231042
H  H965  1  0.80208000  0.43208000  0.09869000  0.5 0.0983118109
H  H966  1  0.86624000  0.43188000  0.05293000  0.5 0.1195246312
H  H967  1  0.60587000  0.42218000  0.30853000  0.5 0.0908029036
H  H968  1  0.61990000  0.47243000  0.29696000  0.5 0.070625861
H  H969  1  0.59698000  0.49593000  0.36433000  0.5 0.1523253904
H  H970  1  0.57668000  0.44650000  0.36896000  0.5 0.1102231042
H  H971  1  0.62570000  0.45724000  0.38790000  0.5 0.1102231042
H  H972  1  0.80208000  0.56792000  0.90131000  0.5 0.0983118109
H  H973  1  0.86624000  0.56812000  0.94707000  0.5 0.1195246312
H  H974  1  0.60587000  0.57782000  0.69147000  0.5 0.0908029036
H  H975  1  0.61990000  0.52757000  0.70304000  0.5 0.070625861
H  H976  1  0.59698000  0.50407000  0.63567000  0.5 0.1523253904
H  H977  1  0.57668000  0.55350000  0.63104000  0.5 0.1102231042
H  H978  1  0.62570000  0.54276000  0.61210000  0.5 0.1102231042
H  H979  1  0.19792000  0.56792000  0.09869000  0.5 0.0983118109
H  H980  1  0.13376000  0.56812000  0.05293000  0.5 0.1195246312
H  H981  1  0.39413000  0.57782000  0.30853000  0.5 0.0908029036
H  H982  1  0.38010000  0.52757000  0.29696000  0.5 0.070625861
H  H983  1  0.40302000  0.50407000  0.36433000  0.5 0.1523253904
H  H984  1  0.42332000  0.55350000  0.36896000  0.5 0.1102231042
H  H985  1  0.37430000  0.54276000  0.38790000  0.5 0.1102231042
H  H986  1  0.19792000  0.43208000  0.90131000  0.5 0.0983118109
H  H987  1  0.13376000  0.43188000  0.94707000  0.5 0.1195246312
H  H988  1  0.39413000  0.42218000  0.69147000  0.5 0.0908029036
H  H989  1  0.38010000  0.47243000  0.70304000  0.5 0.070625861
H  H990  1  0.40302000  0.49593000  0.63567000  0.5 0.1523253904
H  H991  1  0.42332000  0.44650000  0.63104000  0.5 0.1102231042
H  H992  1  0.37430000  0.45724000  0.61210000  0.5 0.1102231042
H  H993  1  0.09869000  0.80208000  0.43208000  0.5 0.0983118109
H  H994  1  0.05293000  0.86624000  0.43188000  0.5 0.1195246312
H  H995  1  0.30853000  0.60587000  0.42218000  0.5 0.0908029036
H  H996  1  0.29696000  0.61990000  0.47243000  0.5 0.070625861
H  H997  1  0.36433000  0.59698000  0.49593000  0.5 0.1523253904
H  H998  1  0.36896000  0.57668000  0.44650000  0.5 0.1102231042
H  H999  1  0.38790000  0.62570000  0.45724000  0.5 0.1102231042
H  H1000  1  0.90131000  0.80208000  0.56792000  0.5 0.0983118109
H  H1001  1  0.94707000  0.86624000  0.56812000  0.5 0.1195246312
H  H1002  1  0.69147000  0.60587000  0.57782000  0.5 0.0908029036
H  H1003  1  0.70304000  0.61990000  0.52757000  0.5 0.070625861
H  H1004  1  0.63567000  0.59698000  0.50407000  0.5 0.1523253904
H  H1005  1  0.63104000  0.57668000  0.55350000  0.5 0.1102231042
H  H1006  1  0.61210000  0.62570000  0.54276000  0.5 0.1102231042
H  H1007  1  0.09869000  0.19792000  0.56792000  0.5 0.0983118109
H  H1008  1  0.05293000  0.13376000  0.56812000  0.5 0.1195246312
H  H1009  1  0.30853000  0.39413000  0.57782000  0.5 0.0908029036
H  H1010  1  0.29696000  0.38010000  0.52757000  0.5 0.070625861
H  H1011  1  0.36433000  0.40302000  0.50407000  0.5 0.1523253904
H  H1012  1  0.36896000  0.42332000  0.55350000  0.5 0.1102231042
H  H1013  1  0.38790000  0.37430000  0.54276000  0.5 0.1102231042
H  H1014  1  0.90131000  0.19792000  0.43208000  0.5 0.0983118109
H  H1015  1  0.94707000  0.13376000  0.43188000  0.5 0.1195246312
H  H1016  1  0.69147000  0.39413000  0.42218000  0.5 0.0908029036
H  H1017  1  0.70304000  0.38010000  0.47243000  0.5 0.070625861
H  H1018  1  0.63567000  0.40302000  0.49593000  0.5 0.1523253904
H  H1019  1  0.63104000  0.42332000  0.44650000  0.5 0.1102231042
H  H1020  1  0.61210000  0.37430000  0.45724000  0.5 0.1102231042
H  H1021  1  0.50000000  0.87854000  0.22984000  0.5 0.0983118109
H  H1022  1  0.50000000  0.12146000  0.22984000  0.5 0.0983118109
H  H1023  1  0.50000000  0.87854000  0.77016000  0.5 0.0983118109
H  H1024  1  0.50000000  0.12146000  0.77016000  0.5 0.0983118109
H  H1025  1  0.22984000  0.50000000  0.87854000  0.5 0.0983118109
H  H1026  1  0.22984000  0.50000000  0.12146000  0.5 0.0983118109
H  H1027  1  0.77016000  0.50000000  0.87854000  0.5 0.0983118109
H  H1028  1  0.77016000  0.50000000  0.12146000  0.5 0.0983118109
H  H1029  1  0.87854000  0.22984000  0.50000000  0.5 0.0983118109
H  H1030  1  0.12146000  0.22984000  0.50000000  0.5 0.0983118109
H  H1031  1  0.87854000  0.77016000  0.50000000  0.5 0.0983118109
H  H1032  1  0.12146000  0.77016000  0.50000000  0.5 0.0983118109
C  C1  1  0.58600000  0.71150000  0.08270000  1.0 0.5625220421
C  C2  1  0.62280000  0.71480000  0.11570000  1.0 -0.0308402409
C  C3  1  0.62250000  0.74730000  0.14920000  1.0 -0.1583923134
C  C4  1  0.65730000  0.74920000  0.18010000  1.0 0.0028797686
C  C5  1  0.69230000  0.71860000  0.17760000  1.0 0.0395437251
C  C6  1  0.69260000  0.68610000  0.14420000  1.0 -0.1713676424
C  C7  1  0.65780000  0.68430000  0.11330000  1.0 -0.1402879871
C  C8  1  0.70590000  0.76520000  0.23890000  1.0 -0.051573734
C  C9  1  0.72320000  0.72450000  0.21980000  1.0 0.0028797686
C  C10  1  0.66358000  0.78077000  0.21963000  1.0 0.0983118109
C  C11  1  0.66349000  0.82750000  0.19780000  1.0 -0.254899737
C  C12  1  0.62131000  0.77595000  0.24879000  1.0 -0.2576490931
C  C13  1  0.61384000  0.73038000  0.27176000  1.0 -0.1791597333
C  C14  1  0.57434000  0.72705000  0.30475000  1.0 -0.1909553932
C  C15  1  0.70370000  0.83934000  0.16775000  1.0 -0.1713676424
C  C16  1  0.69920000  0.88136000  0.13819000  1.0 -0.1791597333
C  C17  1  0.74140000  0.91043000  0.13231000  1.0 -0.1791597333
C  C18  1  0.74054000  0.94548000  0.09448000  1.0 -0.1402879871
C  C19  1  0.78610000  0.96087000  0.07584000  1.0 -0.346645137
C  C20  1  0.56588000  0.68106000  0.32651000  1.0 -0.1909553932
C  C21  1  0.41400000  0.28850000  0.08270000  1.0 0.5625220421
C  C22  1  0.37720000  0.28520000  0.11570000  1.0 -0.0308402409
C  C23  1  0.37750000  0.25270000  0.14920000  1.0 -0.1583923134
C  C24  1  0.34270000  0.25080000  0.18010000  1.0 0.0028797686
C  C25  1  0.30770000  0.28140000  0.17760000  1.0 0.0395437251
C  C26  1  0.30740000  0.31390000  0.14420000  1.0 -0.1713676424
C  C27  1  0.34220000  0.31570000  0.11330000  1.0 -0.1402879871
C  C28  1  0.29410000  0.23480000  0.23890000  1.0 -0.051573734
C  C29  1  0.27680000  0.27550000  0.21980000  1.0 0.0028797686
C  C30  1  0.33642000  0.21923000  0.21963000  1.0 0.0983118109
C  C31  1  0.33651000  0.17250000  0.19780000  1.0 -0.2576490931
C  C32  1  0.37869000  0.22405000  0.24879000  1.0 -0.2576490931
C  C33  1  0.38616000  0.26962000  0.27176000  1.0 -0.1791597333
C  C34  1  0.42566000  0.27295000  0.30475000  1.0 -0.1909553932
C  C35  1  0.29630000  0.16066000  0.16775000  1.0 -0.1713676424
C  C36  1  0.30080000  0.11864000  0.13819000  1.0 -0.1791597333
C  C37  1  0.25860000  0.08957000  0.13231000  1.0 -0.1791597333
C  C38  1  0.25946000  0.05452000  0.09448000  1.0 -0.1402879871
C  C39  1  0.21390000  0.03913000  0.07584000  1.0 -0.346645137
C  C40  1  0.43412000  0.31894000  0.32651000  1.0 -0.1909553932
C  C41  1  0.41400000  0.71150000  0.91730000  1.0 0.5625220421
C  C42  1  0.37720000  0.71480000  0.88430000  1.0 -0.0308402409
C  C43  1  0.37750000  0.74730000  0.85080000  1.0 -0.1583923134
C  C44  1  0.34270000  0.74920000  0.81990000  1.0 0.0028797686
C  C45  1  0.30770000  0.71860000  0.82240000  1.0 0.0395437251
C  C46  1  0.30740000  0.68610000  0.85580000  1.0 -0.1713676424
C  C47  1  0.34220000  0.68430000  0.88670000  1.0 -0.1402879871
C  C48  1  0.29410000  0.76520000  0.76110000  1.0 -0.051573734
C  C49  1  0.27680000  0.72450000  0.78020000  1.0 0.0028797686
C  C50  1  0.33642000  0.78077000  0.78037000  1.0 0.0908029036
C  C51  1  0.33651000  0.82750000  0.80220000  1.0 -0.254899737
C  C52  1  0.37869000  0.77595000  0.75121000  1.0 -0.2576490931
C  C53  1  0.38616000  0.73038000  0.72824000  1.0 -0.1791597333
C  C54  1  0.42566000  0.72705000  0.69525000  1.0 -0.1909553932
C  C55  1  0.29630000  0.83934000  0.83225000  1.0 -0.1713676424
C  C56  1  0.30080000  0.88136000  0.86181000  1.0 -0.1791597333
C  C57  1  0.25860000  0.91043000  0.86769000  1.0 -0.1791597333
C  C58  1  0.25946000  0.94548000  0.90552000  1.0 -0.1402879871
C  C59  1  0.21390000  0.96087000  0.92416000  1.0 -0.346645137
C  C60  1  0.43412000  0.68106000  0.67349000  1.0 -0.1909553932
C  C61  1  0.58600000  0.28850000  0.91730000  1.0 0.5625220421
C  C62  1  0.62280000  0.28520000  0.88430000  1.0 -0.0308402409
C  C63  1  0.62250000  0.25270000  0.85080000  1.0 -0.1583923134
C  C64  1  0.65730000  0.25080000  0.81990000  1.0 0.0028797686
C  C65  1  0.69230000  0.28140000  0.82240000  1.0 0.0395437251
C  C66  1  0.69260000  0.31390000  0.85580000  1.0 -0.1713676424
C  C67  1  0.65780000  0.31570000  0.88670000  1.0 -0.1402879871
C  C68  1  0.70590000  0.23480000  0.76110000  1.0 -0.051573734
C  C69  1  0.72320000  0.27550000  0.78020000  1.0 0.0028797686
C  C70  1  0.66358000  0.21923000  0.78037000  1.0 0.0983118109
C  C71  1  0.66349000  0.17250000  0.80220000  1.0 -0.2576490931
C  C72  1  0.62131000  0.22405000  0.75121000  1.0 -0.2576490931
C  C73  1  0.61384000  0.26962000  0.72824000  1.0 -0.1791597333
C  C74  1  0.57434000  0.27295000  0.69525000  1.0 -0.1909553932
C  C75  1  0.70370000  0.16066000  0.83225000  1.0 -0.1713676424
C  C76  1  0.69920000  0.11864000  0.86181000  1.0 -0.1791597333
C  C77  1  0.74140000  0.08957000  0.86769000  1.0 -0.1791597333
C  C78  1  0.74054000  0.05452000  0.90552000  1.0 -0.1402879871
C  C79  1  0.78610000  0.03913000  0.92416000  1.0 -0.344901782
C  C80  1  0.56588000  0.31894000  0.67349000  1.0 -0.1909553932
C  C81  1  0.08270000  0.58600000  0.71150000  1.0 0.5625220421
C  C82  1  0.11570000  0.62280000  0.71480000  1.0 -0.0308402409
C  C83  1  0.14920000  0.62250000  0.74730000  1.0 -0.1583923134
C  C84  1  0.18010000  0.65730000  0.74920000  1.0 0.0028797686
C  C85  1  0.17760000  0.69230000  0.71860000  1.0 0.0395437251
C  C86  1  0.14420000  0.69260000  0.68610000  1.0 -0.1713676424
C  C87  1  0.11330000  0.65780000  0.68430000  1.0 -0.1402879871
C  C88  1  0.23890000  0.70590000  0.76520000  1.0 -0.051573734
C  C89  1  0.21980000  0.72320000  0.72450000  1.0 0.0028797686
C  C90  1  0.21963000  0.66358000  0.78077000  1.0 0.0983118109
C  C91  1  0.19780000  0.66349000  0.82750000  1.0 -0.2576490931
C  C92  1  0.24879000  0.62131000  0.77595000  1.0 -0.2576490931
C  C93  1  0.27176000  0.61384000  0.73038000  1.0 -0.1791597333
C  C94  1  0.30475000  0.57434000  0.72705000  1.0 -0.1909553932
C  C95  1  0.16775000  0.70370000  0.83934000  1.0 -0.1791597333
C  C96  1  0.13819000  0.69920000  0.88136000  1.0 -0.1791597333
C  C97  1  0.13231000  0.74140000  0.91043000  1.0 -0.1791597333
C  C98  1  0.09448000  0.74054000  0.94548000  1.0 -0.1402879871
C  C99  1  0.07584000  0.78610000  0.96087000  1.0 -0.346645137
C  C100  1  0.32651000  0.56588000  0.68106000  1.0 -0.1909553932
C  C101  1  0.08270000  0.41400000  0.28850000  1.0 0.5625220421
C  C102  1  0.11570000  0.37720000  0.28520000  1.0 -0.0308402409
C  C103  1  0.14920000  0.37750000  0.25270000  1.0 -0.1583923134
C  C104  1  0.18010000  0.34270000  0.25080000  1.0 0.0028797686
C  C105  1  0.17760000  0.30770000  0.28140000  1.0 0.0395437251
C  C106  1  0.14420000  0.30740000  0.31390000  1.0 -0.1713676424
C  C107  1  0.11330000  0.34220000  0.31570000  1.0 -0.1402879871
C  C108  1  0.23890000  0.29410000  0.23480000  1.0 -0.051573734
C  C109  1  0.21980000  0.27680000  0.27550000  1.0 0.0028797686
C  C110  1  0.21963000  0.33642000  0.21923000  1.0 0.0983118109
C  C111  1  0.19780000  0.33651000  0.17250000  1.0 -0.2576490931
C  C112  1  0.24879000  0.37869000  0.22405000  1.0 -0.2576490931
C  C113  1  0.27176000  0.38616000  0.26962000  1.0 -0.1791597333
C  C114  1  0.30475000  0.42566000  0.27295000  1.0 -0.1909553932
C  C115  1  0.16775000  0.29630000  0.16066000  1.0 -0.1713676424
C  C116  1  0.13819000  0.30080000  0.11864000  1.0 -0.1791597333
C  C117  1  0.13231000  0.25860000  0.08957000  1.0 -0.1791597333
C  C118  1  0.09448000  0.25946000  0.05452000  1.0 -0.1402879871
C  C119  1  0.07584000  0.21390000  0.03913000  1.0 -0.346645137
C  C120  1  0.32651000  0.43412000  0.31894000  1.0 -0.1909553932
C  C121  1  0.91730000  0.41400000  0.71150000  1.0 0.5625220421
C  C122  1  0.88430000  0.37720000  0.71480000  1.0 -0.0308402409
C  C123  1  0.85080000  0.37750000  0.74730000  1.0 -0.1583923134
C  C124  1  0.81990000  0.34270000  0.74920000  1.0 0.0028797686
C  C125  1  0.82240000  0.30770000  0.71860000  1.0 0.0395437251
C  C126  1  0.85580000  0.30740000  0.68610000  1.0 -0.1713676424
C  C127  1  0.88670000  0.34220000  0.68430000  1.0 -0.1402879871
C  C128  1  0.76110000  0.29410000  0.76520000  1.0 -0.051573734
C  C129  1  0.78020000  0.27680000  0.72450000  1.0 0.0028797686
C  C130  1  0.78037000  0.33642000  0.78077000  1.0 0.0983118109
C  C131  1  0.80220000  0.33651000  0.82750000  1.0 -0.254899737
C  C132  1  0.75121000  0.37869000  0.77595000  1.0 -0.2576490931
C  C133  1  0.72824000  0.38616000  0.73038000  1.0 -0.1791597333
C  C134  1  0.69525000  0.42566000  0.72705000  1.0 -0.1909553932
C  C135  1  0.83225000  0.29630000  0.83934000  1.0 -0.1713676424
C  C136  1  0.86181000  0.30080000  0.88136000  1.0 -0.1791597333
C  C137  1  0.86769000  0.25860000  0.91043000  1.0 -0.1791597333
C  C138  1  0.90552000  0.25946000  0.94548000  1.0 -0.1402879871
C  C139  1  0.92416000  0.21390000  0.96087000  1.0 -0.346645137
C  C140  1  0.67349000  0.43412000  0.68106000  1.0 -0.1909553932
C  C141  1  0.91730000  0.58600000  0.28850000  1.0 0.5625220421
C  C142  1  0.88430000  0.62280000  0.28520000  1.0 -0.0308402409
C  C143  1  0.85080000  0.62250000  0.25270000  1.0 -0.1583923134
C  C144  1  0.81990000  0.65730000  0.25080000  1.0 0.0028797686
C  C145  1  0.82240000  0.69230000  0.28140000  1.0 0.0395437251
C  C146  1  0.85580000  0.69260000  0.31390000  1.0 -0.1713676424
C  C147  1  0.88670000  0.65780000  0.31570000  1.0 -0.1402879871
C  C148  1  0.76110000  0.70590000  0.23480000  1.0 -0.051573734
C  C149  1  0.78020000  0.72320000  0.27550000  1.0 0.0028797686
C  C150  1  0.78037000  0.66358000  0.21923000  1.0 0.0908029036
C  C151  1  0.80220000  0.66349000  0.17250000  1.0 -0.254899737
C  C152  1  0.75121000  0.62131000  0.22405000  1.0 -0.2576490931
C  C153  1  0.72824000  0.61384000  0.26962000  1.0 -0.1791597333
C  C154  1  0.69525000  0.57434000  0.27295000  1.0 -0.1909553932
C  C155  1  0.83225000  0.70370000  0.16066000  1.0 -0.1713676424
C  C156  1  0.86181000  0.69920000  0.11864000  1.0 -0.1791597333
C  C157  1  0.86769000  0.74140000  0.08957000  1.0 -0.1791597333
C  C158  1  0.90552000  0.74054000  0.05452000  1.0 -0.1402879871
C  C159  1  0.92416000  0.78610000  0.03913000  1.0 -0.346645137
C  C160  1  0.67349000  0.56588000  0.31894000  1.0 -0.1909553932
C  C161  1  0.71150000  0.08270000  0.58600000  1.0 0.5625220421
C  C162  1  0.71480000  0.11570000  0.62280000  1.0 -0.0308402409
C  C163  1  0.74730000  0.14920000  0.62250000  1.0 -0.1583923134
C  C164  1  0.74920000  0.18010000  0.65730000  1.0 0.0028797686
C  C165  1  0.71860000  0.17760000  0.69230000  1.0 0.0395437251
C  C166  1  0.68610000  0.14420000  0.69260000  1.0 -0.1713676424
C  C167  1  0.68430000  0.11330000  0.65780000  1.0 -0.1402879871
C  C168  1  0.76520000  0.23890000  0.70590000  1.0 -0.051573734
C  C169  1  0.72450000  0.21980000  0.72320000  1.0 0.0028797686
C  C170  1  0.78077000  0.21963000  0.66358000  1.0 0.0983118109
C  C171  1  0.82750000  0.19780000  0.66349000  1.0 -0.254899737
C  C172  1  0.77595000  0.24879000  0.62131000  1.0 -0.2576490931
C  C173  1  0.73038000  0.27176000  0.61384000  1.0 -0.1791597333
C  C174  1  0.72705000  0.30475000  0.57434000  1.0 -0.1909553932
C  C175  1  0.83934000  0.16775000  0.70370000  1.0 -0.1713676424
C  C176  1  0.88136000  0.13819000  0.69920000  1.0 -0.1791597333
C  C177  1  0.91043000  0.13231000  0.74140000  1.0 -0.1791597333
C  C178  1  0.94548000  0.09448000  0.74054000  1.0 -0.1402879871
C  C179  1  0.96087000  0.07584000  0.78610000  1.0 -0.346645137
C  C180  1  0.68106000  0.32651000  0.56588000  1.0 -0.1909553932
C  C181  1  0.28850000  0.08270000  0.41400000  1.0 0.5625220421
C  C182  1  0.28520000  0.11570000  0.37720000  1.0 -0.0308402409
C  C183  1  0.25270000  0.14920000  0.37750000  1.0 -0.1583923134
C  C184  1  0.25080000  0.18010000  0.34270000  1.0 0.0028797686
C  C185  1  0.28140000  0.17760000  0.30770000  1.0 0.0395437251
C  C186  1  0.31390000  0.14420000  0.30740000  1.0 -0.1713676424
C  C187  1  0.31570000  0.11330000  0.34220000  1.0 -0.1402879871
C  C188  1  0.23480000  0.23890000  0.29410000  1.0 -0.051573734
C  C189  1  0.27550000  0.21980000  0.27680000  1.0 0.0028797686
C  C190  1  0.21923000  0.21963000  0.33642000  1.0 0.0983118109
C  C191  1  0.17250000  0.19780000  0.33651000  1.0 -0.2576490931
C  C192  1  0.22405000  0.24879000  0.37869000  1.0 -0.2576490931
C  C193  1  0.26962000  0.27176000  0.38616000  1.0 -0.1791597333
C  C194  1  0.27295000  0.30475000  0.42566000  1.0 -0.1909553932
C  C195  1  0.16066000  0.16775000  0.29630000  1.0 -0.1713676424
C  C196  1  0.11864000  0.13819000  0.30080000  1.0 -0.1791597333
C  C197  1  0.08957000  0.13231000  0.25860000  1.0 -0.1791597333
C  C198  1  0.05452000  0.09448000  0.25946000  1.0 -0.1402879871
C  C199  1  0.03913000  0.07584000  0.21390000  1.0 -0.346645137
C  C200  1  0.31894000  0.32651000  0.43412000  1.0 -0.1909553932
C  C201  1  0.71150000  0.91730000  0.41400000  1.0 0.5625220421
C  C202  1  0.71480000  0.88430000  0.37720000  1.0 -0.0308402409
C  C203  1  0.74730000  0.85080000  0.37750000  1.0 -0.1583923134
C  C204  1  0.74920000  0.81990000  0.34270000  1.0 0.0028797686
C  C205  1  0.71860000  0.82240000  0.30770000  1.0 0.0395437251
C  C206  1  0.68610000  0.85580000  0.30740000  1.0 -0.1713676424
C  C207  1  0.68430000  0.88670000  0.34220000  1.0 -0.1402879871
C  C208  1  0.76520000  0.76110000  0.29410000  1.0 -0.051573734
C  C209  1  0.72450000  0.78020000  0.27680000  1.0 0.0028797686
C  C210  1  0.78077000  0.78037000  0.33642000  1.0 0.0908029036
C  C211  1  0.82750000  0.80220000  0.33651000  1.0 -0.254899737
C  C212  1  0.77595000  0.75121000  0.37869000  1.0 -0.2576490931
C  C213  1  0.73038000  0.72824000  0.38616000  1.0 -0.1791597333
C  C214  1  0.72705000  0.69525000  0.42566000  1.0 -0.1909553932
C  C215  1  0.83934000  0.83225000  0.29630000  1.0 -0.1713676424
C  C216  1  0.88136000  0.86181000  0.30080000  1.0 -0.1791597333
C  C217  1  0.91043000  0.86769000  0.25860000  1.0 -0.1791597333
C  C218  1  0.94548000  0.90552000  0.25946000  1.0 -0.1402879871
C  C219  1  0.96087000  0.92416000  0.21390000  1.0 -0.346645137
C  C220  1  0.68106000  0.67349000  0.43412000  1.0 -0.1909553932
C  C221  1  0.28850000  0.91730000  0.58600000  1.0 0.5625220421
C  C222  1  0.28520000  0.88430000  0.62280000  1.0 -0.0308402409
C  C223  1  0.25270000  0.85080000  0.62250000  1.0 -0.1583923134
C  C224  1  0.25080000  0.81990000  0.65730000  1.0 0.0028797686
C  C225  1  0.28140000  0.82240000  0.69230000  1.0 0.0395437251
C  C226  1  0.31390000  0.85580000  0.69260000  1.0 -0.1713676424
C  C227  1  0.31570000  0.88670000  0.65780000  1.0 -0.1402879871
C  C228  1  0.23480000  0.76110000  0.70590000  1.0 -0.051573734
C  C229  1  0.27550000  0.78020000  0.72320000  1.0 0.0028797686
C  C230  1  0.21923000  0.78037000  0.66358000  1.0 0.0908029036
C  C231  1  0.17250000  0.80220000  0.66349000  1.0 -0.2576490931
C  C232  1  0.22405000  0.75121000  0.62131000  1.0 -0.2576490931
C  C233  1  0.26962000  0.72824000  0.61384000  1.0 -0.1791597333
C  C234  1  0.27295000  0.69525000  0.57434000  1.0 -0.1909553932
C  C235  1  0.16066000  0.83225000  0.70370000  1.0 -0.1713676424
C  C236  1  0.11864000  0.86181000  0.69920000  1.0 -0.1791597333
C  C237  1  0.08957000  0.86769000  0.74140000  1.0 -0.1791597333
C  C238  1  0.05452000  0.90552000  0.74054000  1.0 -0.1402879871
C  C239  1  0.03913000  0.92416000  0.78610000  1.0 -0.346645137
C  C240  1  0.31894000  0.67349000  0.56588000  1.0 -0.1909553932
C  C241  1  0.41400000  0.28850000  0.91730000  1.0 0.5625220421
C  C242  1  0.37720000  0.28520000  0.88430000  1.0 -0.0308402409
C  C243  1  0.37750000  0.25270000  0.85080000  1.0 -0.1583923134
C  C244  1  0.34270000  0.25080000  0.81990000  1.0 0.0028797686
C  C245  1  0.30770000  0.28140000  0.82240000  1.0 0.0395437251
C  C246  1  0.30740000  0.31390000  0.85580000  1.0 -0.1713676424
C  C247  1  0.34220000  0.31570000  0.88670000  1.0 -0.1402879871
C  C248  1  0.29410000  0.23480000  0.76110000  1.0 -0.051573734
C  C249  1  0.27680000  0.27550000  0.78020000  1.0 0.0028797686
C  C250  1  0.33642000  0.21923000  0.78037000  1.0 0.0983118109
C  C251  1  0.33651000  0.17250000  0.80220000  1.0 -0.2576490931
C  C252  1  0.37869000  0.22405000  0.75121000  1.0 -0.2576490931
C  C253  1  0.38616000  0.26962000  0.72824000  1.0 -0.1791597333
C  C254  1  0.42566000  0.27295000  0.69525000  1.0 -0.1909553932
C  C255  1  0.29630000  0.16066000  0.83225000  1.0 -0.1713676424
C  C256  1  0.30080000  0.11864000  0.86181000  1.0 -0.1791597333
C  C257  1  0.25860000  0.08957000  0.86769000  1.0 -0.1791597333
C  C258  1  0.25946000  0.05452000  0.90552000  1.0 -0.1402879871
C  C259  1  0.21390000  0.03913000  0.92416000  1.0 -0.344901782
C  C260  1  0.43412000  0.31894000  0.67349000  1.0 -0.1909553932
C  C261  1  0.58600000  0.71150000  0.91730000  1.0 0.5625220421
C  C262  1  0.62280000  0.71480000  0.88430000  1.0 -0.0308402409
C  C263  1  0.62250000  0.74730000  0.85080000  1.0 -0.1583923134
C  C264  1  0.65730000  0.74920000  0.81990000  1.0 0.0028797686
C  C265  1  0.69230000  0.71860000  0.82240000  1.0 0.0395437251
C  C266  1  0.69260000  0.68610000  0.85580000  1.0 -0.1713676424
C  C267  1  0.65780000  0.68430000  0.88670000  1.0 -0.1402879871
C  C268  1  0.70590000  0.76520000  0.76110000  1.0 -0.051573734
C  C269  1  0.72320000  0.72450000  0.78020000  1.0 0.0028797686
C  C270  1  0.66358000  0.78077000  0.78037000  1.0 0.0908029036
C  C271  1  0.66349000  0.82750000  0.80220000  1.0 -0.254899737
C  C272  1  0.62131000  0.77595000  0.75121000  1.0 -0.2576490931
C  C273  1  0.61384000  0.73038000  0.72824000  1.0 -0.1791597333
C  C274  1  0.57434000  0.72705000  0.69525000  1.0 -0.1909553932
C  C275  1  0.70370000  0.83934000  0.83225000  1.0 -0.1713676424
C  C276  1  0.69920000  0.88136000  0.86181000  1.0 -0.1791597333
C  C277  1  0.74140000  0.91043000  0.86769000  1.0 -0.1791597333
C  C278  1  0.74054000  0.94548000  0.90552000  1.0 -0.1402879871
C  C279  1  0.78610000  0.96087000  0.92416000  1.0 -0.346645137
C  C280  1  0.56588000  0.68106000  0.67349000  1.0 -0.1909553932
C  C281  1  0.58600000  0.28850000  0.08270000  1.0 0.5625220421
C  C282  1  0.62280000  0.28520000  0.11570000  1.0 -0.0308402409
C  C283  1  0.62250000  0.25270000  0.14920000  1.0 -0.1583923134
C  C284  1  0.65730000  0.25080000  0.18010000  1.0 0.0028797686
C  C285  1  0.69230000  0.28140000  0.17760000  1.0 0.0395437251
C  C286  1  0.69260000  0.31390000  0.14420000  1.0 -0.1713676424
C  C287  1  0.65780000  0.31570000  0.11330000  1.0 -0.1402879871
C  C288  1  0.70590000  0.23480000  0.23890000  1.0 -0.051573734
C  C289  1  0.72320000  0.27550000  0.21980000  1.0 0.0028797686
C  C290  1  0.66358000  0.21923000  0.21963000  1.0 0.0983118109
C  C291  1  0.66349000  0.17250000  0.19780000  1.0 -0.2576490931
C  C292  1  0.62131000  0.22405000  0.24879000  1.0 -0.2576490931
C  C293  1  0.61384000  0.26962000  0.27176000  1.0 -0.1791597333
C  C294  1  0.57434000  0.27295000  0.30475000  1.0 -0.1909553932
C  C295  1  0.70370000  0.16066000  0.16775000  1.0 -0.1713676424
C  C296  1  0.69920000  0.11864000  0.13819000  1.0 -0.1791597333
C  C297  1  0.74140000  0.08957000  0.13231000  1.0 -0.1791597333
C  C298  1  0.74054000  0.05452000  0.09448000  1.0 -0.1402879871
C  C299  1  0.78610000  0.03913000  0.07584000  1.0 -0.346645137
C  C300  1  0.56588000  0.31894000  0.32651000  1.0 -0.1909553932
C  C301  1  0.41400000  0.71150000  0.08270000  1.0 0.5625220421
C  C302  1  0.37720000  0.71480000  0.11570000  1.0 -0.0308402409
C  C303  1  0.37750000  0.74730000  0.14920000  1.0 -0.1583923134
C  C304  1  0.34270000  0.74920000  0.18010000  1.0 0.0028797686
C  C305  1  0.30770000  0.71860000  0.17760000  1.0 0.0395437251
C  C306  1  0.30740000  0.68610000  0.14420000  1.0 -0.1713676424
C  C307  1  0.34220000  0.68430000  0.11330000  1.0 -0.1402879871
C  C308  1  0.29410000  0.76520000  0.23890000  1.0 -0.051573734
C  C309  1  0.27680000  0.72450000  0.21980000  1.0 0.0028797686
C  C310  1  0.33642000  0.78077000  0.21963000  1.0 0.0983118109
C  C311  1  0.33651000  0.82750000  0.19780000  1.0 -0.254899737
C  C312  1  0.37869000  0.77595000  0.24879000  1.0 -0.2576490931
C  C313  1  0.38616000  0.73038000  0.27176000  1.0 -0.1791597333
C  C314  1  0.42566000  0.72705000  0.30475000  1.0 -0.1909553932
C  C315  1  0.29630000  0.83934000  0.16775000  1.0 -0.1713676424
C  C316  1  0.30080000  0.88136000  0.13819000  1.0 -0.1791597333
C  C317  1  0.25860000  0.91043000  0.13231000  1.0 -0.1791597333
C  C318  1  0.25946000  0.94548000  0.09448000  1.0 -0.1402879871
C  C319  1  0.21390000  0.96087000  0.07584000  1.0 -0.346645137
C  C320  1  0.43412000  0.68106000  0.32651000  1.0 -0.1909553932
C  C321  1  0.91730000  0.41400000  0.28850000  1.0 0.5625220421
C  C322  1  0.88430000  0.37720000  0.28520000  1.0 -0.0308402409
C  C323  1  0.85080000  0.37750000  0.25270000  1.0 -0.1583923134
C  C324  1  0.81990000  0.34270000  0.25080000  1.0 0.0028797686
C  C325  1  0.82240000  0.30770000  0.28140000  1.0 0.0395437251
C  C326  1  0.85580000  0.30740000  0.31390000  1.0 -0.1713676424
C  C327  1  0.88670000  0.34220000  0.31570000  1.0 -0.1402879871
C  C328  1  0.76110000  0.29410000  0.23480000  1.0 -0.051573734
C  C329  1  0.78020000  0.27680000  0.27550000  1.0 0.0028797686
C  C330  1  0.78037000  0.33642000  0.21923000  1.0 0.0983118109
C  C331  1  0.80220000  0.33651000  0.17250000  1.0 -0.254899737
C  C332  1  0.75121000  0.37869000  0.22405000  1.0 -0.2576490931
C  C333  1  0.72824000  0.38616000  0.26962000  1.0 -0.1791597333
C  C334  1  0.69525000  0.42566000  0.27295000  1.0 -0.1909553932
C  C335  1  0.83225000  0.29630000  0.16066000  1.0 -0.1713676424
C  C336  1  0.86181000  0.30080000  0.11864000  1.0 -0.1791597333
C  C337  1  0.86769000  0.25860000  0.08957000  1.0 -0.1791597333
C  C338  1  0.90552000  0.25946000  0.05452000  1.0 -0.1402879871
C  C339  1  0.92416000  0.21390000  0.03913000  1.0 -0.346645137
C  C340  1  0.67349000  0.43412000  0.31894000  1.0 -0.1909553932
C  C341  1  0.91730000  0.58600000  0.71150000  1.0 0.5625220421
C  C342  1  0.88430000  0.62280000  0.71480000  1.0 -0.0308402409
C  C343  1  0.85080000  0.62250000  0.74730000  1.0 -0.1583923134
C  C344  1  0.81990000  0.65730000  0.74920000  1.0 0.0028797686
C  C345  1  0.82240000  0.69230000  0.71860000  1.0 0.0395437251
C  C346  1  0.85580000  0.69260000  0.68610000  1.0 -0.1713676424
C  C347  1  0.88670000  0.65780000  0.68430000  1.0 -0.1402879871
C  C348  1  0.76110000  0.70590000  0.76520000  1.0 -0.051573734
C  C349  1  0.78020000  0.72320000  0.72450000  1.0 0.0028797686
C  C350  1  0.78037000  0.66358000  0.78077000  1.0 0.0908029036
C  C351  1  0.80220000  0.66349000  0.82750000  1.0 -0.254899737
C  C352  1  0.75121000  0.62131000  0.77595000  1.0 -0.2576490931
C  C353  1  0.72824000  0.61384000  0.73038000  1.0 -0.1791597333
C  C354  1  0.69525000  0.57434000  0.72705000  1.0 -0.1909553932
C  C355  1  0.83225000  0.70370000  0.83934000  1.0 -0.1713676424
C  C356  1  0.86181000  0.69920000  0.88136000  1.0 -0.1791597333
C  C357  1  0.86769000  0.74140000  0.91043000  1.0 -0.1791597333
C  C358  1  0.90552000  0.74054000  0.94548000  1.0 -0.1402879871
C  C359  1  0.92416000  0.78610000  0.96087000  1.0 -0.346645137
C  C360  1  0.67349000  0.56588000  0.68106000  1.0 -0.1909553932
C  C361  1  0.08270000  0.58600000  0.28850000  1.0 0.5625220421
C  C362  1  0.11570000  0.62280000  0.28520000  1.0 -0.0308402409
C  C363  1  0.14920000  0.62250000  0.25270000  1.0 -0.1583923134
C  C364  1  0.18010000  0.65730000  0.25080000  1.0 0.0028797686
C  C365  1  0.17760000  0.69230000  0.28140000  1.0 0.0395437251
C  C366  1  0.14420000  0.69260000  0.31390000  1.0 -0.1713676424
C  C367  1  0.11330000  0.65780000  0.31570000  1.0 -0.1402879871
C  C368  1  0.23890000  0.70590000  0.23480000  1.0 -0.051573734
C  C369  1  0.21980000  0.72320000  0.27550000  1.0 0.0028797686
C  C370  1  0.21963000  0.66358000  0.21923000  1.0 0.0983118109
C  C371  1  0.19780000  0.66349000  0.17250000  1.0 -0.2576490931
C  C372  1  0.24879000  0.62131000  0.22405000  1.0 -0.2576490931
C  C373  1  0.27176000  0.61384000  0.26962000  1.0 -0.1791597333
C  C374  1  0.30475000  0.57434000  0.27295000  1.0 -0.1909553932
C  C375  1  0.16775000  0.70370000  0.16066000  1.0 -0.1713676424
C  C376  1  0.13819000  0.69920000  0.11864000  1.0 -0.1791597333
C  C377  1  0.13231000  0.74140000  0.08957000  1.0 -0.1791597333
C  C378  1  0.09448000  0.74054000  0.05452000  1.0 -0.1402879871
C  C379  1  0.07584000  0.78610000  0.03913000  1.0 -0.346645137
C  C380  1  0.32651000  0.56588000  0.31894000  1.0 -0.1909553932
C  C381  1  0.08270000  0.41400000  0.71150000  1.0 0.5625220421
C  C382  1  0.11570000  0.37720000  0.71480000  1.0 -0.0308402409
C  C383  1  0.14920000  0.37750000  0.74730000  1.0 -0.1583923134
C  C384  1  0.18010000  0.34270000  0.74920000  1.0 0.0028797686
C  C385  1  0.17760000  0.30770000  0.71860000  1.0 0.0395437251
C  C386  1  0.14420000  0.30740000  0.68610000  1.0 -0.1713676424
C  C387  1  0.11330000  0.34220000  0.68430000  1.0 -0.1402879871
C  C388  1  0.23890000  0.29410000  0.76520000  1.0 -0.051573734
C  C389  1  0.21980000  0.27680000  0.72450000  1.0 0.0028797686
C  C390  1  0.21963000  0.33642000  0.78077000  1.0 0.0983118109
C  C391  1  0.19780000  0.33651000  0.82750000  1.0 -0.2576490931
C  C392  1  0.24879000  0.37869000  0.77595000  1.0 -0.2576490931
C  C393  1  0.27176000  0.38616000  0.73038000  1.0 -0.1791597333
C  C394  1  0.30475000  0.42566000  0.72705000  1.0 -0.1909553932
C  C395  1  0.16775000  0.29630000  0.83934000  1.0 -0.1713676424
C  C396  1  0.13819000  0.30080000  0.88136000  1.0 -0.1791597333
C  C397  1  0.13231000  0.25860000  0.91043000  1.0 -0.1791597333
C  C398  1  0.09448000  0.25946000  0.94548000  1.0 -0.1402879871
C  C399  1  0.07584000  0.21390000  0.96087000  1.0 -0.346645137
C  C400  1  0.32651000  0.43412000  0.68106000  1.0 -0.1909553932
C  C401  1  0.28850000  0.91730000  0.41400000  1.0 0.5625220421
C  C402  1  0.28520000  0.88430000  0.37720000  1.0 -0.0308402409
C  C403  1  0.25270000  0.85080000  0.37750000  1.0 -0.1583923134
C  C404  1  0.25080000  0.81990000  0.34270000  1.0 0.0028797686
C  C405  1  0.28140000  0.82240000  0.30770000  1.0 0.0395437251
C  C406  1  0.31390000  0.85580000  0.30740000  1.0 -0.1713676424
C  C407  1  0.31570000  0.88670000  0.34220000  1.0 -0.1402879871
C  C408  1  0.23480000  0.76110000  0.29410000  1.0 -0.051573734
C  C409  1  0.27550000  0.78020000  0.27680000  1.0 0.0028797686
C  C410  1  0.21923000  0.78037000  0.33642000  1.0 0.0908029036
C  C411  1  0.17250000  0.80220000  0.33651000  1.0 -0.2576490931
C  C412  1  0.22405000  0.75121000  0.37869000  1.0 -0.2576490931
C  C413  1  0.26962000  0.72824000  0.38616000  1.0 -0.1791597333
C  C414  1  0.27295000  0.69525000  0.42566000  1.0 -0.1909553932
C  C415  1  0.16066000  0.83225000  0.29630000  1.0 -0.1713676424
C  C416  1  0.11864000  0.86181000  0.30080000  1.0 -0.1791597333
C  C417  1  0.08957000  0.86769000  0.25860000  1.0 -0.1791597333
C  C418  1  0.05452000  0.90552000  0.25946000  1.0 -0.1402879871
C  C419  1  0.03913000  0.92416000  0.21390000  1.0 -0.344901782
C  C420  1  0.31894000  0.67349000  0.43412000  1.0 -0.1909553932
C  C421  1  0.71150000  0.91730000  0.58600000  1.0 0.5625220421
C  C422  1  0.71480000  0.88430000  0.62280000  1.0 -0.0308402409
C  C423  1  0.74730000  0.85080000  0.62250000  1.0 -0.1583923134
C  C424  1  0.74920000  0.81990000  0.65730000  1.0 0.0028797686
C  C425  1  0.71860000  0.82240000  0.69230000  1.0 0.0395437251
C  C426  1  0.68610000  0.85580000  0.69260000  1.0 -0.1713676424
C  C427  1  0.68430000  0.88670000  0.65780000  1.0 -0.1402879871
C  C428  1  0.76520000  0.76110000  0.70590000  1.0 -0.051573734
C  C429  1  0.72450000  0.78020000  0.72320000  1.0 0.0028797686
C  C430  1  0.78077000  0.78037000  0.66358000  1.0 0.0908029036
C  C431  1  0.82750000  0.80220000  0.66349000  1.0 -0.254899737
C  C432  1  0.77595000  0.75121000  0.62131000  1.0 -0.2576490931
C  C433  1  0.73038000  0.72824000  0.61384000  1.0 -0.1791597333
C  C434  1  0.72705000  0.69525000  0.57434000  1.0 -0.1909553932
C  C435  1  0.83934000  0.83225000  0.70370000  1.0 -0.1713676424
C  C436  1  0.88136000  0.86181000  0.69920000  1.0 -0.1791597333
C  C437  1  0.91043000  0.86769000  0.74140000  1.0 -0.1791597333
C  C438  1  0.94548000  0.90552000  0.74054000  1.0 -0.1402879871
C  C439  1  0.96087000  0.92416000  0.78610000  1.0 -0.346645137
C  C440  1  0.68106000  0.67349000  0.56588000  1.0 -0.1909553932
C  C441  1  0.28850000  0.08270000  0.58600000  1.0 0.5625220421
C  C442  1  0.28520000  0.11570000  0.62280000  1.0 -0.0308402409
C  C443  1  0.25270000  0.14920000  0.62250000  1.0 -0.1583923134
C  C444  1  0.25080000  0.18010000  0.65730000  1.0 0.0028797686
C  C445  1  0.28140000  0.17760000  0.69230000  1.0 0.0395437251
C  C446  1  0.31390000  0.14420000  0.69260000  1.0 -0.1713676424
C  C447  1  0.31570000  0.11330000  0.65780000  1.0 -0.1402879871
C  C448  1  0.23480000  0.23890000  0.70590000  1.0 -0.051573734
C  C449  1  0.27550000  0.21980000  0.72320000  1.0 0.0028797686
C  C450  1  0.21923000  0.21963000  0.66358000  1.0 0.0983118109
C  C451  1  0.17250000  0.19780000  0.66349000  1.0 -0.2576490931
C  C452  1  0.22405000  0.24879000  0.62131000  1.0 -0.2576490931
C  C453  1  0.26962000  0.27176000  0.61384000  1.0 -0.1791597333
C  C454  1  0.27295000  0.30475000  0.57434000  1.0 -0.1909553932
C  C455  1  0.16066000  0.16775000  0.70370000  1.0 -0.1791597333
C  C456  1  0.11864000  0.13819000  0.69920000  1.0 -0.1791597333
C  C457  1  0.08957000  0.13231000  0.74140000  1.0 -0.1791597333
C  C458  1  0.05452000  0.09448000  0.74054000  1.0 -0.1402879871
C  C459  1  0.03913000  0.07584000  0.78610000  1.0 -0.346645137
C  C460  1  0.31894000  0.32651000  0.56588000  1.0 -0.1909553932
C  C461  1  0.71150000  0.08270000  0.41400000  1.0 0.5625220421
C  C462  1  0.71480000  0.11570000  0.37720000  1.0 -0.0308402409
C  C463  1  0.74730000  0.14920000  0.37750000  1.0 -0.1583923134
C  C464  1  0.74920000  0.18010000  0.34270000  1.0 0.0028797686
C  C465  1  0.71860000  0.17760000  0.30770000  1.0 0.0395437251
C  C466  1  0.68610000  0.14420000  0.30740000  1.0 -0.1713676424
C  C467  1  0.68430000  0.11330000  0.34220000  1.0 -0.1402879871
C  C468  1  0.76520000  0.23890000  0.29410000  1.0 -0.051573734
C  C469  1  0.72450000  0.21980000  0.27680000  1.0 0.0028797686
C  C470  1  0.78077000  0.21963000  0.33642000  1.0 0.0983118109
C  C471  1  0.82750000  0.19780000  0.33651000  1.0 -0.254899737
C  C472  1  0.77595000  0.24879000  0.37869000  1.0 -0.2576490931
C  C473  1  0.73038000  0.27176000  0.38616000  1.0 -0.1791597333
C  C474  1  0.72705000  0.30475000  0.42566000  1.0 -0.1909553932
C  C475  1  0.83934000  0.16775000  0.29630000  1.0 -0.1713676424
C  C476  1  0.88136000  0.13819000  0.30080000  1.0 -0.1791597333
C  C477  1  0.91043000  0.13231000  0.25860000  1.0 -0.1791597333
C  C478  1  0.94548000  0.09448000  0.25946000  1.0 -0.1402879871
C  C479  1  0.96087000  0.07584000  0.21390000  1.0 -0.346645137
C  C480  1  0.68106000  0.32651000  0.43412000  1.0 -0.1909553932
C  C481  1  0.45760000  0.52200000  0.00000000  1.0 -0.0991069543
C  C482  1  0.54240000  0.47800000  0.00000000  1.0 -0.0991069543
C  C483  1  0.54240000  0.52200000  0.00000000  1.0 -0.0991069543
C  C484  1  0.45760000  0.47800000  0.00000000  1.0 -0.0991069543
C  C485  1  0.00000000  0.45760000  0.52200000  1.0 -0.0991069543
C  C486  1  0.00000000  0.54240000  0.47800000  1.0 -0.0991069543
C  C487  1  0.00000000  0.54240000  0.52200000  1.0 -0.0991069543
C  C488  1  0.00000000  0.45760000  0.47800000  1.0 -0.0991069543
C  C489  1  0.52200000  0.00000000  0.45760000  1.0 -0.0991069543
C  C490  1  0.47800000  0.00000000  0.54240000  1.0 -0.0991069543
C  C491  1  0.52200000  0.00000000  0.54240000  1.0 -0.0991069543
C  C492  1  0.47800000  0.00000000  0.45760000  1.0 -0.0991069543
C  C493  1  0.50000000  0.95220000  0.04130000  1.0 -0.0766987395
C  C494  1  0.50000000  0.90600000  0.03990000  1.0 -0.1192180182
C  C495  1  0.50000000  0.04780000  0.04130000  1.0 -0.0766987395
C  C496  1  0.50000000  0.09400000  0.03990000  1.0 -0.1192180182
C  C497  1  0.50000000  0.95220000  0.95870000  1.0 -0.0766987395
C  C498  1  0.50000000  0.90600000  0.96010000  1.0 -0.1192180182
C  C499  1  0.50000000  0.04780000  0.95870000  1.0 -0.0766987395
C  C500  1  0.50000000  0.09400000  0.96010000  1.0 -0.1192180182
C  C501  1  0.04130000  0.50000000  0.95220000  1.0 -0.0766987395
C  C502  1  0.03990000  0.50000000  0.90600000  1.0 -0.1192180182
C  C503  1  0.04130000  0.50000000  0.04780000  1.0 -0.0766987395
C  C504  1  0.03990000  0.50000000  0.09400000  1.0 -0.1192180182
C  C505  1  0.95870000  0.50000000  0.95220000  1.0 -0.0766987395
C  C506  1  0.96010000  0.50000000  0.90600000  1.0 -0.1192180182
C  C507  1  0.95870000  0.50000000  0.04780000  1.0 -0.0766987395
C  C508  1  0.96010000  0.50000000  0.09400000  1.0 -0.1192180182
C  C509  1  0.95220000  0.04130000  0.50000000  1.0 -0.0766987395
C  C510  1  0.90600000  0.03990000  0.50000000  1.0 -0.1192180182
C  C511  1  0.04780000  0.04130000  0.50000000  1.0 -0.0766987395
C  C512  1  0.09400000  0.03990000  0.50000000  1.0 -0.1192180182
C  C513  1  0.95220000  0.95870000  0.50000000  1.0 -0.0766987395
C  C514  1  0.90600000  0.96010000  0.50000000  1.0 -0.1192180182
C  C515  1  0.04780000  0.95870000  0.50000000  1.0 -0.0766987395
C  C516  1  0.09400000  0.96010000  0.50000000  1.0 -0.1192180182
C  C517  1  0.50000000  0.54660000  0.00000000  1.0 -0.2688380646
C  C518  1  0.50000000  0.59630000  0.00000000  1.0 0.4061002416
C  C519  1  0.50000000  0.83360000  0.00000000  1.0 0.5865232828
C  C520  1  0.50000000  0.88220000  0.00000000  1.0 -0.0667242475
C  C521  1  0.50000000  0.97640000  0.00000000  1.0 0.0141148506
C  C522  1  0.50000000  0.45340000  0.00000000  1.0 -0.2688380646
C  C523  1  0.50000000  0.40370000  0.00000000  1.0 0.4061002416
C  C524  1  0.50000000  0.16640000  0.00000000  1.0 0.5865232828
C  C525  1  0.50000000  0.11780000  0.00000000  1.0 -0.0667242475
C  C526  1  0.50000000  0.02360000  0.00000000  1.0 0.0141148506
C  C527  1  0.00000000  0.50000000  0.54660000  1.0 -0.2688380646
C  C528  1  0.00000000  0.50000000  0.59630000  1.0 0.4061002416
C  C529  1  0.00000000  0.50000000  0.83360000  1.0 0.5865232828
C  C530  1  0.00000000  0.50000000  0.88220000  1.0 -0.0667242475
C  C531  1  0.00000000  0.50000000  0.97640000  1.0 0.0141148506
C  C532  1  0.00000000  0.50000000  0.45340000  1.0 -0.2688380646
C  C533  1  0.00000000  0.50000000  0.40370000  1.0 0.4061002416
C  C534  1  0.00000000  0.50000000  0.16640000  1.0 0.5865232828
C  C535  1  0.00000000  0.50000000  0.11780000  1.0 -0.0667242475
C  C536  1  0.00000000  0.50000000  0.02360000  1.0 0.0141148506
C  C537  1  0.54660000  0.00000000  0.50000000  1.0 -0.2688380646
C  C538  1  0.59630000  0.00000000  0.50000000  1.0 0.4061002416
C  C539  1  0.83360000  0.00000000  0.50000000  1.0 0.5865232828
C  C540  1  0.88220000  0.00000000  0.50000000  1.0 -0.0667242475
C  C541  1  0.97640000  0.00000000  0.50000000  1.0 0.0141148506
C  C542  1  0.45340000  0.00000000  0.50000000  1.0 -0.2688380646
C  C543  1  0.40370000  0.00000000  0.50000000  1.0 0.4061002416
C  C544  1  0.16640000  0.00000000  0.50000000  1.0 0.5865232828
C  C545  1  0.11780000  0.00000000  0.50000000  1.0 -0.0667242475
C  C546  1  0.02360000  0.00000000  0.50000000  1.0 0.0141148506
C  C547  1  0.54040000  0.91058000  0.18492000  0.5 -0.1402879871
C  C548  1  0.54060000  0.93781000  0.14673000  0.5 -0.1713676424
C  C549  1  0.55198000  0.68091000  0.37618000  0.5 -0.1192180182
C  C550  1  0.53613000  0.63596000  0.39588000  0.5 -0.3974557487
C  C551  1  0.45960000  0.08942000  0.18492000  0.5 -0.1402879871
C  C552  1  0.45940000  0.06219000  0.14673000  0.5 -0.1713676424
C  C553  1  0.44802000  0.31909000  0.37618000  0.5 -0.1192180182
C  C554  1  0.46387000  0.36404000  0.39588000  0.5 -0.3974557487
C  C555  1  0.45960000  0.91058000  0.81508000  0.5 -0.1402879871
C  C556  1  0.45940000  0.93781000  0.85327000  0.5 -0.1713676424
C  C557  1  0.44802000  0.68091000  0.62382000  0.5 -0.1192180182
C  C558  1  0.46387000  0.63596000  0.60412000  0.5 -0.3974557487
C  C559  1  0.54040000  0.08942000  0.81508000  0.5 -0.1402879871
C  C560  1  0.54060000  0.06219000  0.85327000  0.5 -0.1713676424
C  C561  1  0.55198000  0.31909000  0.62382000  0.5 -0.1192180182
C  C562  1  0.53613000  0.36404000  0.60412000  0.5 -0.3974557487
C  C563  1  0.18492000  0.54040000  0.91058000  0.5 -0.1402879871
C  C564  1  0.14673000  0.54060000  0.93781000  0.5 -0.1713676424
C  C565  1  0.37618000  0.55198000  0.68091000  0.5 -0.1192180182
C  C566  1  0.39588000  0.53613000  0.63596000  0.5 -0.3974557487
C  C567  1  0.18492000  0.45960000  0.08942000  0.5 -0.1402879871
C  C568  1  0.14673000  0.45940000  0.06219000  0.5 -0.1713676424
C  C569  1  0.37618000  0.44802000  0.31909000  0.5 -0.1192180182
C  C570  1  0.39588000  0.46387000  0.36404000  0.5 -0.3974557487
C  C571  1  0.81508000  0.45960000  0.91058000  0.5 -0.1402879871
C  C572  1  0.85327000  0.45940000  0.93781000  0.5 -0.1713676424
C  C573  1  0.62382000  0.44802000  0.68091000  0.5 -0.1192180182
C  C574  1  0.60412000  0.46387000  0.63596000  0.5 -0.3974557487
C  C575  1  0.81508000  0.54040000  0.08942000  0.5 -0.1402879871
C  C576  1  0.85327000  0.54060000  0.06219000  0.5 -0.1713676424
C  C577  1  0.62382000  0.55198000  0.31909000  0.5 -0.1192180182
C  C578  1  0.60412000  0.53613000  0.36404000  0.5 -0.3974557487
C  C579  1  0.91058000  0.18492000  0.54040000  0.5 -0.1402879871
C  C580  1  0.93781000  0.14673000  0.54060000  0.5 -0.1713676424
C  C581  1  0.68091000  0.37618000  0.55198000  0.5 -0.1192180182
C  C582  1  0.63596000  0.39588000  0.53613000  0.5 -0.3974557487
C  C583  1  0.08942000  0.18492000  0.45960000  0.5 -0.1402879871
C  C584  1  0.06219000  0.14673000  0.45940000  0.5 -0.1713676424
C  C585  1  0.31909000  0.37618000  0.44802000  0.5 -0.1192180182
C  C586  1  0.36404000  0.39588000  0.46387000  0.5 -0.3974557487
C  C587  1  0.91058000  0.81508000  0.45960000  0.5 -0.1402879871
C  C588  1  0.93781000  0.85327000  0.45940000  0.5 -0.1713676424
C  C589  1  0.68091000  0.62382000  0.44802000  0.5 -0.1192180182
C  C590  1  0.63596000  0.60412000  0.46387000  0.5 -0.3974557487
C  C591  1  0.08942000  0.81508000  0.54040000  0.5 -0.1402879871
C  C592  1  0.06219000  0.85327000  0.54060000  0.5 -0.1713676424
C  C593  1  0.31909000  0.62382000  0.55198000  0.5 -0.1192180182
C  C594  1  0.36404000  0.60412000  0.53613000  0.5 -0.3974557487
C  C595  1  0.45960000  0.08942000  0.81508000  0.5 -0.1402879871
C  C596  1  0.45940000  0.06219000  0.85327000  0.5 -0.1713676424
C  C597  1  0.44802000  0.31909000  0.62382000  0.5 -0.1192180182
C  C598  1  0.46387000  0.36404000  0.60412000  0.5 -0.3974557487
C  C599  1  0.54040000  0.91058000  0.81508000  0.5 -0.1402879871
C  C600  1  0.54060000  0.93781000  0.85327000  0.5 -0.1713676424
C  C601  1  0.55198000  0.68091000  0.62382000  0.5 -0.1192180182
C  C602  1  0.53613000  0.63596000  0.60412000  0.5 -0.3974557487
C  C603  1  0.54040000  0.08942000  0.18492000  0.5 -0.1402879871
C  C604  1  0.54060000  0.06219000  0.14673000  0.5 -0.1713676424
C  C605  1  0.55198000  0.31909000  0.37618000  0.5 -0.1192180182
C  C606  1  0.53613000  0.36404000  0.39588000  0.5 -0.3974557487
C  C607  1  0.45960000  0.91058000  0.18492000  0.5 -0.1402879871
C  C608  1  0.45940000  0.93781000  0.14673000  0.5 -0.1713676424
C  C609  1  0.44802000  0.68091000  0.37618000  0.5 -0.1192180182
C  C610  1  0.46387000  0.63596000  0.39588000  0.5 -0.3974557487
C  C611  1  0.81508000  0.45960000  0.08942000  0.5 -0.1402879871
C  C612  1  0.85327000  0.45940000  0.06219000  0.5 -0.1713676424
C  C613  1  0.62382000  0.44802000  0.31909000  0.5 -0.1192180182
C  C614  1  0.60412000  0.46387000  0.36404000  0.5 -0.3974557487
C  C615  1  0.81508000  0.54040000  0.91058000  0.5 -0.1402879871
C  C616  1  0.85327000  0.54060000  0.93781000  0.5 -0.1713676424
C  C617  1  0.62382000  0.55198000  0.68091000  0.5 -0.1192180182
C  C618  1  0.60412000  0.53613000  0.63596000  0.5 -0.3974557487
C  C619  1  0.18492000  0.54040000  0.08942000  0.5 -0.1402879871
C  C620  1  0.14673000  0.54060000  0.06219000  0.5 -0.1713676424
C  C621  1  0.37618000  0.55198000  0.31909000  0.5 -0.1192180182
C  C622  1  0.39588000  0.53613000  0.36404000  0.5 -0.3974557487
C  C623  1  0.18492000  0.45960000  0.91058000  0.5 -0.1402879871
C  C624  1  0.14673000  0.45940000  0.93781000  0.5 -0.1713676424
C  C625  1  0.37618000  0.44802000  0.68091000  0.5 -0.1192180182
C  C626  1  0.39588000  0.46387000  0.63596000  0.5 -0.3974557487
C  C627  1  0.08942000  0.81508000  0.45960000  0.5 -0.1402879871
C  C628  1  0.06219000  0.85327000  0.45940000  0.5 -0.1713676424
C  C629  1  0.31909000  0.62382000  0.44802000  0.5 -0.1192180182
C  C630  1  0.36404000  0.60412000  0.46387000  0.5 -0.3974557487
C  C631  1  0.91058000  0.81508000  0.54040000  0.5 -0.1402879871
C  C632  1  0.93781000  0.85327000  0.54060000  0.5 -0.1713676424
C  C633  1  0.68091000  0.62382000  0.55198000  0.5 -0.1192180182
C  C634  1  0.63596000  0.60412000  0.53613000  0.5 -0.3974557487
C  C635  1  0.08942000  0.18492000  0.54040000  0.5 -0.1402879871
C  C636  1  0.06219000  0.14673000  0.54060000  0.5 -0.1713676424
C  C637  1  0.31909000  0.37618000  0.55198000  0.5 -0.1192180182
C  C638  1  0.36404000  0.39588000  0.53613000  0.5 -0.3974557487
C  C639  1  0.91058000  0.18492000  0.45960000  0.5 -0.1402879871
C  C640  1  0.93781000  0.14673000  0.45940000  0.5 -0.1713676424
C  C641  1  0.68091000  0.37618000  0.44802000  0.5 -0.1192180182
C  C642  1  0.63596000  0.39588000  0.46387000  0.5 -0.3974557487
C  C643  1  0.50000000  0.97820000  0.08210000  0.5 -0.086267334
C  C644  1  0.50000000  0.95125000  0.12790000  0.5 0.0784114938
C  C645  1  0.50000000  0.89703000  0.20392000  0.5 -0.1713676424
C  C646  1  0.50000000  0.02180000  0.08210000  0.5 -0.086267334
C  C647  1  0.50000000  0.04875000  0.12790000  0.5 0.0784114938
C  C648  1  0.50000000  0.10297000  0.20392000  0.5 -0.1713676424
C  C649  1  0.50000000  0.97820000  0.91790000  0.5 -0.086267334
C  C650  1  0.50000000  0.95125000  0.87210000  0.5 0.0784114938
C  C651  1  0.50000000  0.89703000  0.79608000  0.5 -0.1713676424
C  C652  1  0.50000000  0.02180000  0.91790000  0.5 -0.086267334
C  C653  1  0.50000000  0.04875000  0.87210000  0.5 0.0784114938
C  C654  1  0.50000000  0.10297000  0.79608000  0.5 -0.1713676424
C  C655  1  0.08210000  0.50000000  0.97820000  0.5 -0.086267334
C  C656  1  0.12790000  0.50000000  0.95125000  0.5 0.0784114938
C  C657  1  0.20392000  0.50000000  0.89703000  0.5 -0.1713676424
C  C658  1  0.08210000  0.50000000  0.02180000  0.5 -0.086267334
C  C659  1  0.12790000  0.50000000  0.04875000  0.5 0.0784114938
C  C660  1  0.20392000  0.50000000  0.10297000  0.5 -0.1713676424
C  C661  1  0.91790000  0.50000000  0.97820000  0.5 -0.086267334
C  C662  1  0.87210000  0.50000000  0.95125000  0.5 0.0784114938
C  C663  1  0.79608000  0.50000000  0.89703000  0.5 -0.1713676424
C  C664  1  0.91790000  0.50000000  0.02180000  0.5 -0.086267334
C  C665  1  0.87210000  0.50000000  0.04875000  0.5 0.0784114938
C  C666  1  0.79608000  0.50000000  0.10297000  0.5 -0.1713676424
C  C667  1  0.97820000  0.08210000  0.50000000  0.5 -0.086267334
C  C668  1  0.95125000  0.12790000  0.50000000  0.5 0.0784114938
C  C669  1  0.89703000  0.20392000  0.50000000  0.5 -0.1713676424
C  C670  1  0.02180000  0.08210000  0.50000000  0.5 -0.086267334
C  C671  1  0.04875000  0.12790000  0.50000000  0.5 0.0784114938
C  C672  1  0.10297000  0.20392000  0.50000000  0.5 -0.1713676424
C  C673  1  0.97820000  0.91790000  0.50000000  0.5 -0.086267334
C  C674  1  0.95125000  0.87210000  0.50000000  0.5 0.0784114938
C  C675  1  0.89703000  0.79608000  0.50000000  0.5 -0.1713676424
C  C676  1  0.02180000  0.91790000  0.50000000  0.5 -0.086267334
C  C677  1  0.04875000  0.87210000  0.50000000  0.5 0.0784114938
C  C678  1  0.10297000  0.79608000  0.50000000  0.5 -0.1713676424
C  C679  1  0.37480000  0.52240000  0.01000000  0.12 0.130161393
C  C680  1  0.34390000  0.55440000  0.98380000  0.12 0.0538786777
C  C681  1  0.35950000  0.60290000  0.98060000  0.12 -0.1583923134
C  C682  1  0.31740000  0.63070000  0.98520000  0.12 -0.051573734
C  C683  1  0.28040000  0.60000000  0.97050000  0.12 -0.1192180182
C  C684  1  0.62520000  0.47760000  0.01000000  0.12 0.130161393
C  C685  1  0.65610000  0.44560000  0.98380000  0.12 0.0538786777
C  C686  1  0.64050000  0.39710000  0.98060000  0.12 -0.1583923134
C  C687  1  0.68260000  0.36930000  0.98520000  0.12 -0.051573734
C  C688  1  0.71960000  0.40000000  0.97050000  0.12 -0.1192180182
C  C689  1  0.62520000  0.52240000  0.99000000  0.12 0.130161393
C  C690  1  0.65610000  0.55440000  0.01620000  0.12 0.0577621532
C  C691  1  0.64050000  0.60290000  0.01940000  0.12 -0.1583923134
C  C692  1  0.68260000  0.63070000  0.01480000  0.12 -0.051573734
C  C693  1  0.71960000  0.60000000  0.02950000  0.12 -0.1192180182
C  C694  1  0.37480000  0.47760000  0.99000000  0.12 0.130161393
C  C695  1  0.34390000  0.44560000  0.01620000  0.12 0.0538786777
C  C696  1  0.35950000  0.39710000  0.01940000  0.12 -0.1583923134
C  C697  1  0.31740000  0.36930000  0.01480000  0.12 -0.051573734
C  C698  1  0.28040000  0.40000000  0.02950000  0.12 -0.1192180182
C  C699  1  0.01000000  0.37480000  0.52240000  0.12 0.130161393
C  C700  1  0.98380000  0.34390000  0.55440000  0.12 0.0577621532
C  C701  1  0.98060000  0.35950000  0.60290000  0.12 -0.1583923134
C  C702  1  0.98520000  0.31740000  0.63070000  0.12 -0.051573734
C  C703  1  0.97050000  0.28040000  0.60000000  0.12 -0.1192180182
C  C704  1  0.01000000  0.62520000  0.47760000  0.12 0.130161393
C  C705  1  0.98380000  0.65610000  0.44560000  0.12 0.0577621532
C  C706  1  0.98060000  0.64050000  0.39710000  0.12 -0.1583923134
C  C707  1  0.98520000  0.68260000  0.36930000  0.12 -0.051573734
C  C708  1  0.97050000  0.71960000  0.40000000  0.12 -0.1192180182
C  C709  1  0.99000000  0.62520000  0.52240000  0.12 0.130161393
C  C710  1  0.01620000  0.65610000  0.55440000  0.12 0.0538786777
C  C711  1  0.01940000  0.64050000  0.60290000  0.12 -0.1583923134
C  C712  1  0.01480000  0.68260000  0.63070000  0.12 -0.051573734
C  C713  1  0.02950000  0.71960000  0.60000000  0.12 -0.1192180182
C  C714  1  0.99000000  0.37480000  0.47760000  0.12 0.130161393
C  C715  1  0.01620000  0.34390000  0.44560000  0.12 0.0538786777
C  C716  1  0.01940000  0.35950000  0.39710000  0.12 -0.1583923134
C  C717  1  0.01480000  0.31740000  0.36930000  0.12 -0.051573734
C  C718  1  0.02950000  0.28040000  0.40000000  0.12 -0.1192180182
C  C719  1  0.52240000  0.01000000  0.37480000  0.12 0.130161393
C  C720  1  0.55440000  0.98380000  0.34390000  0.12 0.0538786777
C  C721  1  0.60290000  0.98060000  0.35950000  0.12 -0.1583923134
C  C722  1  0.63070000  0.98520000  0.31740000  0.12 -0.051573734
C  C723  1  0.60000000  0.97050000  0.28040000  0.12 -0.1192180182
C  C724  1  0.47760000  0.01000000  0.62520000  0.12 0.130161393
C  C725  1  0.44560000  0.98380000  0.65610000  0.12 0.0538786777
C  C726  1  0.39710000  0.98060000  0.64050000  0.12 -0.1583923134
C  C727  1  0.36930000  0.98520000  0.68260000  0.12 -0.051573734
C  C728  1  0.40000000  0.97050000  0.71960000  0.12 -0.1192180182
C  C729  1  0.52240000  0.99000000  0.62520000  0.12 0.130161393
C  C730  1  0.55440000  0.01620000  0.65610000  0.12 0.0538786777
C  C731  1  0.60290000  0.01940000  0.64050000  0.12 -0.1583923134
C  C732  1  0.63070000  0.01480000  0.68260000  0.12 -0.051573734
C  C733  1  0.60000000  0.02950000  0.71960000  0.12 -0.1192180182
C  C734  1  0.47760000  0.99000000  0.37480000  0.12 0.130161393
C  C735  1  0.44560000  0.01620000  0.34390000  0.12 0.0538786777
C  C736  1  0.39710000  0.01940000  0.35950000  0.12 -0.1583923134
C  C737  1  0.36930000  0.01480000  0.31740000  0.12 -0.051573734
C  C738  1  0.40000000  0.02950000  0.28040000  0.12 -0.1192180182
C  C739  1  0.62520000  0.47760000  0.99000000  0.12 0.130161393
C  C740  1  0.65610000  0.44560000  0.01620000  0.12 0.0538786777
C  C741  1  0.64050000  0.39710000  0.01940000  0.12 -0.1583923134
C  C742  1  0.68260000  0.36930000  0.01480000  0.12 -0.051573734
C  C743  1  0.71960000  0.40000000  0.02950000  0.12 -0.1192180182
C  C744  1  0.37480000  0.52240000  0.99000000  0.12 0.130161393
C  C745  1  0.34390000  0.55440000  0.01620000  0.12 0.0538786777
C  C746  1  0.35950000  0.60290000  0.01940000  0.12 -0.1583923134
C  C747  1  0.31740000  0.63070000  0.01480000  0.12 -0.051573734
C  C748  1  0.28040000  0.60000000  0.02950000  0.12 -0.1192180182
C  C749  1  0.37480000  0.47760000  0.01000000  0.12 0.130161393
C  C750  1  0.34390000  0.44560000  0.98380000  0.12 0.0538786777
C  C751  1  0.35950000  0.39710000  0.98060000  0.12 -0.1583923134
C  C752  1  0.31740000  0.36930000  0.98520000  0.12 -0.051573734
C  C753  1  0.28040000  0.40000000  0.97050000  0.12 -0.1192180182
C  C754  1  0.62520000  0.52240000  0.01000000  0.12 0.130161393
C  C755  1  0.65610000  0.55440000  0.98380000  0.12 0.0538786777
C  C756  1  0.64050000  0.60290000  0.98060000  0.12 -0.1583923134
C  C757  1  0.68260000  0.63070000  0.98520000  0.12 -0.051573734
C  C758  1  0.71960000  0.60000000  0.97050000  0.12 -0.1192180182
C  C759  1  0.99000000  0.62520000  0.47760000  0.12 0.130161393
C  C760  1  0.01620000  0.65610000  0.44560000  0.12 0.0538786777
C  C761  1  0.01940000  0.64050000  0.39710000  0.12 -0.1583923134
C  C762  1  0.01480000  0.68260000  0.36930000  0.12 -0.051573734
C  C763  1  0.02950000  0.71960000  0.40000000  0.12 -0.1192180182
C  C764  1  0.99000000  0.37480000  0.52240000  0.12 0.130161393
C  C765  1  0.01620000  0.34390000  0.55440000  0.12 0.0538786777
C  C766  1  0.01940000  0.35950000  0.60290000  0.12 -0.1583923134
C  C767  1  0.01480000  0.31740000  0.63070000  0.12 -0.051573734
C  C768  1  0.02950000  0.28040000  0.60000000  0.12 -0.1192180182
C  C769  1  0.01000000  0.37480000  0.47760000  0.12 0.130161393
C  C770  1  0.98380000  0.34390000  0.44560000  0.12 0.0577621532
C  C771  1  0.98060000  0.35950000  0.39710000  0.12 -0.1583923134
C  C772  1  0.98520000  0.31740000  0.36930000  0.12 -0.051573734
C  C773  1  0.97050000  0.28040000  0.40000000  0.12 -0.1192180182
C  C774  1  0.01000000  0.62520000  0.52240000  0.12 0.130161393
C  C775  1  0.98380000  0.65610000  0.55440000  0.12 0.0577621532
C  C776  1  0.98060000  0.64050000  0.60290000  0.12 -0.1583923134
C  C777  1  0.98520000  0.68260000  0.63070000  0.12 -0.051573734
C  C778  1  0.97050000  0.71960000  0.60000000  0.12 -0.1192180182
C  C779  1  0.47760000  0.99000000  0.62520000  0.12 0.130161393
C  C780  1  0.44560000  0.01620000  0.65610000  0.12 0.0538786777
C  C781  1  0.39710000  0.01940000  0.64050000  0.12 -0.1583923134
C  C782  1  0.36930000  0.01480000  0.68260000  0.12 -0.051573734
C  C783  1  0.40000000  0.02950000  0.71960000  0.12 -0.1192180182
C  C784  1  0.52240000  0.99000000  0.37480000  0.12 0.130161393
C  C785  1  0.55440000  0.01620000  0.34390000  0.12 0.0538786777
C  C786  1  0.60290000  0.01940000  0.35950000  0.12 -0.1583923134
C  C787  1  0.63070000  0.01480000  0.31740000  0.12 -0.051573734
C  C788  1  0.60000000  0.02950000  0.28040000  0.12 -0.1192180182
C  C789  1  0.47760000  0.01000000  0.37480000  0.12 0.130161393
C  C790  1  0.44560000  0.98380000  0.34390000  0.12 0.0538786777
C  C791  1  0.39710000  0.98060000  0.35950000  0.12 -0.1583923134
C  C792  1  0.36930000  0.98520000  0.31740000  0.12 -0.051573734
C  C793  1  0.40000000  0.97050000  0.28040000  0.12 -0.1192180182
C  C794  1  0.52240000  0.01000000  0.62520000  0.12 0.130161393
C  C795  1  0.55440000  0.98380000  0.65610000  0.12 0.0538786777
C  C796  1  0.60290000  0.98060000  0.64050000  0.12 -0.1583923134
C  C797  1  0.63070000  0.98520000  0.68260000  0.12 -0.051573734
C  C798  1  0.60000000  0.97050000  0.71960000  0.12 -0.1192180182
N  N1  1  0.41720000  0.54010000  0.01660000  0.12 -0.1256307722
N  N2  1  0.29420000  0.55590000  0.98590000  0.12 -0.1256307722
N  N3  1  0.58280000  0.45990000  0.01660000  0.12 -0.1256307722
N  N4  1  0.70580000  0.44410000  0.98590000  0.12 -0.1256307722
N  N5  1  0.58280000  0.54010000  0.98340000  0.12 -0.1256307722
N  N6  1  0.70580000  0.55590000  0.01410000  0.12 -0.1192180182
N  N7  1  0.41720000  0.45990000  0.98340000  0.12 -0.1256307722
N  N8  1  0.29420000  0.44410000  0.01410000  0.12 -0.1192180182
N  N9  1  0.01660000  0.41720000  0.54010000  0.12 -0.1256307722
N  N10  1  0.98590000  0.29420000  0.55590000  0.12 -0.1256307722
N  N11  1  0.01660000  0.58280000  0.45990000  0.12 -0.1256307722
N  N12  1  0.98590000  0.70580000  0.44410000  0.12 -0.1256307722
N  N13  1  0.98340000  0.58280000  0.54010000  0.12 -0.1256307722
N  N14  1  0.01410000  0.70580000  0.55590000  0.12 -0.1192180182
N  N15  1  0.98340000  0.41720000  0.45990000  0.12 -0.1256307722
N  N16  1  0.01410000  0.29420000  0.44410000  0.12 -0.1192180182
N  N17  1  0.54010000  0.01660000  0.41720000  0.12 -0.1256307722
N  N18  1  0.55590000  0.98590000  0.29420000  0.12 -0.1256307722
N  N19  1  0.45990000  0.01660000  0.58280000  0.12 -0.1256307722
N  N20  1  0.44410000  0.98590000  0.70580000  0.12 -0.1256307722
N  N21  1  0.54010000  0.98340000  0.58280000  0.12 -0.1256307722
N  N22  1  0.55590000  0.01410000  0.70580000  0.12 -0.1192180182
N  N23  1  0.45990000  0.98340000  0.41720000  0.12 -0.1256307722
N  N24  1  0.44410000  0.01410000  0.29420000  0.12 -0.1192180182
N  N25  1  0.58280000  0.45990000  0.98340000  0.12 -0.1256307722
N  N26  1  0.70580000  0.44410000  0.01410000  0.12 -0.1192180182
N  N27  1  0.41720000  0.54010000  0.98340000  0.12 -0.1256307722
N  N28  1  0.29420000  0.55590000  0.01410000  0.12 -0.1192180182
N  N29  1  0.41720000  0.45990000  0.01660000  0.12 -0.1256307722
N  N30  1  0.29420000  0.44410000  0.98590000  0.12 -0.1256307722
N  N31  1  0.58280000  0.54010000  0.01660000  0.12 -0.1256307722
N  N32  1  0.70580000  0.55590000  0.98590000  0.12 -0.1256307722
N  N33  1  0.98340000  0.58280000  0.45990000  0.12 -0.1256307722
N  N34  1  0.01410000  0.70580000  0.44410000  0.12 -0.1192180182
N  N35  1  0.98340000  0.41720000  0.54010000  0.12 -0.1256307722
N  N36  1  0.01410000  0.29420000  0.55590000  0.12 -0.1192180182
N  N37  1  0.01660000  0.41720000  0.45990000  0.12 -0.1256307722
N  N38  1  0.98590000  0.29420000  0.44410000  0.12 -0.1256307722
N  N39  1  0.01660000  0.58280000  0.54010000  0.12 -0.1256307722
N  N40  1  0.98590000  0.70580000  0.55590000  0.12 -0.1256307722
N  N41  1  0.45990000  0.98340000  0.58280000  0.12 -0.1256307722
N  N42  1  0.44410000  0.01410000  0.70580000  0.12 -0.1192180182
N  N43  1  0.54010000  0.98340000  0.41720000  0.12 -0.1256307722
N  N44  1  0.55590000  0.01410000  0.29420000  0.12 -0.1192180182
N  N45  1  0.45990000  0.01660000  0.41720000  0.12 -0.1256307722
N  N46  1  0.44410000  0.98590000  0.29420000  0.12 -0.1256307722
N  N47  1  0.54010000  0.01660000  0.58280000  0.12 -0.1256307722
N  N48  1  0.55590000  0.98590000  0.70580000  0.12 -0.1256307722
O  O1  1  0.55220000  0.73980000  0.08930000  1.0 -0.567571592
O  O2  1  0.59140000  0.68850000  0.05110000  1.0 -0.4973745363
O  O3  1  0.44780000  0.26020000  0.08930000  1.0 -0.567571592
O  O4  1  0.40860000  0.31150000  0.05110000  1.0 -0.4973745363
O  O5  1  0.44780000  0.73980000  0.91070000  1.0 -0.567571592
O  O6  1  0.40860000  0.68850000  0.94890000  1.0 -0.4973745363
O  O7  1  0.55220000  0.26020000  0.91070000  1.0 -0.567571592
O  O8  1  0.59140000  0.31150000  0.94890000  1.0 -0.4973745363
O  O9  1  0.08930000  0.55220000  0.73980000  1.0 -0.567571592
O  O10  1  0.05110000  0.59140000  0.68850000  1.0 -0.4973745363
O  O11  1  0.08930000  0.44780000  0.26020000  1.0 -0.567571592
O  O12  1  0.05110000  0.40860000  0.31150000  1.0 -0.4973745363
O  O13  1  0.91070000  0.44780000  0.73980000  1.0 -0.567571592
O  O14  1  0.94890000  0.40860000  0.68850000  1.0 -0.4973745363
O  O15  1  0.91070000  0.55220000  0.26020000  1.0 -0.567571592
O  O16  1  0.94890000  0.59140000  0.31150000  1.0 -0.4973745363
O  O17  1  0.73980000  0.08930000  0.55220000  1.0 -0.567571592
O  O18  1  0.68850000  0.05110000  0.59140000  1.0 -0.4973745363
O  O19  1  0.26020000  0.08930000  0.44780000  1.0 -0.567571592
O  O20  1  0.31150000  0.05110000  0.40860000  1.0 -0.4973745363
O  O21  1  0.73980000  0.91070000  0.44780000  1.0 -0.567571592
O  O22  1  0.68850000  0.94890000  0.40860000  1.0 -0.4973745363
O  O23  1  0.26020000  0.91070000  0.55220000  1.0 -0.567571592
O  O24  1  0.31150000  0.94890000  0.59140000  1.0 -0.4973745363
O  O25  1  0.44780000  0.26020000  0.91070000  1.0 -0.567571592
O  O26  1  0.40860000  0.31150000  0.94890000  1.0 -0.4973745363
O  O27  1  0.55220000  0.73980000  0.91070000  1.0 -0.567571592
O  O28  1  0.59140000  0.68850000  0.94890000  1.0 -0.4973745363
O  O29  1  0.55220000  0.26020000  0.08930000  1.0 -0.567571592
O  O30  1  0.59140000  0.31150000  0.05110000  1.0 -0.4973745363
O  O31  1  0.44780000  0.73980000  0.08930000  1.0 -0.567571592
O  O32  1  0.40860000  0.68850000  0.05110000  1.0 -0.4973745363
O  O33  1  0.91070000  0.44780000  0.26020000  1.0 -0.567571592
O  O34  1  0.94890000  0.40860000  0.31150000  1.0 -0.4973745363
O  O35  1  0.91070000  0.55220000  0.73980000  1.0 -0.567571592
O  O36  1  0.94890000  0.59140000  0.68850000  1.0 -0.4973745363
O  O37  1  0.08930000  0.55220000  0.26020000  1.0 -0.567571592
O  O38  1  0.05110000  0.59140000  0.31150000  1.0 -0.4973745363
O  O39  1  0.08930000  0.44780000  0.73980000  1.0 -0.567571592
O  O40  1  0.05110000  0.40860000  0.68850000  1.0 -0.4973745363
O  O41  1  0.26020000  0.91070000  0.44780000  1.0 -0.567571592
O  O42  1  0.31150000  0.94890000  0.40860000  1.0 -0.4973745363
O  O43  1  0.73980000  0.91070000  0.55220000  1.0 -0.567571592
O  O44  1  0.68850000  0.94890000  0.59140000  1.0 -0.4973745363
O  O45  1  0.26020000  0.08930000  0.55220000  1.0 -0.567571592
O  O46  1  0.31150000  0.05110000  0.59140000  1.0 -0.4973745363
O  O47  1  0.73980000  0.08930000  0.44780000  1.0 -0.567571592
O  O48  1  0.68850000  0.05110000  0.40860000  1.0 -0.4973745363
O  O49  1  0.53630000  0.61590000  0.00000000  1.0 -0.4973745363
O  O50  1  0.46370000  0.38410000  0.00000000  1.0 -0.4973745363
O  O51  1  0.46370000  0.61590000  0.00000000  1.0 -0.4973745363
O  O52  1  0.53630000  0.38410000  0.00000000  1.0 -0.4973745363
O  O53  1  0.00000000  0.53630000  0.61590000  1.0 -0.4973745363
O  O54  1  0.00000000  0.46370000  0.38410000  1.0 -0.4973745363
O  O55  1  0.00000000  0.46370000  0.61590000  1.0 -0.4973745363
O  O56  1  0.00000000  0.53630000  0.38410000  1.0 -0.4973745363
O  O57  1  0.61590000  0.00000000  0.53630000  1.0 -0.4973745363
O  O58  1  0.38410000  0.00000000  0.46370000  1.0 -0.4973745363
O  O59  1  0.61590000  0.00000000  0.46370000  1.0 -0.4973745363
O  O60  1  0.38410000  0.00000000  0.53630000  1.0 -0.4973745363
O  O61  1  0.50000000  0.81410000  0.03740000  1.0 -0.5464265463
O  O62  1  0.50000000  0.18590000  0.03740000  1.0 -0.5464265463
O  O63  1  0.50000000  0.81410000  0.96260000  1.0 -0.5464265463
O  O64  1  0.50000000  0.18590000  0.96260000  1.0 -0.5464265463
O  O65  1  0.03740000  0.50000000  0.81410000  1.0 -0.5464265463
O  O66  1  0.03740000  0.50000000  0.18590000  1.0 -0.5464265463
O  O67  1  0.96260000  0.50000000  0.81410000  1.0 -0.5464265463
O  O68  1  0.96260000  0.50000000  0.18590000  1.0 -0.5464265463
O  O69  1  0.81410000  0.03740000  0.50000000  1.0 -0.5464265463
O  O70  1  0.18590000  0.03740000  0.50000000  1.0 -0.5464265463
O  O71  1  0.81410000  0.96260000  0.50000000  1.0 -0.5464265463
O  O72  1  0.18590000  0.96260000  0.50000000  1.0 -0.5464265463
O  O73  1  0.50000000  0.71390000  0.00000000  1.0 -1.0100780842
O  O74  1  0.50000000  0.28610000  0.00000000  1.0 -1.0100780842
O  O75  1  0.00000000  0.50000000  0.71390000  1.0 -1.0100780842
O  O76  1  0.00000000  0.50000000  0.28610000  1.0 -1.0100780842
O  O77  1  0.71390000  0.00000000  0.50000000  1.0 -1.0100780842
O  O78  1  0.28610000  0.00000000  0.50000000  1.0 -1.0100780842
O  O79  1  0.36130000  0.48650000  0.02510000  0.12 -0.0380992978
O  O80  1  0.63870000  0.51350000  0.02510000  0.12 -0.0380992978
O  O81  1  0.63870000  0.48650000  0.97490000  0.12 -0.0380992978
O  O82  1  0.36130000  0.51350000  0.97490000  0.12 -0.0380992978
O  O83  1  0.02510000  0.36130000  0.48650000  0.12 -0.0380992978
O  O84  1  0.02510000  0.63870000  0.51350000  0.12 -0.0380992978
O  O85  1  0.97490000  0.63870000  0.48650000  0.12 -0.0380992978
O  O86  1  0.97490000  0.36130000  0.51350000  0.12 -0.0380992978
O  O87  1  0.48650000  0.02510000  0.36130000  0.12 -0.0380992978
O  O88  1  0.51350000  0.02510000  0.63870000  0.12 -0.0380992978
O  O89  1  0.48650000  0.97490000  0.63870000  0.12 -0.0380992978
O  O90  1  0.51350000  0.97490000  0.36130000  0.12 -0.0380992978
O  O91  1  0.63870000  0.51350000  0.97490000  0.12 -0.0380992978
O  O92  1  0.36130000  0.48650000  0.97490000  0.12 -0.0380992978
O  O93  1  0.36130000  0.51350000  0.02510000  0.12 -0.0380992978
O  O94  1  0.63870000  0.48650000  0.02510000  0.12 -0.0380992978
O  O95  1  0.97490000  0.63870000  0.51350000  0.12 -0.0380992978
O  O96  1  0.97490000  0.36130000  0.48650000  0.12 -0.0380992978
O  O97  1  0.02510000  0.36130000  0.51350000  0.12 -0.0380992978
O  O98  1  0.02510000  0.63870000  0.48650000  0.12 -0.0380992978
O  O99  1  0.51350000  0.97490000  0.63870000  0.12 -0.0380992978
O  O100  1  0.48650000  0.97490000  0.36130000  0.12 -0.0380992978
O  O101  1  0.51350000  0.02510000  0.36130000  0.12 -0.0380992978
O  O102  1  0.48650000  0.02510000  0.63870000  0.12 -0.0380992978
