# DDEC6 charges by PACMAN v1.1 (https://github.com/mtap-research/PACMAN-charge/)
data_2024[Zn][pcu]3[ASR]1
_chemical_formula_sum              "Zn20 H136 C240 O72"
_cell_length_a       23.26
_cell_length_b       26.336
_cell_length_c       31.857
_cell_angle_alpha    90
_cell_angle_beta     90
_cell_angle_gamma    90

_symmetry_space_group_name_H-M    "P 1"
_symmetry_Int_Tables_number       1

loop_
  _symmetry_equiv_pos_as_xyz
  'x, y, z'

loop_
  _atom_site_type_symbol
  _atom_site_label
  _atom_site_symmetry_multiplicity
  _atom_site_fract_x
  _atom_site_fract_y
  _atom_site_fract_z
  _atom_site_occupancy
  _atom_site_charge
Zn  Zn1       1.0  0.21545  0.65640  0.31903  1.0000 0.9505961264
Zn  Zn2       1.0  0.28455  0.84360  0.31903  1.0000 0.9505961264
Zn  Zn3       1.0  0.78455  0.15640  0.18097  1.0000 0.9505961264
Zn  Zn4       1.0  0.71545  0.34360  0.18097  1.0000 0.9505961264
Zn  Zn5       1.0  0.78455  0.34360  0.68097  1.0000 0.9505961264
Zn  Zn6       1.0  0.71545  0.15640  0.68097  1.0000 0.9505961264
Zn  Zn7       1.0  0.21545  0.84360  0.81903  1.0000 0.9505961264
Zn  Zn8       1.0  0.28455  0.65640  0.81903  1.0000 0.9505961264
Zn  Zn9       1.0  0.25000  0.75000  0.75039  1.0000 1.0231889659
Zn  Zn10      1.0  0.75000  0.25000  0.74961  1.0000 1.0231889659
Zn  Zn11      1.0  0.75000  0.25000  0.24961  1.0000 1.0231889659
Zn  Zn12      1.0  0.25000  0.75000  0.25039  1.0000 1.0231889659
Zn  Zn13      1.0  0.38260  0.72277  0.76733  1.0000 0.9551344985
Zn  Zn14      1.0  0.11740  0.77723  0.76733  1.0000 0.9551344985
Zn  Zn15      1.0  0.61740  0.22277  0.73267  1.0000 0.9551344985
Zn  Zn16      1.0  0.88260  0.27723  0.73267  1.0000 0.9551344985
Zn  Zn17      1.0  0.61740  0.27723  0.23267  1.0000 0.9551344985
Zn  Zn18      1.0  0.88260  0.22277  0.23267  1.0000 0.9551344985
Zn  Zn19      1.0  0.38260  0.77723  0.26733  1.0000 0.9551344985
Zn  Zn20      1.0  0.11740  0.72277  0.26733  1.0000 0.9551344985
H   H1        1.0  0.18360  0.74690  0.31490  1.0000 0.3796267981
H   H2        1.0  0.31640  0.75310  0.31490  1.0000 0.3796267981
H   H3        1.0  0.81640  0.24690  0.18510  1.0000 0.3796267981
H   H4        1.0  0.68360  0.25310  0.18510  1.0000 0.3796267981
H   H5        1.0  0.81640  0.25310  0.68510  1.0000 0.3796267981
H   H6        1.0  0.68360  0.24690  0.68510  1.0000 0.3796267981
H   H7        1.0  0.18360  0.75310  0.81490  1.0000 0.3796267981
H   H8        1.0  0.31640  0.74690  0.81490  1.0000 0.3796267981
H   H9        1.0  0.22938  0.66306  0.45871  1.0000 0.1411485001
H   H10       1.0  0.27062  0.83694  0.45871  1.0000 0.1411485001
H   H11       1.0  0.77062  0.16306  0.04129  1.0000 0.1411485001
H   H12       1.0  0.72938  0.33694  0.04129  1.0000 0.1411485001
H   H13       1.0  0.77062  0.33694  0.54129  1.0000 0.1411485001
H   H14       1.0  0.72938  0.16306  0.54129  1.0000 0.1411485001
H   H15       1.0  0.22938  0.83694  0.95871  1.0000 0.1411485001
H   H16       1.0  0.27062  0.66306  0.95871  1.0000 0.1411485001
H   H17       1.0  0.22050  0.69349  0.54749  1.0000 0.1293103837
H   H18       1.0  0.27950  0.80651  0.54749  1.0000 0.1293103837
H   H19       1.0  0.77950  0.19349  0.95251  1.0000 0.1293103837
H   H20       1.0  0.72050  0.30651  0.95251  1.0000 0.1293103837
H   H21       1.0  0.77950  0.30651  0.45251  1.0000 0.1293103837
H   H22       1.0  0.72050  0.19349  0.45251  1.0000 0.1293103837
H   H23       1.0  0.22050  0.80651  0.04749  1.0000 0.1293103837
H   H24       1.0  0.27950  0.69349  0.04749  1.0000 0.1293103837
H   H25       1.0  0.25319  0.64018  0.54829  1.0000 0.1411485001
H   H26       1.0  0.24681  0.85982  0.54829  1.0000 0.1411485001
H   H27       1.0  0.74681  0.14018  0.95171  1.0000 0.1411485001
H   H28       1.0  0.75319  0.35982  0.95171  1.0000 0.1411485001
H   H29       1.0  0.74681  0.35982  0.45171  1.0000 0.1411485001
H   H30       1.0  0.75319  0.14018  0.45171  1.0000 0.1411485001
H   H31       1.0  0.25319  0.85982  0.04829  1.0000 0.1411485001
H   H32       1.0  0.24681  0.64018  0.04829  1.0000 0.1411485001
H   H33       1.0  0.26698  0.68689  0.63287  1.0000 0.1411485001
H   H34       1.0  0.23302  0.81311  0.63287  1.0000 0.1411485001
H   H35       1.0  0.73302  0.18689  0.86713  1.0000 0.1411485001
H   H36       1.0  0.76698  0.31311  0.86713  1.0000 0.1411485001
H   H37       1.0  0.73302  0.31311  0.36713  1.0000 0.1411485001
H   H38       1.0  0.76698  0.18689  0.36713  1.0000 0.1411485001
H   H39       1.0  0.26698  0.81311  0.13287  1.0000 0.1411485001
H   H40       1.0  0.23302  0.68689  0.13287  1.0000 0.1411485001
H   H41       1.0  0.42319  0.75410  0.63401  1.0000 0.1293103837
H   H42       1.0  0.07681  0.74590  0.63401  1.0000 0.1293103837
H   H43       1.0  0.57681  0.25410  0.86599  1.0000 0.1234992838
H   H44       1.0  0.92319  0.24590  0.86599  1.0000 0.1234992838
H   H45       1.0  0.57681  0.24590  0.36599  1.0000 0.1234992838
H   H46       1.0  0.92319  0.25410  0.36599  1.0000 0.1234992838
H   H47       1.0  0.42319  0.74590  0.13401  1.0000 0.1234992838
H   H48       1.0  0.07681  0.75410  0.13401  1.0000 0.1234992838
H   H49       1.0  0.42504  0.75369  0.56082  1.0000 0.1234992838
H   H50       1.0  0.07496  0.74631  0.56082  1.0000 0.1234992838
H   H51       1.0  0.57496  0.25369  0.93918  1.0000 0.1234992838
H   H52       1.0  0.92504  0.24631  0.93918  1.0000 0.1234992838
H   H53       1.0  0.57496  0.24631  0.43918  1.0000 0.1234992838
H   H54       1.0  0.92504  0.25369  0.43918  1.0000 0.1234992838
H   H55       1.0  0.42504  0.74631  0.06082  1.0000 0.1234992838
H   H56       1.0  0.07496  0.75369  0.06082  1.0000 0.1234992838
H   H57       1.0  0.40522  0.74560  0.47775  1.0000 0.1234992838
H   H58       1.0  0.09478  0.75440  0.47775  1.0000 0.1234992838
H   H59       1.0  0.59478  0.24560  0.02225  1.0000 0.1234992838
H   H60       1.0  0.90522  0.25440  0.02225  1.0000 0.1234992838
H   H61       1.0  0.59478  0.25440  0.52225  1.0000 0.1234992838
H   H62       1.0  0.90522  0.24560  0.52225  1.0000 0.1234992838
H   H63       1.0  0.40522  0.75440  0.97775  1.0000 0.1234992838
H   H64       1.0  0.09478  0.74560  0.97775  1.0000 0.1234992838
H   H65       1.0  0.37174  0.72909  0.41109  1.0000 0.1293103837
H   H66       1.0  0.12826  0.77091  0.41109  1.0000 0.1293103837
H   H67       1.0  0.62826  0.22909  0.08891  1.0000 0.1293103837
H   H68       1.0  0.87174  0.27091  0.08891  1.0000 0.1293103837
H   H69       1.0  0.62826  0.27091  0.58891  1.0000 0.1293103837
H   H70       1.0  0.87174  0.22909  0.58891  1.0000 0.1293103837
H   H71       1.0  0.37174  0.77091  0.91109  1.0000 0.1293103837
H   H72       1.0  0.12826  0.72909  0.91109  1.0000 0.1293103837
H   H73       1.0  0.33289  0.54671  0.27596  1.0000 0.1293103837
H   H74       1.0  0.16711  0.95329  0.27596  1.0000 0.1293103837
H   H75       1.0  0.66711  0.04671  0.22404  1.0000 0.1293103837
H   H76       1.0  0.83289  0.45329  0.22404  1.0000 0.1293103837
H   H77       1.0  0.66711  0.45329  0.72404  1.0000 0.1293103837
H   H78       1.0  0.83289  0.04671  0.72404  1.0000 0.1293103837
H   H79       1.0  0.33289  0.95329  0.77596  1.0000 0.1293103837
H   H80       1.0  0.16711  0.54671  0.77596  1.0000 0.1293103837
H   H81       1.0  0.39189  0.45482  0.24495  1.0000 0.1293103837
H   H82       1.0  0.10811  0.04518  0.24495  1.0000 0.1293103837
H   H83       1.0  0.60811  0.95482  0.25505  1.0000 0.1293103837
H   H84       1.0  0.89189  0.54518  0.25505  1.0000 0.1293103837
H   H85       1.0  0.60811  0.54518  0.75505  1.0000 0.1293103837
H   H86       1.0  0.89189  0.95482  0.75505  1.0000 0.1293103837
H   H87       1.0  0.39189  0.04518  0.74495  1.0000 0.1293103837
H   H88       1.0  0.10811  0.45482  0.74495  1.0000 0.1293103837
H   H89       1.0  0.42587  0.47263  0.28599  1.0000 0.1293103837
H   H90       1.0  0.07413  0.02737  0.28599  1.0000 0.1293103837
H   H91       1.0  0.57413  0.97263  0.21401  1.0000 0.1293103837
H   H92       1.0  0.92587  0.52737  0.21401  1.0000 0.1293103837
H   H93       1.0  0.57413  0.52737  0.71401  1.0000 0.1293103837
H   H94       1.0  0.92587  0.97263  0.71401  1.0000 0.1293103837
H   H95       1.0  0.42587  0.02737  0.78599  1.0000 0.1293103837
H   H96       1.0  0.07413  0.47263  0.78599  1.0000 0.1293103837
H   H97       1.0  0.50198  0.39796  0.24420  1.0000 0.1293103837
H   H98       1.0  0.99802  0.10204  0.24420  1.0000 0.1293103837
H   H99       1.0  0.49802  0.89796  0.25580  1.0000 0.1293103837
H   H100      1.0  0.00198  0.60204  0.25580  1.0000 0.1293103837
H   H101      1.0  0.49802  0.60204  0.75580  1.0000 0.1293103837
H   H102      1.0  0.00198  0.89796  0.75580  1.0000 0.1293103837
H   H103      1.0  0.50198  0.10204  0.74420  1.0000 0.1293103837
H   H104      1.0  0.99802  0.39796  0.74420  1.0000 0.1293103837
H   H105      1.0  0.61257  0.47600  0.17026  1.0000 0.1293103837
H   H106      1.0  0.88743  0.02400  0.17026  1.0000 0.1293103837
H   H107      1.0  0.38743  0.97600  0.32974  1.0000 0.1293103837
H   H108      1.0  0.11257  0.52400  0.32974  1.0000 0.1293103837
H   H109      1.0  0.38743  0.52400  0.82974  1.0000 0.1293103837
H   H110      1.0  0.11257  0.97600  0.82974  1.0000 0.1293103837
H   H111      1.0  0.61257  0.02400  0.67026  1.0000 0.1293103837
H   H112      1.0  0.88743  0.47600  0.67026  1.0000 0.1293103837
H   H113      1.0  0.55606  0.54764  0.17572  1.0000 0.1234992838
H   H114      1.0  0.94394  0.95236  0.17572  1.0000 0.1234992838
H   H115      1.0  0.44394  0.04764  0.32428  1.0000 0.1234992838
H   H116      1.0  0.05606  0.45236  0.32428  1.0000 0.1234992838
H   H117      1.0  0.44394  0.45236  0.82428  1.0000 0.1234992838
H   H118      1.0  0.05606  0.04764  0.82428  1.0000 0.1234992838
H   H119      1.0  0.55606  0.95236  0.67572  1.0000 0.1234992838
H   H120      1.0  0.94394  0.54764  0.67572  1.0000 0.1234992838
H   H121      1.0  0.47450  0.61826  0.19049  1.0000 0.1234992838
H   H122      1.0  0.02550  0.88174  0.19049  1.0000 0.1234992838
H   H123      1.0  0.52550  0.11826  0.30951  1.0000 0.1234992838
H   H124      1.0  0.97450  0.38174  0.30951  1.0000 0.1234992838
H   H125      1.0  0.52550  0.38174  0.80951  1.0000 0.1234992838
H   H126      1.0  0.97450  0.11826  0.80951  1.0000 0.1234992838
H   H127      1.0  0.47450  0.88174  0.69049  1.0000 0.1234992838
H   H128      1.0  0.02550  0.61826  0.69049  1.0000 0.1234992838
H   H129      1.0  0.39536  0.66598  0.21109  1.0000 0.1234992838
H   H130      1.0  0.10464  0.83402  0.21109  1.0000 0.1234992838
H   H131      1.0  0.60464  0.16598  0.28891  1.0000 0.1234992838
H   H132      1.0  0.89536  0.33402  0.28891  1.0000 0.1234992838
H   H133      1.0  0.60464  0.33402  0.78891  1.0000 0.1234992838
H   H134      1.0  0.89536  0.16598  0.78891  1.0000 0.1234992838
H   H135      1.0  0.39536  0.83402  0.71109  1.0000 0.1234992838
H   H136      1.0  0.10464  0.66598  0.71109  1.0000 0.1234992838
C   C1        1.0  0.27636  0.68575  0.38435  1.0000 0.5571244234
C   C2        1.0  0.22364  0.81425  0.38435  1.0000 0.5571244234
C   C3        1.0  0.72364  0.18575  0.11565  1.0000 0.5571244234
C   C4        1.0  0.77636  0.31425  0.11565  1.0000 0.5571244234
C   C5        1.0  0.72364  0.31425  0.61565  1.0000 0.5571244234
C   C6        1.0  0.77636  0.18575  0.61565  1.0000 0.5571244234
C   C7        1.0  0.27636  0.81425  0.88435  1.0000 0.5571244234
C   C8        1.0  0.22364  0.68575  0.88435  1.0000 0.5571244234
C   C9        1.0  0.29739  0.69489  0.42812  1.0000 -0.0219862985
C   C10       1.0  0.20261  0.80511  0.42812  1.0000 -0.0219862985
C   C11       1.0  0.70261  0.19489  0.07188  1.0000 -0.0219862985
C   C12       1.0  0.79739  0.30511  0.07188  1.0000 -0.0219862985
C   C13       1.0  0.70261  0.30511  0.57188  1.0000 -0.0219862985
C   C14       1.0  0.79739  0.19489  0.57188  1.0000 -0.0219862985
C   C15       1.0  0.29739  0.80511  0.92812  1.0000 -0.0219862985
C   C16       1.0  0.20261  0.69489  0.92812  1.0000 -0.0219862985
C   C17       1.0  0.26479  0.67957  0.46269  1.0000 -0.1673907576
C   C18       1.0  0.23521  0.82043  0.46269  1.0000 -0.1673907576
C   C19       1.0  0.73521  0.17957  0.03731  1.0000 -0.1673907576
C   C20       1.0  0.76479  0.32043  0.03731  1.0000 -0.1673907576
C   C21       1.0  0.73521  0.32043  0.53731  1.0000 -0.1673907576
C   C22       1.0  0.76479  0.17957  0.53731  1.0000 -0.1673907576
C   C23       1.0  0.26479  0.82043  0.96269  1.0000 -0.1673907576
C   C24       1.0  0.23521  0.67957  0.96269  1.0000 -0.1673907576
C   C25       1.0  0.28475  0.68875  0.50247  1.0000 0.0727407662
C   C26       1.0  0.21525  0.81125  0.50247  1.0000 0.0727407662
C   C27       1.0  0.71525  0.18875  0.99753  1.0000 0.0727407662
C   C28       1.0  0.78475  0.31125  0.99753  1.0000 0.0727407662
C   C29       1.0  0.71525  0.31125  0.49753  1.0000 0.0727407662
C   C30       1.0  0.78475  0.18875  0.49753  1.0000 0.0727407662
C   C31       1.0  0.28475  0.81125  0.00247  1.0000 0.0727407662
C   C32       1.0  0.21525  0.68875  0.00247  1.0000 0.0727407662
C   C33       1.0  0.25796  0.67686  0.54446  1.0000 -0.2855257219
C   C34       1.0  0.24204  0.82314  0.54446  1.0000 -0.2855257219
C   C35       1.0  0.74204  0.17686  0.95554  1.0000 -0.2837605751
C   C36       1.0  0.75796  0.32314  0.95554  1.0000 -0.2837605751
C   C37       1.0  0.74204  0.32314  0.45554  1.0000 -0.2855257219
C   C38       1.0  0.75796  0.17686  0.45554  1.0000 -0.2855257219
C   C39       1.0  0.25796  0.82314  0.04446  1.0000 -0.2837605751
C   C40       1.0  0.24204  0.67686  0.04446  1.0000 -0.2837605751
C   C41       1.0  0.30103  0.69813  0.57503  1.0000 0.0727407662
C   C42       1.0  0.19897  0.80187  0.57503  1.0000 0.0727407662
C   C43       1.0  0.69897  0.19813  0.92497  1.0000 0.0727407662
C   C44       1.0  0.80103  0.30187  0.92497  1.0000 0.0727407662
C   C45       1.0  0.69897  0.30187  0.42497  1.0000 0.0727407662
C   C46       1.0  0.80103  0.19813  0.42497  1.0000 0.0727407662
C   C47       1.0  0.30103  0.80187  0.07503  1.0000 0.0727407662
C   C48       1.0  0.19897  0.69813  0.07503  1.0000 0.0727407662
C   C49       1.0  0.29901  0.69984  0.61840  1.0000 -0.1673907576
C   C50       1.0  0.20099  0.80016  0.61840  1.0000 -0.1673907576
C   C51       1.0  0.70099  0.19984  0.88160  1.0000 -0.1673907576
C   C52       1.0  0.79901  0.30016  0.88160  1.0000 -0.1673907576
C   C53       1.0  0.70099  0.30016  0.38160  1.0000 -0.1673907576
C   C54       1.0  0.79901  0.19984  0.38160  1.0000 -0.1673907576
C   C55       1.0  0.29901  0.80016  0.11840  1.0000 -0.1673907576
C   C56       1.0  0.20099  0.69984  0.11840  1.0000 -0.1673907576
C   C57       1.0  0.34490  0.72095  0.64046  1.0000 -0.0219862985
C   C58       1.0  0.15510  0.77905  0.64046  1.0000 -0.0219862985
C   C59       1.0  0.65510  0.22095  0.85954  1.0000 -0.0219862985
C   C60       1.0  0.84490  0.27905  0.85954  1.0000 -0.0219862985
C   C61       1.0  0.65510  0.27905  0.35954  1.0000 -0.0219862985
C   C62       1.0  0.84490  0.22095  0.35954  1.0000 -0.0219862985
C   C63       1.0  0.34490  0.77905  0.14046  1.0000 -0.0219862985
C   C64       1.0  0.15510  0.72095  0.14046  1.0000 -0.0219862985
C   C65       1.0  0.39210  0.74041  0.61892  1.0000 -0.1152080273
C   C66       1.0  0.10790  0.75959  0.61892  1.0000 -0.1152080273
C   C67       1.0  0.60790  0.24041  0.88108  1.0000 -0.1152080273
C   C68       1.0  0.89210  0.25959  0.88108  1.0000 -0.1152080273
C   C69       1.0  0.60790  0.25959  0.38108  1.0000 -0.1152080273
C   C70       1.0  0.89210  0.24041  0.38108  1.0000 -0.1152080273
C   C71       1.0  0.39210  0.75959  0.11892  1.0000 -0.1152080273
C   C72       1.0  0.10790  0.74041  0.11892  1.0000 -0.1152080273
C   C73       1.0  0.39364  0.73979  0.57542  1.0000 -0.1566162822
C   C74       1.0  0.10636  0.76021  0.57542  1.0000 -0.1566162822
C   C75       1.0  0.60636  0.23979  0.92458  1.0000 -0.1566162822
C   C76       1.0  0.89364  0.26021  0.92458  1.0000 -0.1566162822
C   C77       1.0  0.60636  0.26021  0.42458  1.0000 -0.1566162822
C   C78       1.0  0.89364  0.23979  0.42458  1.0000 -0.1566162822
C   C79       1.0  0.39364  0.76021  0.07542  1.0000 -0.1566162822
C   C80       1.0  0.10636  0.73979  0.07542  1.0000 -0.1566162822
C   C81       1.0  0.34798  0.71827  0.55388  1.0000 0.0202300184
C   C82       1.0  0.15202  0.78173  0.55388  1.0000 0.0202300184
C   C83       1.0  0.65202  0.21827  0.94612  1.0000 0.0202300184
C   C84       1.0  0.84798  0.28173  0.94612  1.0000 0.0202300184
C   C85       1.0  0.65202  0.28173  0.44612  1.0000 0.0202300184
C   C86       1.0  0.84798  0.21827  0.44612  1.0000 0.0202300184
C   C87       1.0  0.34798  0.78173  0.05388  1.0000 0.0202300184
C   C88       1.0  0.15202  0.71827  0.05388  1.0000 0.0202300184
C   C89       1.0  0.33756  0.71282  0.50833  1.0000 0.0202300184
C   C90       1.0  0.16244  0.78718  0.50833  1.0000 0.0202300184
C   C91       1.0  0.66244  0.21282  0.99167  1.0000 0.0202300184
C   C92       1.0  0.83756  0.28718  0.99167  1.0000 0.0202300184
C   C93       1.0  0.66244  0.28718  0.49167  1.0000 0.0202300184
C   C94       1.0  0.83756  0.21282  0.49167  1.0000 0.0202300184
C   C95       1.0  0.33756  0.78718  0.00833  1.0000 0.0202300184
C   C96       1.0  0.16244  0.71282  0.00833  1.0000 0.0202300184
C   C97       1.0  0.37005  0.72866  0.47386  1.0000 -0.1566162822
C   C98       1.0  0.12995  0.77134  0.47386  1.0000 -0.1566162822
C   C99       1.0  0.62995  0.22866  0.02614  1.0000 -0.1566162822
C   C100      1.0  0.87005  0.27134  0.02614  1.0000 -0.1566162822
C   C101      1.0  0.62995  0.27134  0.52614  1.0000 -0.1566162822
C   C102      1.0  0.87005  0.22866  0.52614  1.0000 -0.1566162822
C   C103      1.0  0.37005  0.77134  0.97386  1.0000 -0.1566162822
C   C104      1.0  0.12995  0.72866  0.97386  1.0000 -0.1566162822
C   C105      1.0  0.34980  0.71910  0.43446  1.0000 -0.1050916439
C   C106      1.0  0.15020  0.78090  0.43446  1.0000 -0.1050916439
C   C107      1.0  0.65020  0.21910  0.06554  1.0000 -0.1018277606
C   C108      1.0  0.84980  0.28090  0.06554  1.0000 -0.1018277606
C   C109      1.0  0.65020  0.28090  0.56554  1.0000 -0.1018277606
C   C110      1.0  0.84980  0.21910  0.56554  1.0000 -0.1018277606
C   C111      1.0  0.34980  0.78090  0.93446  1.0000 -0.1050916439
C   C112      1.0  0.15020  0.71910  0.93446  1.0000 -0.1050916439
C   C113      1.0  0.34323  0.72209  0.68734  1.0000 0.5930746073
C   C114      1.0  0.15677  0.77791  0.68734  1.0000 0.5930746073
C   C115      1.0  0.65677  0.22209  0.81266  1.0000 0.5930746073
C   C116      1.0  0.84323  0.27791  0.81266  1.0000 0.5930746073
C   C117      1.0  0.65677  0.27791  0.31266  1.0000 0.5930746073
C   C118      1.0  0.84323  0.22209  0.31266  1.0000 0.5930746073
C   C119      1.0  0.34323  0.77791  0.18734  1.0000 0.5930746073
C   C120      1.0  0.15677  0.72209  0.18734  1.0000 0.5930746073
C   C121      1.0  0.30801  0.64335  0.26066  1.0000 0.6077668542
C   C122      1.0  0.19199  0.85665  0.26066  1.0000 0.6077668542
C   C123      1.0  0.69199  0.14335  0.23934  1.0000 0.6077668542
C   C124      1.0  0.80801  0.35665  0.23934  1.0000 0.6077668542
C   C125      1.0  0.69199  0.35665  0.73934  1.0000 0.6077668542
C   C126      1.0  0.80801  0.14335  0.73934  1.0000 0.6077668542
C   C127      1.0  0.30801  0.85665  0.76066  1.0000 0.6077668542
C   C128      1.0  0.19199  0.64335  0.76066  1.0000 0.6077668542
C   C129      1.0  0.35699  0.61102  0.24586  1.0000 -0.0307493412
C   C130      1.0  0.14301  0.88898  0.24586  1.0000 -0.0307493412
C   C131      1.0  0.64301  0.11102  0.25414  1.0000 -0.0307493412
C   C132      1.0  0.85699  0.38898  0.25414  1.0000 -0.0307493412
C   C133      1.0  0.64301  0.38898  0.75414  1.0000 -0.0307493412
C   C134      1.0  0.85699  0.11102  0.75414  1.0000 -0.0307493412
C   C135      1.0  0.35699  0.88898  0.74586  1.0000 -0.0307493412
C   C136      1.0  0.14301  0.61102  0.74586  1.0000 -0.0307493412
C   C137      1.0  0.36128  0.56103  0.25862  1.0000 -0.1673907576
C   C138      1.0  0.13872  0.93897  0.25862  1.0000 -0.1673907576
C   C139      1.0  0.63872  0.06103  0.24138  1.0000 -0.1673907576
C   C140      1.0  0.86128  0.43897  0.24138  1.0000 -0.1673907576
C   C141      1.0  0.63872  0.43897  0.74138  1.0000 -0.1673907576
C   C142      1.0  0.86128  0.06103  0.74138  1.0000 -0.1673907576
C   C143      1.0  0.36128  0.93897  0.75862  1.0000 -0.1673907576
C   C144      1.0  0.13872  0.56103  0.75862  1.0000 -0.1673907576
C   C145      1.0  0.40767  0.53230  0.24566  1.0000 0.0727407662
C   C146      1.0  0.09233  0.96770  0.24566  1.0000 0.0727407662
C   C147      1.0  0.59233  0.03230  0.25434  1.0000 0.0727407662
C   C148      1.0  0.90767  0.46770  0.25434  1.0000 0.0727407662
C   C149      1.0  0.59233  0.46770  0.75434  1.0000 0.0727407662
C   C150      1.0  0.90767  0.03230  0.75434  1.0000 0.0727407662
C   C151      1.0  0.40767  0.96770  0.74566  1.0000 0.0806014227
C   C152      1.0  0.09233  0.53230  0.74566  1.0000 0.0806014227
C   C153      1.0  0.42154  0.47784  0.25570  1.0000 -0.2639149851
C   C154      1.0  0.07846  0.02216  0.25570  1.0000 -0.2639149851
C   C155      1.0  0.57846  0.97784  0.24430  1.0000 -0.2681067065
C   C156      1.0  0.92154  0.52216  0.24430  1.0000 -0.2681067065
C   C157      1.0  0.57846  0.52216  0.74430  1.0000 -0.2681067065
C   C158      1.0  0.92154  0.97784  0.74430  1.0000 -0.2681067065
C   C159      1.0  0.42154  0.02216  0.75570  1.0000 -0.2681067065
C   C160      1.0  0.07846  0.47784  0.75570  1.0000 -0.2681067065
C   C161      1.0  0.47838  0.47044  0.23280  1.0000 0.0727407662
C   C162      1.0  0.02162  0.02956  0.23280  1.0000 0.0727407662
C   C163      1.0  0.52162  0.97044  0.26720  1.0000 0.0806014227
C   C164      1.0  0.97838  0.52956  0.26720  1.0000 0.0806014227
C   C165      1.0  0.52162  0.52956  0.76720  1.0000 0.0806014227
C   C166      1.0  0.97838  0.97044  0.76720  1.0000 0.0806014227
C   C167      1.0  0.47838  0.02956  0.73280  1.0000 0.0727407662
C   C168      1.0  0.02162  0.47044  0.73280  1.0000 0.0727407662
C   C169      1.0  0.51283  0.42808  0.23050  1.0000 -0.1673907576
C   C170      1.0  0.98717  0.07192  0.23050  1.0000 -0.1673907576
C   C171      1.0  0.48717  0.92808  0.26950  1.0000 -0.1673907576
C   C172      1.0  0.01283  0.57192  0.26950  1.0000 -0.1673907576
C   C173      1.0  0.48717  0.57192  0.76950  1.0000 -0.1673907576
C   C174      1.0  0.01283  0.92808  0.76950  1.0000 -0.1673907576
C   C175      1.0  0.51283  0.07192  0.73050  1.0000 -0.1673907576
C   C176      1.0  0.98717  0.42808  0.73050  1.0000 -0.1673907576
C   C177      1.0  0.56418  0.43012  0.20760  1.0000 -0.0373671687
C   C178      1.0  0.93582  0.06988  0.20760  1.0000 -0.0373671687
C   C179      1.0  0.43582  0.93012  0.29240  1.0000 -0.0373671687
C   C180      1.0  0.06418  0.56988  0.29240  1.0000 -0.0373671687
C   C181      1.0  0.43582  0.56988  0.79240  1.0000 -0.0373671687
C   C182      1.0  0.06418  0.93012  0.79240  1.0000 -0.0373671687
C   C183      1.0  0.56418  0.06988  0.70760  1.0000 -0.0373671687
C   C184      1.0  0.93582  0.43012  0.70760  1.0000 -0.0373671687
C   C185      1.0  0.57888  0.47501  0.18654  1.0000 -0.0940516716
C   C186      1.0  0.92112  0.02499  0.18654  1.0000 -0.0940516716
C   C187      1.0  0.42112  0.97501  0.31346  1.0000 -0.0940516716
C   C188      1.0  0.07888  0.52499  0.31346  1.0000 -0.0940516716
C   C189      1.0  0.42112  0.52499  0.81346  1.0000 -0.1018277606
C   C190      1.0  0.07888  0.97501  0.81346  1.0000 -0.1018277606
C   C191      1.0  0.57888  0.02499  0.68654  1.0000 -0.0940516716
C   C192      1.0  0.92112  0.47501  0.68654  1.0000 -0.0940516716
C   C193      1.0  0.54509  0.51743  0.18924  1.0000 -0.1539041617
C   C194      1.0  0.95491  0.98257  0.18924  1.0000 -0.1539041617
C   C195      1.0  0.45491  0.01743  0.31076  1.0000 -0.1539041617
C   C196      1.0  0.04509  0.48257  0.31076  1.0000 -0.1566162822
C   C197      1.0  0.45491  0.48257  0.81076  1.0000 -0.1566162822
C   C198      1.0  0.04509  0.01743  0.81076  1.0000 -0.1566162822
C   C199      1.0  0.54509  0.98257  0.68924  1.0000 -0.1539041617
C   C200      1.0  0.95491  0.51743  0.68924  1.0000 -0.1539041617
C   C201      1.0  0.49431  0.51528  0.21224  1.0000 0.0132058105
C   C202      1.0  0.00569  0.98472  0.21224  1.0000 0.0132058105
C   C203      1.0  0.50569  0.01528  0.28776  1.0000 0.0202300184
C   C204      1.0  0.99431  0.48472  0.28776  1.0000 0.0202300184
C   C205      1.0  0.50569  0.48472  0.78776  1.0000 0.0132058105
C   C206      1.0  0.99431  0.01528  0.78776  1.0000 0.0132058105
C   C207      1.0  0.49431  0.98472  0.71224  1.0000 0.0132058105
C   C208      1.0  0.00569  0.51528  0.71224  1.0000 0.0132058105
C   C209      1.0  0.44955  0.55337  0.22023  1.0000 0.0132058105
C   C210      1.0  0.05045  0.94663  0.22023  1.0000 0.0132058105
C   C211      1.0  0.55045  0.05337  0.27977  1.0000 0.0132058105
C   C212      1.0  0.94955  0.44663  0.27977  1.0000 0.0132058105
C   C213      1.0  0.55045  0.44663  0.77977  1.0000 0.0202300184
C   C214      1.0  0.94955  0.05337  0.77977  1.0000 0.0202300184
C   C215      1.0  0.44955  0.94663  0.72023  1.0000 0.0132058105
C   C216      1.0  0.05045  0.55337  0.72023  1.0000 0.0132058105
C   C217      1.0  0.44574  0.60379  0.20741  1.0000 -0.1539041617
C   C218      1.0  0.05426  0.89621  0.20741  1.0000 -0.1539041617
C   C219      1.0  0.55426  0.10379  0.29259  1.0000 -0.1539041617
C   C220      1.0  0.94574  0.39621  0.29259  1.0000 -0.1539041617
C   C221      1.0  0.55426  0.39621  0.79259  1.0000 -0.1539041617
C   C222      1.0  0.94574  0.10379  0.79259  1.0000 -0.1539041617
C   C223      1.0  0.44574  0.89621  0.70741  1.0000 -0.1539041617
C   C224      1.0  0.05426  0.60379  0.70741  1.0000 -0.1539041617
C   C225      1.0  0.39896  0.63211  0.22002  1.0000 -0.1258722706
C   C226      1.0  0.10104  0.86789  0.22002  1.0000 -0.1258722706
C   C227      1.0  0.60104  0.13211  0.27998  1.0000 -0.1258722706
C   C228      1.0  0.89896  0.36789  0.27998  1.0000 -0.1258722706
C   C229      1.0  0.60104  0.36789  0.77998  1.0000 -0.1258722706
C   C230      1.0  0.89896  0.13211  0.77998  1.0000 -0.1258722706
C   C231      1.0  0.39896  0.86789  0.72002  1.0000 -0.1258722706
C   C232      1.0  0.10104  0.63211  0.72002  1.0000 -0.1258722706
C   C233      1.0  0.60281  0.38490  0.20557  1.0000 0.6004454667
C   C234      1.0  0.89719  0.11510  0.20557  1.0000 0.6004454667
C   C235      1.0  0.39719  0.88490  0.29443  1.0000 0.6004454667
C   C236      1.0  0.10281  0.61510  0.29443  1.0000 0.6004454667
C   C237      1.0  0.39719  0.61510  0.79443  1.0000 0.6004454667
C   C238      1.0  0.10281  0.88490  0.79443  1.0000 0.6004454667
C   C239      1.0  0.60281  0.11510  0.70557  1.0000 0.6004454667
C   C240      1.0  0.89719  0.38490  0.70557  1.0000 0.6004454667
O   O1        1.0  0.19179  0.72247  0.29629  1.0000 -0.8603958314
O   O2        1.0  0.30821  0.77753  0.29629  1.0000 -0.8603958314
O   O3        1.0  0.80821  0.22247  0.20371  1.0000 -0.8603958314
O   O4        1.0  0.69179  0.27753  0.20371  1.0000 -0.8603958314
O   O5        1.0  0.80821  0.27753  0.70371  1.0000 -0.8603958314
O   O6        1.0  0.69179  0.22247  0.70371  1.0000 -0.8603958314
O   O7        1.0  0.19179  0.77753  0.79629  1.0000 -0.8603958314
O   O8        1.0  0.30821  0.72247  0.79629  1.0000 -0.8603958314
O   O9        1.0  0.23066  0.65982  0.37953  1.0000 -0.5370238623
O   O10       1.0  0.26934  0.84018  0.37953  1.0000 -0.5370238623
O   O11       1.0  0.76934  0.15982  0.12047  1.0000 -0.5370238623
O   O12       1.0  0.73066  0.34018  0.12047  1.0000 -0.5370238623
O   O13       1.0  0.76934  0.34018  0.62047  1.0000 -0.5370238623
O   O14       1.0  0.73066  0.15982  0.62047  1.0000 -0.5370238623
O   O15       1.0  0.23066  0.84018  0.87953  1.0000 -0.5370238623
O   O16       1.0  0.26934  0.65982  0.87953  1.0000 -0.5370238623
O   O17       1.0  0.30475  0.70292  0.35421  1.0000 -0.5288863182
O   O18       1.0  0.19525  0.79708  0.35421  1.0000 -0.5288863182
O   O19       1.0  0.69525  0.20292  0.14579  1.0000 -0.5288863182
O   O20       1.0  0.80475  0.29708  0.14579  1.0000 -0.5288863182
O   O21       1.0  0.69525  0.29708  0.64579  1.0000 -0.5288863182
O   O22       1.0  0.80475  0.20292  0.64579  1.0000 -0.5288863182
O   O23       1.0  0.30475  0.79708  0.85421  1.0000 -0.5288863182
O   O24       1.0  0.19525  0.70292  0.85421  1.0000 -0.5288863182
O   O25       1.0  0.29616  0.71154  0.70484  1.0000 -0.5523002571
O   O26       1.0  0.20384  0.78846  0.70484  1.0000 -0.5523002571
O   O27       1.0  0.70384  0.21154  0.79516  1.0000 -0.5523002571
O   O28       1.0  0.79616  0.28846  0.79516  1.0000 -0.5523002571
O   O29       1.0  0.70384  0.28846  0.29516  1.0000 -0.5523002571
O   O30       1.0  0.79616  0.21154  0.29516  1.0000 -0.5523002571
O   O31       1.0  0.29616  0.78846  0.20484  1.0000 -0.5523002571
O   O32       1.0  0.20384  0.71154  0.20484  1.0000 -0.5523002571
O   O33       1.0  0.38898  0.73244  0.70688  1.0000 -0.5370238623
O   O34       1.0  0.11102  0.76756  0.70688  1.0000 -0.5370238623
O   O35       1.0  0.61102  0.23244  0.79312  1.0000 -0.5370238623
O   O36       1.0  0.88898  0.26756  0.79312  1.0000 -0.5370238623
O   O37       1.0  0.61102  0.26756  0.29312  1.0000 -0.5370238623
O   O38       1.0  0.88898  0.23244  0.29312  1.0000 -0.5370238623
O   O39       1.0  0.38898  0.76756  0.20688  1.0000 -0.5370238623
O   O40       1.0  0.11102  0.73244  0.20688  1.0000 -0.5370238623
O   O41       1.0  0.27080  0.62161  0.28341  1.0000 -0.5288863182
O   O42       1.0  0.22920  0.87839  0.28341  1.0000 -0.5288863182
O   O43       1.0  0.72920  0.12161  0.21659  1.0000 -0.5288863182
O   O44       1.0  0.77080  0.37839  0.21659  1.0000 -0.5288863182
O   O45       1.0  0.72920  0.37839  0.71659  1.0000 -0.5288863182
O   O46       1.0  0.77080  0.12161  0.71659  1.0000 -0.5288863182
O   O47       1.0  0.27080  0.87839  0.78341  1.0000 -0.5288863182
O   O48       1.0  0.22920  0.62161  0.78341  1.0000 -0.5288863182
O   O49       1.0  0.30695  0.68889  0.25020  1.0000 -0.5659683174
O   O50       1.0  0.19305  0.81111  0.25020  1.0000 -0.5659683174
O   O51       1.0  0.69305  0.18889  0.24980  1.0000 -0.5659683174
O   O52       1.0  0.80695  0.31111  0.24980  1.0000 -0.5659683174
O   O53       1.0  0.69305  0.31111  0.74980  1.0000 -0.5659683174
O   O54       1.0  0.80695  0.18889  0.74980  1.0000 -0.5659683174
O   O55       1.0  0.30695  0.81111  0.75020  1.0000 -0.5659683174
O   O56       1.0  0.19305  0.68889  0.75020  1.0000 -0.5659683174
O   O57       1.0  0.58620  0.34587  0.22498  1.0000 -0.5583534664
O   O58       1.0  0.91380  0.15413  0.22498  1.0000 -0.5583534664
O   O59       1.0  0.41380  0.84587  0.27502  1.0000 -0.5583534664
O   O60       1.0  0.08620  0.65413  0.27502  1.0000 -0.5583534664
O   O61       1.0  0.41380  0.65413  0.77502  1.0000 -0.5583534664
O   O62       1.0  0.08620  0.84587  0.77502  1.0000 -0.5583534664
O   O63       1.0  0.58620  0.15413  0.72498  1.0000 -0.5583534664
O   O64       1.0  0.91380  0.34587  0.72498  1.0000 -0.5583534664
O   O65       1.0  0.64814  0.38916  0.18513  1.0000 -0.5288863182
O   O66       1.0  0.85186  0.11084  0.18513  1.0000 -0.5288863182
O   O67       1.0  0.35186  0.88916  0.31487  1.0000 -0.5288863182
O   O68       1.0  0.14814  0.61084  0.31487  1.0000 -0.5288863182
O   O69       1.0  0.35186  0.61084  0.81487  1.0000 -0.5288863182
O   O70       1.0  0.14814  0.88916  0.81487  1.0000 -0.5288863182
O   O71       1.0  0.64814  0.11084  0.68513  1.0000 -0.5288863182
O   O72       1.0  0.85186  0.38916  0.68513  1.0000 -0.5288863182
