# DDEC6 charges by PACMAN v1.1 (https://github.com/mtap-research/PACMAN-charge/)
data_ja9b05580_si_002_FSR_pacman
_symmetry_space_group_name_H-M   'P 1'
_cell_length_a   43.49170000
_cell_length_b   43.49170000
_cell_length_c   43.49170000
_cell_angle_alpha   90.00000000
_cell_angle_beta   90.00000000
_cell_angle_gamma   90.00000000
_symmetry_Int_Tables_number   1
_chemical_formula_structural   Zn21H160C312(NO3)20
_chemical_formula_sum   'Zn63 H480 C936 N60 O180'
_cell_volume   82265.76696457
_cell_formula_units_Z   3
loop_
 _symmetry_equiv_pos_site_id
 _symmetry_equiv_pos_as_xyz
  1  'x, y, z'
loop_
 _atom_site_type_symbol
 _atom_site_label
 _atom_site_symmetry_multiplicity
 _atom_site_fract_x
 _atom_site_fract_y
 _atom_site_fract_z
 _atom_site_occupancy
 _atom_site_charge
Zn  Zn1  1  0.31031000  0.31031000  0.03668000  1.0 0.9357706955
Zn  Zn2  1  0.68969000  0.68969000  0.03668000  1.0 0.9357706955
Zn  Zn3  1  0.68969000  0.31031000  0.96332000  1.0 0.9357706955
Zn  Zn4  1  0.31031000  0.68969000  0.96332000  1.0 0.9357706955
Zn  Zn5  1  0.03668000  0.31031000  0.31031000  1.0 0.9357706955
Zn  Zn6  1  0.03668000  0.68969000  0.68969000  1.0 0.9357706955
Zn  Zn7  1  0.96332000  0.68969000  0.31031000  1.0 0.9357706955
Zn  Zn8  1  0.96332000  0.31031000  0.68969000  1.0 0.9357706955
Zn  Zn9  1  0.31031000  0.03668000  0.31031000  1.0 0.9357706955
Zn  Zn10  1  0.68969000  0.03668000  0.68969000  1.0 0.9357706955
Zn  Zn11  1  0.31031000  0.96332000  0.68969000  1.0 0.9357706955
Zn  Zn12  1  0.68969000  0.96332000  0.31031000  1.0 0.9357706955
Zn  Zn13  1  0.31031000  0.31031000  0.96332000  1.0 0.9357706955
Zn  Zn14  1  0.68969000  0.68969000  0.96332000  1.0 0.9357706955
Zn  Zn15  1  0.31031000  0.68969000  0.03668000  1.0 0.9357706955
Zn  Zn16  1  0.68969000  0.31031000  0.03668000  1.0 0.9357706955
Zn  Zn17  1  0.31031000  0.03668000  0.68969000  1.0 0.9357706955
Zn  Zn18  1  0.68969000  0.03668000  0.31031000  1.0 0.9357706955
Zn  Zn19  1  0.68969000  0.96332000  0.68969000  1.0 0.9357706955
Zn  Zn20  1  0.31031000  0.96332000  0.31031000  1.0 0.9357706955
Zn  Zn21  1  0.03668000  0.31031000  0.68969000  1.0 0.9357706955
Zn  Zn22  1  0.03668000  0.68969000  0.31031000  1.0 0.9357706955
Zn  Zn23  1  0.96332000  0.31031000  0.31031000  1.0 0.9357706955
Zn  Zn24  1  0.96332000  0.68969000  0.68969000  1.0 0.9357706955
Zn  Zn25  1  0.29915000  0.24816000  0.00000000  1.0 0.9655091391
Zn  Zn26  1  0.70085000  0.75184000  0.00000000  1.0 0.9655091391
Zn  Zn27  1  0.70085000  0.24816000  0.00000000  1.0 0.9655091391
Zn  Zn28  1  0.29915000  0.75184000  0.00000000  1.0 0.9655091391
Zn  Zn29  1  0.00000000  0.29915000  0.24816000  1.0 0.9655091391
Zn  Zn30  1  0.00000000  0.70085000  0.75184000  1.0 0.9655091391
Zn  Zn31  1  0.00000000  0.70085000  0.24816000  1.0 0.9655091391
Zn  Zn32  1  0.00000000  0.29915000  0.75184000  1.0 0.9655091391
Zn  Zn33  1  0.24816000  0.00000000  0.29915000  1.0 0.9655091391
Zn  Zn34  1  0.75184000  0.00000000  0.70085000  1.0 0.9655091391
Zn  Zn35  1  0.24816000  0.00000000  0.70085000  1.0 0.9655091391
Zn  Zn36  1  0.75184000  0.00000000  0.29915000  1.0 0.9655091391
Zn  Zn37  1  0.24816000  0.29915000  0.00000000  1.0 0.9655091391
Zn  Zn38  1  0.75184000  0.70085000  0.00000000  1.0 0.9655091391
Zn  Zn39  1  0.24816000  0.70085000  0.00000000  1.0 0.9655091391
Zn  Zn40  1  0.75184000  0.29915000  0.00000000  1.0 0.9655091391
Zn  Zn41  1  0.29915000  0.00000000  0.75184000  1.0 0.9655091391
Zn  Zn42  1  0.70085000  0.00000000  0.24816000  1.0 0.9655091391
Zn  Zn43  1  0.70085000  0.00000000  0.75184000  1.0 0.9655091391
Zn  Zn44  1  0.29915000  0.00000000  0.24816000  1.0 0.9655091391
Zn  Zn45  1  0.00000000  0.24816000  0.70085000  1.0 0.9655091391
Zn  Zn46  1  0.00000000  0.75184000  0.29915000  1.0 0.9655091391
Zn  Zn47  1  0.00000000  0.24816000  0.29915000  1.0 0.9655091391
Zn  Zn48  1  0.00000000  0.75184000  0.70085000  1.0 0.9655091391
Zn  Zn49  1  0.16375000  0.50000000  0.16375000  1.0 0.6285157786
Zn  Zn50  1  0.83625000  0.50000000  0.16375000  1.0 0.6285157786
Zn  Zn51  1  0.83625000  0.50000000  0.83625000  1.0 0.6285157786
Zn  Zn52  1  0.16375000  0.50000000  0.83625000  1.0 0.6285157786
Zn  Zn53  1  0.16375000  0.16375000  0.50000000  1.0 0.6285157786
Zn  Zn54  1  0.16375000  0.83625000  0.50000000  1.0 0.6285157786
Zn  Zn55  1  0.83625000  0.83625000  0.50000000  1.0 0.6285157786
Zn  Zn56  1  0.83625000  0.16375000  0.50000000  1.0 0.6285157786
Zn  Zn57  1  0.50000000  0.16375000  0.16375000  1.0 0.6285157786
Zn  Zn58  1  0.50000000  0.16375000  0.83625000  1.0 0.6285157786
Zn  Zn59  1  0.50000000  0.83625000  0.83625000  1.0 0.6285157786
Zn  Zn60  1  0.50000000  0.83625000  0.16375000  1.0 0.6285157786
Zn  Zn61  1  0.50000000  0.50000000  0.00000000  1.0 0.6285157786
Zn  Zn62  1  0.00000000  0.50000000  0.50000000  1.0 0.6285157786
Zn  Zn63  1  0.50000000  0.00000000  0.50000000  1.0 0.6285157786
H  H1  1  0.24260000  0.47110000  0.07990000  1.0 0.1280851953
H  H2  1  0.20850000  0.37730000  0.04330000  1.0 0.1280851953
H  H3  1  0.18200000  0.38650000  0.14200000  1.0 0.1280851953
H  H4  1  0.27580000  0.37360000  0.10380000  1.0 0.122330379
H  H5  1  0.18570000  0.41800000  0.07110000  1.0 0.122330379
H  H6  1  0.19810000  0.26010000  0.07610000  1.0 0.1362642523
H  H7  1  0.25380000  0.41450000  0.13140000  1.0 0.122330379
H  H8  1  0.17270000  0.23530000  0.11480000  1.0 0.122330379
H  H9  1  0.75740000  0.52890000  0.07990000  1.0 0.1280851953
H  H10  1  0.79150000  0.62270000  0.04330000  1.0 0.1280851953
H  H11  1  0.81800000  0.61350000  0.14200000  1.0 0.1280851953
H  H12  1  0.72420000  0.62640000  0.10380000  1.0 0.122330379
H  H13  1  0.81430000  0.58200000  0.07110000  1.0 0.122330379
H  H14  1  0.80190000  0.73990000  0.07610000  1.0 0.1362642523
H  H15  1  0.74620000  0.58550000  0.13140000  1.0 0.122330379
H  H16  1  0.82730000  0.76470000  0.11480000  1.0 0.122330379
H  H17  1  0.75740000  0.47110000  0.92010000  1.0 0.1280851953
H  H18  1  0.79150000  0.37730000  0.95670000  1.0 0.1280851953
H  H19  1  0.81800000  0.38650000  0.85800000  1.0 0.1280851953
H  H20  1  0.72420000  0.37360000  0.89620000  1.0 0.122330379
H  H21  1  0.81430000  0.41800000  0.92890000  1.0 0.122330379
H  H22  1  0.80190000  0.26010000  0.92390000  1.0 0.1362642523
H  H23  1  0.74620000  0.41450000  0.86860000  1.0 0.122330379
H  H24  1  0.82730000  0.23530000  0.88520000  1.0 0.122330379
H  H25  1  0.24260000  0.52890000  0.92010000  1.0 0.1280851953
H  H26  1  0.20850000  0.62270000  0.95670000  1.0 0.1280851953
H  H27  1  0.18200000  0.61350000  0.85800000  1.0 0.1280851953
H  H28  1  0.27580000  0.62640000  0.89620000  1.0 0.122330379
H  H29  1  0.18570000  0.58200000  0.92890000  1.0 0.122330379
H  H30  1  0.19810000  0.73990000  0.92390000  1.0 0.1362642523
H  H31  1  0.25380000  0.58550000  0.86860000  1.0 0.122330379
H  H32  1  0.17270000  0.76470000  0.88520000  1.0 0.122330379
H  H33  1  0.07990000  0.24260000  0.47110000  1.0 0.1280851953
H  H34  1  0.04330000  0.20850000  0.37730000  1.0 0.1280851953
H  H35  1  0.14200000  0.18200000  0.38650000  1.0 0.1280851953
H  H36  1  0.10380000  0.27580000  0.37360000  1.0 0.122330379
H  H37  1  0.07110000  0.18570000  0.41800000  1.0 0.122330379
H  H38  1  0.07610000  0.19810000  0.26010000  1.0 0.1362642523
H  H39  1  0.13140000  0.25380000  0.41450000  1.0 0.122330379
H  H40  1  0.11480000  0.17270000  0.23530000  1.0 0.122330379
H  H41  1  0.07990000  0.75740000  0.52890000  1.0 0.1280851953
H  H42  1  0.04330000  0.79150000  0.62270000  1.0 0.1280851953
H  H43  1  0.14200000  0.81800000  0.61350000  1.0 0.1280851953
H  H44  1  0.10380000  0.72420000  0.62640000  1.0 0.122330379
H  H45  1  0.07110000  0.81430000  0.58200000  1.0 0.122330379
H  H46  1  0.07610000  0.80190000  0.73990000  1.0 0.1362642523
H  H47  1  0.13140000  0.74620000  0.58550000  1.0 0.122330379
H  H48  1  0.11480000  0.82730000  0.76470000  1.0 0.122330379
H  H49  1  0.92010000  0.75740000  0.47110000  1.0 0.1280851953
H  H50  1  0.95670000  0.79150000  0.37730000  1.0 0.1280851953
H  H51  1  0.85800000  0.81800000  0.38650000  1.0 0.1280851953
H  H52  1  0.89620000  0.72420000  0.37360000  1.0 0.122330379
H  H53  1  0.92890000  0.81430000  0.41800000  1.0 0.122330379
H  H54  1  0.92390000  0.80190000  0.26010000  1.0 0.1362642523
H  H55  1  0.86860000  0.74620000  0.41450000  1.0 0.122330379
H  H56  1  0.88520000  0.82730000  0.23530000  1.0 0.122330379
H  H57  1  0.92010000  0.24260000  0.52890000  1.0 0.1280851953
H  H58  1  0.95670000  0.20850000  0.62270000  1.0 0.1280851953
H  H59  1  0.85800000  0.18200000  0.61350000  1.0 0.1280851953
H  H60  1  0.89620000  0.27580000  0.62640000  1.0 0.122330379
H  H61  1  0.92890000  0.18570000  0.58200000  1.0 0.122330379
H  H62  1  0.92390000  0.19810000  0.73990000  1.0 0.1362642523
H  H63  1  0.86860000  0.25380000  0.58550000  1.0 0.122330379
H  H64  1  0.88520000  0.17270000  0.76470000  1.0 0.122330379
H  H65  1  0.47110000  0.07990000  0.24260000  1.0 0.1280851953
H  H66  1  0.37730000  0.04330000  0.20850000  1.0 0.1280851953
H  H67  1  0.38650000  0.14200000  0.18200000  1.0 0.1280851953
H  H68  1  0.37360000  0.10380000  0.27580000  1.0 0.122330379
H  H69  1  0.41800000  0.07110000  0.18570000  1.0 0.122330379
H  H70  1  0.26010000  0.07610000  0.19810000  1.0 0.1362642523
H  H71  1  0.41450000  0.13140000  0.25380000  1.0 0.122330379
H  H72  1  0.23530000  0.11480000  0.17270000  1.0 0.122330379
H  H73  1  0.52890000  0.07990000  0.75740000  1.0 0.1280851953
H  H74  1  0.62270000  0.04330000  0.79150000  1.0 0.1280851953
H  H75  1  0.61350000  0.14200000  0.81800000  1.0 0.1280851953
H  H76  1  0.62640000  0.10380000  0.72420000  1.0 0.122330379
H  H77  1  0.58200000  0.07110000  0.81430000  1.0 0.122330379
H  H78  1  0.73990000  0.07610000  0.80190000  1.0 0.1362642523
H  H79  1  0.58550000  0.13140000  0.74620000  1.0 0.122330379
H  H80  1  0.76470000  0.11480000  0.82730000  1.0 0.122330379
H  H81  1  0.47110000  0.92010000  0.75740000  1.0 0.1280851953
H  H82  1  0.37730000  0.95670000  0.79150000  1.0 0.1280851953
H  H83  1  0.38650000  0.85800000  0.81800000  1.0 0.1280851953
H  H84  1  0.37360000  0.89620000  0.72420000  1.0 0.122330379
H  H85  1  0.41800000  0.92890000  0.81430000  1.0 0.122330379
H  H86  1  0.26010000  0.92390000  0.80190000  1.0 0.1362642523
H  H87  1  0.41450000  0.86860000  0.74620000  1.0 0.122330379
H  H88  1  0.23530000  0.88520000  0.82730000  1.0 0.122330379
H  H89  1  0.52890000  0.92010000  0.24260000  1.0 0.1280851953
H  H90  1  0.62270000  0.95670000  0.20850000  1.0 0.1280851953
H  H91  1  0.61350000  0.85800000  0.18200000  1.0 0.1280851953
H  H92  1  0.62640000  0.89620000  0.27580000  1.0 0.122330379
H  H93  1  0.58200000  0.92890000  0.18570000  1.0 0.122330379
H  H94  1  0.73990000  0.92390000  0.19810000  1.0 0.1362642523
H  H95  1  0.58550000  0.86860000  0.25380000  1.0 0.122330379
H  H96  1  0.76470000  0.88520000  0.17270000  1.0 0.122330379
H  H97  1  0.47110000  0.24260000  0.92010000  1.0 0.1280851953
H  H98  1  0.37730000  0.20850000  0.95670000  1.0 0.1280851953
H  H99  1  0.38650000  0.18200000  0.85800000  1.0 0.1280851953
H  H100  1  0.37360000  0.27580000  0.89620000  1.0 0.122330379
H  H101  1  0.41800000  0.18570000  0.92890000  1.0 0.122330379
H  H102  1  0.26010000  0.19810000  0.92390000  1.0 0.1362642523
H  H103  1  0.41450000  0.25380000  0.86860000  1.0 0.122330379
H  H104  1  0.23530000  0.17270000  0.88520000  1.0 0.122330379
H  H105  1  0.52890000  0.75740000  0.92010000  1.0 0.1280851953
H  H106  1  0.62270000  0.79150000  0.95670000  1.0 0.1280851953
H  H107  1  0.61350000  0.81800000  0.85800000  1.0 0.1280851953
H  H108  1  0.62640000  0.72420000  0.89620000  1.0 0.122330379
H  H109  1  0.58200000  0.81430000  0.92890000  1.0 0.122330379
H  H110  1  0.73990000  0.80190000  0.92390000  1.0 0.1362642523
H  H111  1  0.58550000  0.74620000  0.86860000  1.0 0.122330379
H  H112  1  0.76470000  0.82730000  0.88520000  1.0 0.122330379
H  H113  1  0.47110000  0.75740000  0.07990000  1.0 0.1280851953
H  H114  1  0.37730000  0.79150000  0.04330000  1.0 0.1280851953
H  H115  1  0.38650000  0.81800000  0.14200000  1.0 0.1280851953
H  H116  1  0.37360000  0.72420000  0.10380000  1.0 0.122330379
H  H117  1  0.41800000  0.81430000  0.07110000  1.0 0.122330379
H  H118  1  0.26010000  0.80190000  0.07610000  1.0 0.1362642523
H  H119  1  0.41450000  0.74620000  0.13140000  1.0 0.122330379
H  H120  1  0.23530000  0.82730000  0.11480000  1.0 0.122330379
H  H121  1  0.52890000  0.24260000  0.07990000  1.0 0.1280851953
H  H122  1  0.62270000  0.20850000  0.04330000  1.0 0.1280851953
H  H123  1  0.61350000  0.18200000  0.14200000  1.0 0.1280851953
H  H124  1  0.62640000  0.27580000  0.10380000  1.0 0.122330379
H  H125  1  0.58200000  0.18570000  0.07110000  1.0 0.122330379
H  H126  1  0.73990000  0.19810000  0.07610000  1.0 0.1362642523
H  H127  1  0.58550000  0.25380000  0.13140000  1.0 0.122330379
H  H128  1  0.76470000  0.17270000  0.11480000  1.0 0.122330379
H  H129  1  0.24260000  0.07990000  0.52890000  1.0 0.1280851953
H  H130  1  0.20850000  0.04330000  0.62270000  1.0 0.1280851953
H  H131  1  0.18200000  0.14200000  0.61350000  1.0 0.1280851953
H  H132  1  0.27580000  0.10380000  0.62640000  1.0 0.122330379
H  H133  1  0.18570000  0.07110000  0.58200000  1.0 0.122330379
H  H134  1  0.19810000  0.07610000  0.73990000  1.0 0.1362642523
H  H135  1  0.25380000  0.13140000  0.58550000  1.0 0.122330379
H  H136  1  0.17270000  0.11480000  0.76470000  1.0 0.122330379
H  H137  1  0.75740000  0.07990000  0.47110000  1.0 0.1280851953
H  H138  1  0.79150000  0.04330000  0.37730000  1.0 0.1280851953
H  H139  1  0.81800000  0.14200000  0.38650000  1.0 0.1280851953
H  H140  1  0.72420000  0.10380000  0.37360000  1.0 0.122330379
H  H141  1  0.81430000  0.07110000  0.41800000  1.0 0.122330379
H  H142  1  0.80190000  0.07610000  0.26010000  1.0 0.1362642523
H  H143  1  0.74620000  0.13140000  0.41450000  1.0 0.122330379
H  H144  1  0.82730000  0.11480000  0.23530000  1.0 0.122330379
H  H145  1  0.75740000  0.92010000  0.52890000  1.0 0.1280851953
H  H146  1  0.79150000  0.95670000  0.62270000  1.0 0.1280851953
H  H147  1  0.81800000  0.85800000  0.61350000  1.0 0.1280851953
H  H148  1  0.72420000  0.89620000  0.62640000  1.0 0.122330379
H  H149  1  0.81430000  0.92890000  0.58200000  1.0 0.122330379
H  H150  1  0.80190000  0.92390000  0.73990000  1.0 0.1362642523
H  H151  1  0.74620000  0.86860000  0.58550000  1.0 0.122330379
H  H152  1  0.82730000  0.88520000  0.76470000  1.0 0.122330379
H  H153  1  0.24260000  0.92010000  0.47110000  1.0 0.1280851953
H  H154  1  0.20850000  0.95670000  0.37730000  1.0 0.1280851953
H  H155  1  0.18200000  0.85800000  0.38650000  1.0 0.1280851953
H  H156  1  0.27580000  0.89620000  0.37360000  1.0 0.122330379
H  H157  1  0.18570000  0.92890000  0.41800000  1.0 0.122330379
H  H158  1  0.19810000  0.92390000  0.26010000  1.0 0.1362642523
H  H159  1  0.25380000  0.86860000  0.41450000  1.0 0.122330379
H  H160  1  0.17270000  0.88520000  0.23530000  1.0 0.122330379
H  H161  1  0.07990000  0.47110000  0.75740000  1.0 0.1280851953
H  H162  1  0.04330000  0.37730000  0.79150000  1.0 0.1280851953
H  H163  1  0.14200000  0.38650000  0.81800000  1.0 0.1280851953
H  H164  1  0.10380000  0.37360000  0.72420000  1.0 0.122330379
H  H165  1  0.07110000  0.41800000  0.81430000  1.0 0.122330379
H  H166  1  0.07610000  0.26010000  0.80190000  1.0 0.1362642523
H  H167  1  0.13140000  0.41450000  0.74620000  1.0 0.122330379
H  H168  1  0.11480000  0.23530000  0.82730000  1.0 0.122330379
H  H169  1  0.07990000  0.52890000  0.24260000  1.0 0.1280851953
H  H170  1  0.04330000  0.62270000  0.20850000  1.0 0.1280851953
H  H171  1  0.14200000  0.61350000  0.18200000  1.0 0.1280851953
H  H172  1  0.10380000  0.62640000  0.27580000  1.0 0.122330379
H  H173  1  0.07110000  0.58200000  0.18570000  1.0 0.122330379
H  H174  1  0.07610000  0.73990000  0.19810000  1.0 0.1362642523
H  H175  1  0.13140000  0.58550000  0.25380000  1.0 0.122330379
H  H176  1  0.11480000  0.76470000  0.17270000  1.0 0.122330379
H  H177  1  0.92010000  0.47110000  0.24260000  1.0 0.1280851953
H  H178  1  0.95670000  0.37730000  0.20850000  1.0 0.1280851953
H  H179  1  0.85800000  0.38650000  0.18200000  1.0 0.1280851953
H  H180  1  0.89620000  0.37360000  0.27580000  1.0 0.122330379
H  H181  1  0.92890000  0.41800000  0.18570000  1.0 0.122330379
H  H182  1  0.92390000  0.26010000  0.19810000  1.0 0.1362642523
H  H183  1  0.86860000  0.41450000  0.25380000  1.0 0.122330379
H  H184  1  0.88520000  0.23530000  0.17270000  1.0 0.122330379
H  H185  1  0.92010000  0.52890000  0.75740000  1.0 0.1280851953
H  H186  1  0.95670000  0.62270000  0.79150000  1.0 0.1280851953
H  H187  1  0.85800000  0.61350000  0.81800000  1.0 0.1280851953
H  H188  1  0.89620000  0.62640000  0.72420000  1.0 0.122330379
H  H189  1  0.92890000  0.58200000  0.81430000  1.0 0.122330379
H  H190  1  0.92390000  0.73990000  0.80190000  1.0 0.1362642523
H  H191  1  0.86860000  0.58550000  0.74620000  1.0 0.122330379
H  H192  1  0.88520000  0.76470000  0.82730000  1.0 0.122330379
H  H193  1  0.75740000  0.52890000  0.92010000  1.0 0.1280851953
H  H194  1  0.79150000  0.62270000  0.95670000  1.0 0.1280851953
H  H195  1  0.81800000  0.61350000  0.85800000  1.0 0.1280851953
H  H196  1  0.72420000  0.62640000  0.89620000  1.0 0.122330379
H  H197  1  0.81430000  0.58200000  0.92890000  1.0 0.122330379
H  H198  1  0.80190000  0.73990000  0.92390000  1.0 0.1362642523
H  H199  1  0.74620000  0.58550000  0.86860000  1.0 0.122330379
H  H200  1  0.82730000  0.76470000  0.88520000  1.0 0.122330379
H  H201  1  0.24260000  0.47110000  0.92010000  1.0 0.1280851953
H  H202  1  0.20850000  0.37730000  0.95670000  1.0 0.1280851953
H  H203  1  0.18200000  0.38650000  0.85800000  1.0 0.1280851953
H  H204  1  0.27580000  0.37360000  0.89620000  1.0 0.122330379
H  H205  1  0.18570000  0.41800000  0.92890000  1.0 0.122330379
H  H206  1  0.19810000  0.26010000  0.92390000  1.0 0.1362642523
H  H207  1  0.25380000  0.41450000  0.86860000  1.0 0.122330379
H  H208  1  0.17270000  0.23530000  0.88520000  1.0 0.122330379
H  H209  1  0.24260000  0.52890000  0.07990000  1.0 0.1280851953
H  H210  1  0.20850000  0.62270000  0.04330000  1.0 0.1280851953
H  H211  1  0.18200000  0.61350000  0.14200000  1.0 0.1280851953
H  H212  1  0.27580000  0.62640000  0.10380000  1.0 0.122330379
H  H213  1  0.18570000  0.58200000  0.07110000  1.0 0.122330379
H  H214  1  0.19810000  0.73990000  0.07610000  1.0 0.1362642523
H  H215  1  0.25380000  0.58550000  0.13140000  1.0 0.122330379
H  H216  1  0.17270000  0.76470000  0.11480000  1.0 0.122330379
H  H217  1  0.75740000  0.47110000  0.07990000  1.0 0.1280851953
H  H218  1  0.79150000  0.37730000  0.04330000  1.0 0.1280851953
H  H219  1  0.81800000  0.38650000  0.14200000  1.0 0.1280851953
H  H220  1  0.72420000  0.37360000  0.10380000  1.0 0.122330379
H  H221  1  0.81430000  0.41800000  0.07110000  1.0 0.122330379
H  H222  1  0.80190000  0.26010000  0.07610000  1.0 0.1362642523
H  H223  1  0.74620000  0.41450000  0.13140000  1.0 0.122330379
H  H224  1  0.82730000  0.23530000  0.11480000  1.0 0.122330379
H  H225  1  0.92010000  0.75740000  0.52890000  1.0 0.1280851953
H  H226  1  0.95670000  0.79150000  0.62270000  1.0 0.1280851953
H  H227  1  0.85800000  0.81800000  0.61350000  1.0 0.1280851953
H  H228  1  0.89620000  0.72420000  0.62640000  1.0 0.122330379
H  H229  1  0.92890000  0.81430000  0.58200000  1.0 0.122330379
H  H230  1  0.92390000  0.80190000  0.73990000  1.0 0.1362642523
H  H231  1  0.86860000  0.74620000  0.58550000  1.0 0.122330379
H  H232  1  0.88520000  0.82730000  0.76470000  1.0 0.122330379
H  H233  1  0.92010000  0.24260000  0.47110000  1.0 0.1280851953
H  H234  1  0.95670000  0.20850000  0.37730000  1.0 0.1280851953
H  H235  1  0.85800000  0.18200000  0.38650000  1.0 0.1280851953
H  H236  1  0.89620000  0.27580000  0.37360000  1.0 0.122330379
H  H237  1  0.92890000  0.18570000  0.41800000  1.0 0.122330379
H  H238  1  0.92390000  0.19810000  0.26010000  1.0 0.1362642523
H  H239  1  0.86860000  0.25380000  0.41450000  1.0 0.122330379
H  H240  1  0.88520000  0.17270000  0.23530000  1.0 0.122330379
H  H241  1  0.07990000  0.24260000  0.52890000  1.0 0.1280851953
H  H242  1  0.04330000  0.20850000  0.62270000  1.0 0.1280851953
H  H243  1  0.14200000  0.18200000  0.61350000  1.0 0.1280851953
H  H244  1  0.10380000  0.27580000  0.62640000  1.0 0.122330379
H  H245  1  0.07110000  0.18570000  0.58200000  1.0 0.122330379
H  H246  1  0.07610000  0.19810000  0.73990000  1.0 0.1362642523
H  H247  1  0.13140000  0.25380000  0.58550000  1.0 0.122330379
H  H248  1  0.11480000  0.17270000  0.76470000  1.0 0.122330379
H  H249  1  0.07990000  0.75740000  0.47110000  1.0 0.1280851953
H  H250  1  0.04330000  0.79150000  0.37730000  1.0 0.1280851953
H  H251  1  0.14200000  0.81800000  0.38650000  1.0 0.1280851953
H  H252  1  0.10380000  0.72420000  0.37360000  1.0 0.122330379
H  H253  1  0.07110000  0.81430000  0.41800000  1.0 0.122330379
H  H254  1  0.07610000  0.80190000  0.26010000  1.0 0.1362642523
H  H255  1  0.13140000  0.74620000  0.41450000  1.0 0.122330379
H  H256  1  0.11480000  0.82730000  0.23530000  1.0 0.122330379
H  H257  1  0.52890000  0.92010000  0.75740000  1.0 0.1280851953
H  H258  1  0.62270000  0.95670000  0.79150000  1.0 0.1280851953
H  H259  1  0.61350000  0.85800000  0.81800000  1.0 0.1280851953
H  H260  1  0.62640000  0.89620000  0.72420000  1.0 0.122330379
H  H261  1  0.58200000  0.92890000  0.81430000  1.0 0.122330379
H  H262  1  0.73990000  0.92390000  0.80190000  1.0 0.1362642523
H  H263  1  0.58550000  0.86860000  0.74620000  1.0 0.122330379
H  H264  1  0.76470000  0.88520000  0.82730000  1.0 0.122330379
H  H265  1  0.47110000  0.92010000  0.24260000  1.0 0.1280851953
H  H266  1  0.37730000  0.95670000  0.20850000  1.0 0.1280851953
H  H267  1  0.38650000  0.85800000  0.18200000  1.0 0.1280851953
H  H268  1  0.37360000  0.89620000  0.27580000  1.0 0.122330379
H  H269  1  0.41800000  0.92890000  0.18570000  1.0 0.122330379
H  H270  1  0.26010000  0.92390000  0.19810000  1.0 0.1362642523
H  H271  1  0.41450000  0.86860000  0.25380000  1.0 0.122330379
H  H272  1  0.23530000  0.88520000  0.17270000  1.0 0.122330379
H  H273  1  0.52890000  0.07990000  0.24260000  1.0 0.1280851953
H  H274  1  0.62270000  0.04330000  0.20850000  1.0 0.1280851953
H  H275  1  0.61350000  0.14200000  0.18200000  1.0 0.1280851953
H  H276  1  0.62640000  0.10380000  0.27580000  1.0 0.122330379
H  H277  1  0.58200000  0.07110000  0.18570000  1.0 0.122330379
H  H278  1  0.73990000  0.07610000  0.19810000  1.0 0.1362642523
H  H279  1  0.58550000  0.13140000  0.25380000  1.0 0.122330379
H  H280  1  0.76470000  0.11480000  0.17270000  1.0 0.122330379
H  H281  1  0.47110000  0.07990000  0.75740000  1.0 0.1280851953
H  H282  1  0.37730000  0.04330000  0.79150000  1.0 0.1280851953
H  H283  1  0.38650000  0.14200000  0.81800000  1.0 0.1280851953
H  H284  1  0.37360000  0.10380000  0.72420000  1.0 0.122330379
H  H285  1  0.41800000  0.07110000  0.81430000  1.0 0.122330379
H  H286  1  0.26010000  0.07610000  0.80190000  1.0 0.1362642523
H  H287  1  0.41450000  0.13140000  0.74620000  1.0 0.122330379
H  H288  1  0.23530000  0.11480000  0.82730000  1.0 0.122330379
H  H289  1  0.52890000  0.75740000  0.07990000  1.0 0.1280851953
H  H290  1  0.62270000  0.79150000  0.04330000  1.0 0.1280851953
H  H291  1  0.61350000  0.81800000  0.14200000  1.0 0.1280851953
H  H292  1  0.62640000  0.72420000  0.10380000  1.0 0.122330379
H  H293  1  0.58200000  0.81430000  0.07110000  1.0 0.122330379
H  H294  1  0.73990000  0.80190000  0.07610000  1.0 0.1362642523
H  H295  1  0.58550000  0.74620000  0.13140000  1.0 0.122330379
H  H296  1  0.76470000  0.82730000  0.11480000  1.0 0.122330379
H  H297  1  0.47110000  0.24260000  0.07990000  1.0 0.1280851953
H  H298  1  0.37730000  0.20850000  0.04330000  1.0 0.1280851953
H  H299  1  0.38650000  0.18200000  0.14200000  1.0 0.1280851953
H  H300  1  0.37360000  0.27580000  0.10380000  1.0 0.122330379
H  H301  1  0.41800000  0.18570000  0.07110000  1.0 0.122330379
H  H302  1  0.26010000  0.19810000  0.07610000  1.0 0.1362642523
H  H303  1  0.41450000  0.25380000  0.13140000  1.0 0.122330379
H  H304  1  0.23530000  0.17270000  0.11480000  1.0 0.122330379
H  H305  1  0.52890000  0.24260000  0.92010000  1.0 0.1280851953
H  H306  1  0.62270000  0.20850000  0.95670000  1.0 0.1280851953
H  H307  1  0.61350000  0.18200000  0.85800000  1.0 0.1280851953
H  H308  1  0.62640000  0.27580000  0.89620000  1.0 0.122330379
H  H309  1  0.58200000  0.18570000  0.92890000  1.0 0.122330379
H  H310  1  0.73990000  0.19810000  0.92390000  1.0 0.1362642523
H  H311  1  0.58550000  0.25380000  0.86860000  1.0 0.122330379
H  H312  1  0.76470000  0.17270000  0.88520000  1.0 0.122330379
H  H313  1  0.47110000  0.75740000  0.92010000  1.0 0.1280851953
H  H314  1  0.37730000  0.79150000  0.95670000  1.0 0.1280851953
H  H315  1  0.38650000  0.81800000  0.85800000  1.0 0.1280851953
H  H316  1  0.37360000  0.72420000  0.89620000  1.0 0.122330379
H  H317  1  0.41800000  0.81430000  0.92890000  1.0 0.122330379
H  H318  1  0.26010000  0.80190000  0.92390000  1.0 0.1362642523
H  H319  1  0.41450000  0.74620000  0.86860000  1.0 0.122330379
H  H320  1  0.23530000  0.82730000  0.88520000  1.0 0.122330379
H  H321  1  0.75740000  0.92010000  0.47110000  1.0 0.1280851953
H  H322  1  0.79150000  0.95670000  0.37730000  1.0 0.1280851953
H  H323  1  0.81800000  0.85800000  0.38650000  1.0 0.1280851953
H  H324  1  0.72420000  0.89620000  0.37360000  1.0 0.122330379
H  H325  1  0.81430000  0.92890000  0.41800000  1.0 0.122330379
H  H326  1  0.80190000  0.92390000  0.26010000  1.0 0.1362642523
H  H327  1  0.74620000  0.86860000  0.41450000  1.0 0.122330379
H  H328  1  0.82730000  0.88520000  0.23530000  1.0 0.122330379
H  H329  1  0.24260000  0.92010000  0.52890000  1.0 0.1280851953
H  H330  1  0.20850000  0.95670000  0.62270000  1.0 0.1280851953
H  H331  1  0.18200000  0.85800000  0.61350000  1.0 0.1280851953
H  H332  1  0.27580000  0.89620000  0.62640000  1.0 0.122330379
H  H333  1  0.18570000  0.92890000  0.58200000  1.0 0.122330379
H  H334  1  0.19810000  0.92390000  0.73990000  1.0 0.1362642523
H  H335  1  0.25380000  0.86860000  0.58550000  1.0 0.122330379
H  H336  1  0.17270000  0.88520000  0.76470000  1.0 0.122330379
H  H337  1  0.24260000  0.07990000  0.47110000  1.0 0.1280851953
H  H338  1  0.20850000  0.04330000  0.37730000  1.0 0.1280851953
H  H339  1  0.18200000  0.14200000  0.38650000  1.0 0.1280851953
H  H340  1  0.27580000  0.10380000  0.37360000  1.0 0.122330379
H  H341  1  0.18570000  0.07110000  0.41800000  1.0 0.122330379
H  H342  1  0.19810000  0.07610000  0.26010000  1.0 0.1362642523
H  H343  1  0.25380000  0.13140000  0.41450000  1.0 0.122330379
H  H344  1  0.17270000  0.11480000  0.23530000  1.0 0.122330379
H  H345  1  0.75740000  0.07990000  0.52890000  1.0 0.1280851953
H  H346  1  0.79150000  0.04330000  0.62270000  1.0 0.1280851953
H  H347  1  0.81800000  0.14200000  0.61350000  1.0 0.1280851953
H  H348  1  0.72420000  0.10380000  0.62640000  1.0 0.122330379
H  H349  1  0.81430000  0.07110000  0.58200000  1.0 0.122330379
H  H350  1  0.80190000  0.07610000  0.73990000  1.0 0.1362642523
H  H351  1  0.74620000  0.13140000  0.58550000  1.0 0.122330379
H  H352  1  0.82730000  0.11480000  0.76470000  1.0 0.122330379
H  H353  1  0.92010000  0.52890000  0.24260000  1.0 0.1280851953
H  H354  1  0.95670000  0.62270000  0.20850000  1.0 0.1280851953
H  H355  1  0.85800000  0.61350000  0.18200000  1.0 0.1280851953
H  H356  1  0.89620000  0.62640000  0.27580000  1.0 0.122330379
H  H357  1  0.92890000  0.58200000  0.18570000  1.0 0.122330379
H  H358  1  0.92390000  0.73990000  0.19810000  1.0 0.1362642523
H  H359  1  0.86860000  0.58550000  0.25380000  1.0 0.122330379
H  H360  1  0.88520000  0.76470000  0.17270000  1.0 0.122330379
H  H361  1  0.92010000  0.47110000  0.75740000  1.0 0.1280851953
H  H362  1  0.95670000  0.37730000  0.79150000  1.0 0.1280851953
H  H363  1  0.85800000  0.38650000  0.81800000  1.0 0.1280851953
H  H364  1  0.89620000  0.37360000  0.72420000  1.0 0.122330379
H  H365  1  0.92890000  0.41800000  0.81430000  1.0 0.122330379
H  H366  1  0.92390000  0.26010000  0.80190000  1.0 0.1362642523
H  H367  1  0.86860000  0.41450000  0.74620000  1.0 0.122330379
H  H368  1  0.88520000  0.23530000  0.82730000  1.0 0.122330379
H  H369  1  0.07990000  0.52890000  0.75740000  1.0 0.1280851953
H  H370  1  0.04330000  0.62270000  0.79150000  1.0 0.1280851953
H  H371  1  0.14200000  0.61350000  0.81800000  1.0 0.1280851953
H  H372  1  0.10380000  0.62640000  0.72420000  1.0 0.122330379
H  H373  1  0.07110000  0.58200000  0.81430000  1.0 0.122330379
H  H374  1  0.07610000  0.73990000  0.80190000  1.0 0.1362642523
H  H375  1  0.13140000  0.58550000  0.74620000  1.0 0.122330379
H  H376  1  0.11480000  0.76470000  0.82730000  1.0 0.122330379
H  H377  1  0.07990000  0.47110000  0.24260000  1.0 0.1280851953
H  H378  1  0.04330000  0.37730000  0.20850000  1.0 0.1280851953
H  H379  1  0.14200000  0.38650000  0.18200000  1.0 0.1280851953
H  H380  1  0.10380000  0.37360000  0.27580000  1.0 0.122330379
H  H381  1  0.07110000  0.41800000  0.18570000  1.0 0.122330379
H  H382  1  0.07610000  0.26010000  0.19810000  1.0 0.1362642523
H  H383  1  0.13140000  0.41450000  0.25380000  1.0 0.122330379
H  H384  1  0.11480000  0.23530000  0.17270000  1.0 0.122330379
H  H385  1  0.37940000  0.37940000  0.04500000  1.0 0.1280851953
H  H386  1  0.41670000  0.41670000  0.04660000  1.0 0.1280851953
H  H387  1  0.62060000  0.62060000  0.04500000  1.0 0.1280851953
H  H388  1  0.58330000  0.58330000  0.04660000  1.0 0.1280851953
H  H389  1  0.62060000  0.37940000  0.95500000  1.0 0.1280851953
H  H390  1  0.58330000  0.41670000  0.95340000  1.0 0.1280851953
H  H391  1  0.37940000  0.62060000  0.95500000  1.0 0.1280851953
H  H392  1  0.41670000  0.58330000  0.95340000  1.0 0.1280851953
H  H393  1  0.04500000  0.37940000  0.37940000  1.0 0.1280851953
H  H394  1  0.04660000  0.41670000  0.41670000  1.0 0.1280851953
H  H395  1  0.04500000  0.62060000  0.62060000  1.0 0.1280851953
H  H396  1  0.04660000  0.58330000  0.58330000  1.0 0.1280851953
H  H397  1  0.95500000  0.62060000  0.37940000  1.0 0.1280851953
H  H398  1  0.95340000  0.58330000  0.41670000  1.0 0.1280851953
H  H399  1  0.95500000  0.37940000  0.62060000  1.0 0.1280851953
H  H400  1  0.95340000  0.41670000  0.58330000  1.0 0.1280851953
H  H401  1  0.37940000  0.04500000  0.37940000  1.0 0.1280851953
H  H402  1  0.41670000  0.04660000  0.41670000  1.0 0.1280851953
H  H403  1  0.62060000  0.04500000  0.62060000  1.0 0.1280851953
H  H404  1  0.58330000  0.04660000  0.58330000  1.0 0.1280851953
H  H405  1  0.37940000  0.95500000  0.62060000  1.0 0.1280851953
H  H406  1  0.41670000  0.95340000  0.58330000  1.0 0.1280851953
H  H407  1  0.62060000  0.95500000  0.37940000  1.0 0.1280851953
H  H408  1  0.58330000  0.95340000  0.41670000  1.0 0.1280851953
H  H409  1  0.37940000  0.37940000  0.95500000  1.0 0.1280851953
H  H410  1  0.41670000  0.41670000  0.95340000  1.0 0.1280851953
H  H411  1  0.62060000  0.62060000  0.95500000  1.0 0.1280851953
H  H412  1  0.58330000  0.58330000  0.95340000  1.0 0.1280851953
H  H413  1  0.37940000  0.62060000  0.04500000  1.0 0.1280851953
H  H414  1  0.41670000  0.58330000  0.04660000  1.0 0.1280851953
H  H415  1  0.62060000  0.37940000  0.04500000  1.0 0.1280851953
H  H416  1  0.58330000  0.41670000  0.04660000  1.0 0.1280851953
H  H417  1  0.37940000  0.04500000  0.62060000  1.0 0.1280851953
H  H418  1  0.41670000  0.04660000  0.58330000  1.0 0.1280851953
H  H419  1  0.62060000  0.04500000  0.37940000  1.0 0.1280851953
H  H420  1  0.58330000  0.04660000  0.41670000  1.0 0.1280851953
H  H421  1  0.62060000  0.95500000  0.62060000  1.0 0.1280851953
H  H422  1  0.58330000  0.95340000  0.58330000  1.0 0.1280851953
H  H423  1  0.37940000  0.95500000  0.37940000  1.0 0.1280851953
H  H424  1  0.41670000  0.95340000  0.41670000  1.0 0.1280851953
H  H425  1  0.04500000  0.37940000  0.62060000  1.0 0.1280851953
H  H426  1  0.04660000  0.41670000  0.58330000  1.0 0.1280851953
H  H427  1  0.04500000  0.62060000  0.37940000  1.0 0.1280851953
H  H428  1  0.04660000  0.58330000  0.41670000  1.0 0.1280851953
H  H429  1  0.95500000  0.37940000  0.37940000  1.0 0.1280851953
H  H430  1  0.95340000  0.41670000  0.41670000  1.0 0.1280851953
H  H431  1  0.95500000  0.62060000  0.62060000  1.0 0.1280851953
H  H432  1  0.95340000  0.58330000  0.58330000  1.0 0.1280851953
H  H433  1  0.38630000  0.47110000  0.00000000  1.0 0.1280851953
H  H434  1  0.61370000  0.52890000  0.00000000  1.0 0.1280851953
H  H435  1  0.61370000  0.47110000  0.00000000  1.0 0.1280851953
H  H436  1  0.38630000  0.52890000  0.00000000  1.0 0.1280851953
H  H437  1  0.00000000  0.38630000  0.47110000  1.0 0.1280851953
H  H438  1  0.00000000  0.61370000  0.52890000  1.0 0.1280851953
H  H439  1  0.00000000  0.61370000  0.47110000  1.0 0.1280851953
H  H440  1  0.00000000  0.38630000  0.52890000  1.0 0.1280851953
H  H441  1  0.47110000  0.00000000  0.38630000  1.0 0.1280851953
H  H442  1  0.52890000  0.00000000  0.61370000  1.0 0.1280851953
H  H443  1  0.47110000  0.00000000  0.61370000  1.0 0.1280851953
H  H444  1  0.52890000  0.00000000  0.38630000  1.0 0.1280851953
H  H445  1  0.47110000  0.38630000  0.00000000  1.0 0.1280851953
H  H446  1  0.52890000  0.61370000  0.00000000  1.0 0.1280851953
H  H447  1  0.47110000  0.61370000  0.00000000  1.0 0.1280851953
H  H448  1  0.52890000  0.38630000  0.00000000  1.0 0.1280851953
H  H449  1  0.38630000  0.00000000  0.52890000  1.0 0.1280851953
H  H450  1  0.61370000  0.00000000  0.47110000  1.0 0.1280851953
H  H451  1  0.61370000  0.00000000  0.52890000  1.0 0.1280851953
H  H452  1  0.38630000  0.00000000  0.47110000  1.0 0.1280851953
H  H453  1  0.00000000  0.47110000  0.61370000  1.0 0.1280851953
H  H454  1  0.00000000  0.52890000  0.38630000  1.0 0.1280851953
H  H455  1  0.00000000  0.47110000  0.38630000  1.0 0.1280851953
H  H456  1  0.00000000  0.52890000  0.61370000  1.0 0.1280851953
H  H457  1  0.21980000  0.15530000  0.15530000  1.0 0.110817938
H  H458  1  0.78020000  0.84470000  0.15530000  1.0 0.110817938
H  H459  1  0.78020000  0.15530000  0.84470000  1.0 0.110817938
H  H460  1  0.21980000  0.84470000  0.84470000  1.0 0.110817938
H  H461  1  0.15530000  0.21980000  0.15530000  1.0 0.110817938
H  H462  1  0.15530000  0.78020000  0.84470000  1.0 0.110817938
H  H463  1  0.84470000  0.78020000  0.15530000  1.0 0.110817938
H  H464  1  0.84470000  0.21980000  0.84470000  1.0 0.110817938
H  H465  1  0.15530000  0.15530000  0.21980000  1.0 0.110817938
H  H466  1  0.84470000  0.15530000  0.78020000  1.0 0.110817938
H  H467  1  0.15530000  0.84470000  0.78020000  1.0 0.110817938
H  H468  1  0.84470000  0.84470000  0.21980000  1.0 0.110817938
H  H469  1  0.15530000  0.21980000  0.84470000  1.0 0.110817938
H  H470  1  0.84470000  0.78020000  0.84470000  1.0 0.110817938
H  H471  1  0.15530000  0.78020000  0.15530000  1.0 0.110817938
H  H472  1  0.84470000  0.21980000  0.15530000  1.0 0.110817938
H  H473  1  0.21980000  0.15530000  0.84470000  1.0 0.110817938
H  H474  1  0.78020000  0.15530000  0.15530000  1.0 0.110817938
H  H475  1  0.78020000  0.84470000  0.84470000  1.0 0.110817938
H  H476  1  0.21980000  0.84470000  0.15530000  1.0 0.110817938
H  H477  1  0.15530000  0.15530000  0.78020000  1.0 0.110817938
H  H478  1  0.15530000  0.84470000  0.21980000  1.0 0.110817938
H  H479  1  0.84470000  0.15530000  0.21980000  1.0 0.110817938
H  H480  1  0.84470000  0.84470000  0.78020000  1.0 0.110817938
C  C1  1  0.21667000  0.41925000  0.10412000  1.0 0.0790800195
C  C2  1  0.24413000  0.36978000  0.07148000  1.0 -0.0707496668
C  C3  1  0.20150000  0.44441000  0.12225000  1.0 -0.0640182503
C  C4  1  0.20865000  0.47441000  0.11617000  1.0 0.1929489412
C  C5  1  0.17988000  0.43415000  0.14487000  1.0 0.1645805713
C  C6  1  0.23095000  0.48395000  0.09236000  1.0 -0.1794526868
C  C7  1  0.21766000  0.38401000  0.06142000  1.0 -0.0707496668
C  C8  1  0.25830000  0.34460000  0.05433000  1.0 0.5907942466
C  C9  1  0.17311000  0.40370000  0.15115000  1.0 -0.2004697516
C  C10  1  0.25728000  0.38185000  0.09697000  1.0 -0.0786855196
C  C11  1  0.20377000  0.40899000  0.07829000  1.0 -0.150919478
C  C12  1  0.20657000  0.24200000  0.08358000  1.0 -0.0786855196
C  C13  1  0.24400000  0.40685000  0.11398000  1.0 -0.1573142175
C  C14  1  0.19147000  0.22757000  0.10821000  1.0 -0.1794526868
C  C15  1  0.78333000  0.58075000  0.10412000  1.0 0.0790800195
C  C16  1  0.75587000  0.63022000  0.07148000  1.0 -0.0707496668
C  C17  1  0.79850000  0.55559000  0.12225000  1.0 -0.0640182503
C  C18  1  0.79135000  0.52559000  0.11617000  1.0 0.1929489412
C  C19  1  0.82012000  0.56585000  0.14487000  1.0 0.1645805713
C  C20  1  0.76905000  0.51605000  0.09236000  1.0 -0.1794526868
C  C21  1  0.78234000  0.61599000  0.06142000  1.0 -0.0707496668
C  C22  1  0.74170000  0.65540000  0.05433000  1.0 0.5907942466
C  C23  1  0.82689000  0.59630000  0.15115000  1.0 -0.2004697516
C  C24  1  0.74272000  0.61815000  0.09697000  1.0 -0.0786855196
C  C25  1  0.79623000  0.59101000  0.07829000  1.0 -0.150919478
C  C26  1  0.79343000  0.75800000  0.08358000  1.0 -0.0786855196
C  C27  1  0.75600000  0.59315000  0.11398000  1.0 -0.150919478
C  C28  1  0.80853000  0.77243000  0.10821000  1.0 -0.1794526868
C  C29  1  0.78333000  0.41925000  0.89588000  1.0 0.0790800195
C  C30  1  0.75587000  0.36978000  0.92852000  1.0 -0.0707496668
C  C31  1  0.79850000  0.44441000  0.87775000  1.0 -0.0640182503
C  C32  1  0.79135000  0.47441000  0.88383000  1.0 0.1929489412
C  C33  1  0.82012000  0.43415000  0.85513000  1.0 0.1694515386
C  C34  1  0.76905000  0.48395000  0.90764000  1.0 -0.1794526868
C  C35  1  0.78234000  0.38401000  0.93858000  1.0 -0.0707496668
C  C36  1  0.74170000  0.34460000  0.94567000  1.0 0.5907942466
C  C37  1  0.82689000  0.40370000  0.84885000  1.0 -0.2004697516
C  C38  1  0.74272000  0.38185000  0.90303000  1.0 -0.0786855196
C  C39  1  0.79623000  0.40899000  0.92171000  1.0 -0.150919478
C  C40  1  0.79343000  0.24200000  0.91642000  1.0 -0.0786855196
C  C41  1  0.75600000  0.40685000  0.88602000  1.0 -0.150919478
C  C42  1  0.80853000  0.22757000  0.89179000  1.0 -0.1794526868
C  C43  1  0.21667000  0.58075000  0.89588000  1.0 0.0790800195
C  C44  1  0.24413000  0.63022000  0.92852000  1.0 -0.0707496668
C  C45  1  0.20150000  0.55559000  0.87775000  1.0 -0.0707496668
C  C46  1  0.20865000  0.52559000  0.88383000  1.0 0.1929489412
C  C47  1  0.17988000  0.56585000  0.85513000  1.0 0.1694515386
C  C48  1  0.23095000  0.51605000  0.90764000  1.0 -0.1794526868
C  C49  1  0.21766000  0.61599000  0.93858000  1.0 -0.0707496668
C  C50  1  0.25830000  0.65540000  0.94567000  1.0 0.5907942466
C  C51  1  0.17311000  0.59630000  0.84885000  1.0 -0.2004697516
C  C52  1  0.25728000  0.61815000  0.90303000  1.0 -0.0786855196
C  C53  1  0.20377000  0.59101000  0.92171000  1.0 -0.150919478
C  C54  1  0.20657000  0.75800000  0.91642000  1.0 -0.0786855196
C  C55  1  0.24400000  0.59315000  0.88602000  1.0 -0.1573142175
C  C56  1  0.19147000  0.77243000  0.89179000  1.0 -0.1794526868
C  C57  1  0.10412000  0.21667000  0.41925000  1.0 0.0790800195
C  C58  1  0.07148000  0.24413000  0.36978000  1.0 -0.0707496668
C  C59  1  0.12225000  0.20150000  0.44441000  1.0 -0.0640182503
C  C60  1  0.11617000  0.20865000  0.47441000  1.0 0.1929489412
C  C61  1  0.14487000  0.17988000  0.43415000  1.0 0.1645805713
C  C62  1  0.09236000  0.23095000  0.48395000  1.0 -0.1794526868
C  C63  1  0.06142000  0.21766000  0.38401000  1.0 -0.0707496668
C  C64  1  0.05433000  0.25830000  0.34460000  1.0 0.5907942466
C  C65  1  0.15115000  0.17311000  0.40370000  1.0 -0.2004697516
C  C66  1  0.09697000  0.25728000  0.38185000  1.0 -0.0786855196
C  C67  1  0.07829000  0.20377000  0.40899000  1.0 -0.150919478
C  C68  1  0.08358000  0.20657000  0.24200000  1.0 -0.0786855196
C  C69  1  0.11398000  0.24400000  0.40685000  1.0 -0.1573142175
C  C70  1  0.10821000  0.19147000  0.22757000  1.0 -0.1794526868
C  C71  1  0.10412000  0.78333000  0.58075000  1.0 0.0790800195
C  C72  1  0.07148000  0.75587000  0.63022000  1.0 -0.0707496668
C  C73  1  0.12225000  0.79850000  0.55559000  1.0 -0.0707496668
C  C74  1  0.11617000  0.79135000  0.52559000  1.0 0.1929489412
C  C75  1  0.14487000  0.82012000  0.56585000  1.0 0.1645805713
C  C76  1  0.09236000  0.76905000  0.51605000  1.0 -0.1794526868
C  C77  1  0.06142000  0.78234000  0.61599000  1.0 -0.0707496668
C  C78  1  0.05433000  0.74170000  0.65540000  1.0 0.5907942466
C  C79  1  0.15115000  0.82689000  0.59630000  1.0 -0.2004697516
C  C80  1  0.09697000  0.74272000  0.61815000  1.0 -0.0786855196
C  C81  1  0.07829000  0.79623000  0.59101000  1.0 -0.150919478
C  C82  1  0.08358000  0.79343000  0.75800000  1.0 -0.0786855196
C  C83  1  0.11398000  0.75600000  0.59315000  1.0 -0.1573142175
C  C84  1  0.10821000  0.80853000  0.77243000  1.0 -0.1794526868
C  C85  1  0.89588000  0.78333000  0.41925000  1.0 0.0790800195
C  C86  1  0.92852000  0.75587000  0.36978000  1.0 -0.0707496668
C  C87  1  0.87775000  0.79850000  0.44441000  1.0 -0.0640182503
C  C88  1  0.88383000  0.79135000  0.47441000  1.0 0.1929489412
C  C89  1  0.85513000  0.82012000  0.43415000  1.0 0.1694515386
C  C90  1  0.90764000  0.76905000  0.48395000  1.0 -0.1794526868
C  C91  1  0.93858000  0.78234000  0.38401000  1.0 -0.0707496668
C  C92  1  0.94567000  0.74170000  0.34460000  1.0 0.5907942466
C  C93  1  0.84885000  0.82689000  0.40370000  1.0 -0.2004697516
C  C94  1  0.90303000  0.74272000  0.38185000  1.0 -0.0786855196
C  C95  1  0.92171000  0.79623000  0.40899000  1.0 -0.150919478
C  C96  1  0.91642000  0.79343000  0.24200000  1.0 -0.0786855196
C  C97  1  0.88602000  0.75600000  0.40685000  1.0 -0.150919478
C  C98  1  0.89179000  0.80853000  0.22757000  1.0 -0.1794526868
C  C99  1  0.89588000  0.21667000  0.58075000  1.0 0.0790800195
C  C100  1  0.92852000  0.24413000  0.63022000  1.0 -0.0707496668
C  C101  1  0.87775000  0.20150000  0.55559000  1.0 -0.0640182503
C  C102  1  0.88383000  0.20865000  0.52559000  1.0 0.1929489412
C  C103  1  0.85513000  0.17988000  0.56585000  1.0 0.1694515386
C  C104  1  0.90764000  0.23095000  0.51605000  1.0 -0.1794526868
C  C105  1  0.93858000  0.21766000  0.61599000  1.0 -0.0707496668
C  C106  1  0.94567000  0.25830000  0.65540000  1.0 0.5907942466
C  C107  1  0.84885000  0.17311000  0.59630000  1.0 -0.2004697516
C  C108  1  0.90303000  0.25728000  0.61815000  1.0 -0.0786855196
C  C109  1  0.92171000  0.20377000  0.59101000  1.0 -0.150919478
C  C110  1  0.91642000  0.20657000  0.75800000  1.0 -0.0786855196
C  C111  1  0.88602000  0.24400000  0.59315000  1.0 -0.150919478
C  C112  1  0.89179000  0.19147000  0.77243000  1.0 -0.1794526868
C  C113  1  0.41925000  0.10412000  0.21667000  1.0 0.0790800195
C  C114  1  0.36978000  0.07148000  0.24413000  1.0 -0.0707496668
C  C115  1  0.44441000  0.12225000  0.20150000  1.0 -0.0640182503
C  C116  1  0.47441000  0.11617000  0.20865000  1.0 0.1929489412
C  C117  1  0.43415000  0.14487000  0.17988000  1.0 0.1645805713
C  C118  1  0.48395000  0.09236000  0.23095000  1.0 -0.1794526868
C  C119  1  0.38401000  0.06142000  0.21766000  1.0 -0.0707496668
C  C120  1  0.34460000  0.05433000  0.25830000  1.0 0.5907942466
C  C121  1  0.40370000  0.15115000  0.17311000  1.0 -0.2004697516
C  C122  1  0.38185000  0.09697000  0.25728000  1.0 -0.0786855196
C  C123  1  0.40899000  0.07829000  0.20377000  1.0 -0.150919478
C  C124  1  0.24200000  0.08358000  0.20657000  1.0 -0.0786855196
C  C125  1  0.40685000  0.11398000  0.24400000  1.0 -0.1573142175
C  C126  1  0.22757000  0.10821000  0.19147000  1.0 -0.1794526868
C  C127  1  0.58075000  0.10412000  0.78333000  1.0 0.0790800195
C  C128  1  0.63022000  0.07148000  0.75587000  1.0 -0.0707496668
C  C129  1  0.55559000  0.12225000  0.79850000  1.0 -0.0640182503
C  C130  1  0.52559000  0.11617000  0.79135000  1.0 0.1929489412
C  C131  1  0.56585000  0.14487000  0.82012000  1.0 0.1694515386
C  C132  1  0.51605000  0.09236000  0.76905000  1.0 -0.1794526868
C  C133  1  0.61599000  0.06142000  0.78234000  1.0 -0.0707496668
C  C134  1  0.65540000  0.05433000  0.74170000  1.0 0.5907942466
C  C135  1  0.59630000  0.15115000  0.82689000  1.0 -0.2004697516
C  C136  1  0.61815000  0.09697000  0.74272000  1.0 -0.0786855196
C  C137  1  0.59101000  0.07829000  0.79623000  1.0 -0.150919478
C  C138  1  0.75800000  0.08358000  0.79343000  1.0 -0.0786855196
C  C139  1  0.59315000  0.11398000  0.75600000  1.0 -0.150919478
C  C140  1  0.77243000  0.10821000  0.80853000  1.0 -0.1794526868
C  C141  1  0.41925000  0.89588000  0.78333000  1.0 0.0790800195
C  C142  1  0.36978000  0.92852000  0.75587000  1.0 -0.0707496668
C  C143  1  0.44441000  0.87775000  0.79850000  1.0 -0.0707496668
C  C144  1  0.47441000  0.88383000  0.79135000  1.0 0.1929489412
C  C145  1  0.43415000  0.85513000  0.82012000  1.0 0.1694515386
C  C146  1  0.48395000  0.90764000  0.76905000  1.0 -0.1794526868
C  C147  1  0.38401000  0.93858000  0.78234000  1.0 -0.0707496668
C  C148  1  0.34460000  0.94567000  0.74170000  1.0 0.5907942466
C  C149  1  0.40370000  0.84885000  0.82689000  1.0 -0.2004697516
C  C150  1  0.38185000  0.90303000  0.74272000  1.0 -0.0786855196
C  C151  1  0.40899000  0.92171000  0.79623000  1.0 -0.150919478
C  C152  1  0.24200000  0.91642000  0.79343000  1.0 -0.0786855196
C  C153  1  0.40685000  0.88602000  0.75600000  1.0 -0.1573142175
C  C154  1  0.22757000  0.89179000  0.80853000  1.0 -0.1794526868
C  C155  1  0.58075000  0.89588000  0.21667000  1.0 0.0790800195
C  C156  1  0.63022000  0.92852000  0.24413000  1.0 -0.0707496668
C  C157  1  0.55559000  0.87775000  0.20150000  1.0 -0.0640182503
C  C158  1  0.52559000  0.88383000  0.20865000  1.0 0.1929489412
C  C159  1  0.56585000  0.85513000  0.17988000  1.0 0.1645805713
C  C160  1  0.51605000  0.90764000  0.23095000  1.0 -0.1794526868
C  C161  1  0.61599000  0.93858000  0.21766000  1.0 -0.0707496668
C  C162  1  0.65540000  0.94567000  0.25830000  1.0 0.5907942466
C  C163  1  0.59630000  0.84885000  0.17311000  1.0 -0.2004697516
C  C164  1  0.61815000  0.90303000  0.25728000  1.0 -0.0786855196
C  C165  1  0.59101000  0.92171000  0.20377000  1.0 -0.150919478
C  C166  1  0.75800000  0.91642000  0.20657000  1.0 -0.0786855196
C  C167  1  0.59315000  0.88602000  0.24400000  1.0 -0.1573142175
C  C168  1  0.77243000  0.89179000  0.19147000  1.0 -0.1794526868
C  C169  1  0.41925000  0.21667000  0.89588000  1.0 0.0790800195
C  C170  1  0.36978000  0.24413000  0.92852000  1.0 -0.0707496668
C  C171  1  0.44441000  0.20150000  0.87775000  1.0 -0.0707496668
C  C172  1  0.47441000  0.20865000  0.88383000  1.0 0.1929489412
C  C173  1  0.43415000  0.17988000  0.85513000  1.0 0.1694515386
C  C174  1  0.48395000  0.23095000  0.90764000  1.0 -0.1794526868
C  C175  1  0.38401000  0.21766000  0.93858000  1.0 -0.0707496668
C  C176  1  0.34460000  0.25830000  0.94567000  1.0 0.5907942466
C  C177  1  0.40370000  0.17311000  0.84885000  1.0 -0.2004697516
C  C178  1  0.38185000  0.25728000  0.90303000  1.0 -0.0786855196
C  C179  1  0.40899000  0.20377000  0.92171000  1.0 -0.150919478
C  C180  1  0.24200000  0.20657000  0.91642000  1.0 -0.0786855196
C  C181  1  0.40685000  0.24400000  0.88602000  1.0 -0.1573142175
C  C182  1  0.22757000  0.19147000  0.89179000  1.0 -0.1794526868
C  C183  1  0.58075000  0.78333000  0.89588000  1.0 0.0790800195
C  C184  1  0.63022000  0.75587000  0.92852000  1.0 -0.0707496668
C  C185  1  0.55559000  0.79850000  0.87775000  1.0 -0.0707496668
C  C186  1  0.52559000  0.79135000  0.88383000  1.0 0.1929489412
C  C187  1  0.56585000  0.82012000  0.85513000  1.0 0.1694515386
C  C188  1  0.51605000  0.76905000  0.90764000  1.0 -0.1794526868
C  C189  1  0.61599000  0.78234000  0.93858000  1.0 -0.0707496668
C  C190  1  0.65540000  0.74170000  0.94567000  1.0 0.5907942466
C  C191  1  0.59630000  0.82689000  0.84885000  1.0 -0.2004697516
C  C192  1  0.61815000  0.74272000  0.90303000  1.0 -0.0786855196
C  C193  1  0.59101000  0.79623000  0.92171000  1.0 -0.150919478
C  C194  1  0.75800000  0.79343000  0.91642000  1.0 -0.0786855196
C  C195  1  0.59315000  0.75600000  0.88602000  1.0 -0.1573142175
C  C196  1  0.77243000  0.80853000  0.89179000  1.0 -0.1794526868
C  C197  1  0.41925000  0.78333000  0.10412000  1.0 0.0790800195
C  C198  1  0.36978000  0.75587000  0.07148000  1.0 -0.0707496668
C  C199  1  0.44441000  0.79850000  0.12225000  1.0 -0.0640182503
C  C200  1  0.47441000  0.79135000  0.11617000  1.0 0.1929489412
C  C201  1  0.43415000  0.82012000  0.14487000  1.0 0.1645805713
C  C202  1  0.48395000  0.76905000  0.09236000  1.0 -0.1794526868
C  C203  1  0.38401000  0.78234000  0.06142000  1.0 -0.0707496668
C  C204  1  0.34460000  0.74170000  0.05433000  1.0 0.5907942466
C  C205  1  0.40370000  0.82689000  0.15115000  1.0 -0.2004697516
C  C206  1  0.38185000  0.74272000  0.09697000  1.0 -0.0786855196
C  C207  1  0.40899000  0.79623000  0.07829000  1.0 -0.150919478
C  C208  1  0.24200000  0.79343000  0.08358000  1.0 -0.0786855196
C  C209  1  0.40685000  0.75600000  0.11398000  1.0 -0.1573142175
C  C210  1  0.22757000  0.80853000  0.10821000  1.0 -0.1794526868
C  C211  1  0.58075000  0.21667000  0.10412000  1.0 0.0790800195
C  C212  1  0.63022000  0.24413000  0.07148000  1.0 -0.0707496668
C  C213  1  0.55559000  0.20150000  0.12225000  1.0 -0.0640182503
C  C214  1  0.52559000  0.20865000  0.11617000  1.0 0.1929489412
C  C215  1  0.56585000  0.17988000  0.14487000  1.0 0.1645805713
C  C216  1  0.51605000  0.23095000  0.09236000  1.0 -0.1794526868
C  C217  1  0.61599000  0.21766000  0.06142000  1.0 -0.0707496668
C  C218  1  0.65540000  0.25830000  0.05433000  1.0 0.5907942466
C  C219  1  0.59630000  0.17311000  0.15115000  1.0 -0.2004697516
C  C220  1  0.61815000  0.25728000  0.09697000  1.0 -0.0786855196
C  C221  1  0.59101000  0.20377000  0.07829000  1.0 -0.150919478
C  C222  1  0.75800000  0.20657000  0.08358000  1.0 -0.0786855196
C  C223  1  0.59315000  0.24400000  0.11398000  1.0 -0.150919478
C  C224  1  0.77243000  0.19147000  0.10821000  1.0 -0.1794526868
C  C225  1  0.21667000  0.10412000  0.58075000  1.0 0.0790800195
C  C226  1  0.24413000  0.07148000  0.63022000  1.0 -0.0707496668
C  C227  1  0.20150000  0.12225000  0.55559000  1.0 -0.0640182503
C  C228  1  0.20865000  0.11617000  0.52559000  1.0 0.1929489412
C  C229  1  0.17988000  0.14487000  0.56585000  1.0 0.1694515386
C  C230  1  0.23095000  0.09236000  0.51605000  1.0 -0.1794526868
C  C231  1  0.21766000  0.06142000  0.61599000  1.0 -0.0707496668
C  C232  1  0.25830000  0.05433000  0.65540000  1.0 0.5907942466
C  C233  1  0.17311000  0.15115000  0.59630000  1.0 -0.2004697516
C  C234  1  0.25728000  0.09697000  0.61815000  1.0 -0.0786855196
C  C235  1  0.20377000  0.07829000  0.59101000  1.0 -0.150919478
C  C236  1  0.20657000  0.08358000  0.75800000  1.0 -0.0786855196
C  C237  1  0.24400000  0.11398000  0.59315000  1.0 -0.1573142175
C  C238  1  0.19147000  0.10821000  0.77243000  1.0 -0.1794526868
C  C239  1  0.78333000  0.10412000  0.41925000  1.0 0.0790800195
C  C240  1  0.75587000  0.07148000  0.36978000  1.0 -0.0707496668
C  C241  1  0.79850000  0.12225000  0.44441000  1.0 -0.0640182503
C  C242  1  0.79135000  0.11617000  0.47441000  1.0 0.1929489412
C  C243  1  0.82012000  0.14487000  0.43415000  1.0 0.1694515386
C  C244  1  0.76905000  0.09236000  0.48395000  1.0 -0.1794526868
C  C245  1  0.78234000  0.06142000  0.38401000  1.0 -0.0707496668
C  C246  1  0.74170000  0.05433000  0.34460000  1.0 0.5907942466
C  C247  1  0.82689000  0.15115000  0.40370000  1.0 -0.2004697516
C  C248  1  0.74272000  0.09697000  0.38185000  1.0 -0.0786855196
C  C249  1  0.79623000  0.07829000  0.40899000  1.0 -0.150919478
C  C250  1  0.79343000  0.08358000  0.24200000  1.0 -0.0786855196
C  C251  1  0.75600000  0.11398000  0.40685000  1.0 -0.150919478
C  C252  1  0.80853000  0.10821000  0.22757000  1.0 -0.1794526868
C  C253  1  0.78333000  0.89588000  0.58075000  1.0 0.0790800195
C  C254  1  0.75587000  0.92852000  0.63022000  1.0 -0.0707496668
C  C255  1  0.79850000  0.87775000  0.55559000  1.0 -0.0640182503
C  C256  1  0.79135000  0.88383000  0.52559000  1.0 0.1929489412
C  C257  1  0.82012000  0.85513000  0.56585000  1.0 0.1694515386
C  C258  1  0.76905000  0.90764000  0.51605000  1.0 -0.1794526868
C  C259  1  0.78234000  0.93858000  0.61599000  1.0 -0.0707496668
C  C260  1  0.74170000  0.94567000  0.65540000  1.0 0.5907942466
C  C261  1  0.82689000  0.84885000  0.59630000  1.0 -0.2004697516
C  C262  1  0.74272000  0.90303000  0.61815000  1.0 -0.0786855196
C  C263  1  0.79623000  0.92171000  0.59101000  1.0 -0.150919478
C  C264  1  0.79343000  0.91642000  0.75800000  1.0 -0.0786855196
C  C265  1  0.75600000  0.88602000  0.59315000  1.0 -0.150919478
C  C266  1  0.80853000  0.89179000  0.77243000  1.0 -0.1794526868
C  C267  1  0.21667000  0.89588000  0.41925000  1.0 0.0790800195
C  C268  1  0.24413000  0.92852000  0.36978000  1.0 -0.0707496668
C  C269  1  0.20150000  0.87775000  0.44441000  1.0 -0.0707496668
C  C270  1  0.20865000  0.88383000  0.47441000  1.0 0.1929489412
C  C271  1  0.17988000  0.85513000  0.43415000  1.0 0.1645805713
C  C272  1  0.23095000  0.90764000  0.48395000  1.0 -0.1794526868
C  C273  1  0.21766000  0.93858000  0.38401000  1.0 -0.0707496668
C  C274  1  0.25830000  0.94567000  0.34460000  1.0 0.5907942466
C  C275  1  0.17311000  0.84885000  0.40370000  1.0 -0.2004697516
C  C276  1  0.25728000  0.90303000  0.38185000  1.0 -0.0786855196
C  C277  1  0.20377000  0.92171000  0.40899000  1.0 -0.150919478
C  C278  1  0.20657000  0.91642000  0.24200000  1.0 -0.0786855196
C  C279  1  0.24400000  0.88602000  0.40685000  1.0 -0.1573142175
C  C280  1  0.19147000  0.89179000  0.22757000  1.0 -0.1794526868
C  C281  1  0.10412000  0.41925000  0.78333000  1.0 0.0790800195
C  C282  1  0.07148000  0.36978000  0.75587000  1.0 -0.0707496668
C  C283  1  0.12225000  0.44441000  0.79850000  1.0 -0.0707496668
C  C284  1  0.11617000  0.47441000  0.79135000  1.0 0.1929489412
C  C285  1  0.14487000  0.43415000  0.82012000  1.0 0.1694515386
C  C286  1  0.09236000  0.48395000  0.76905000  1.0 -0.1794526868
C  C287  1  0.06142000  0.38401000  0.78234000  1.0 -0.0707496668
C  C288  1  0.05433000  0.34460000  0.74170000  1.0 0.5907942466
C  C289  1  0.15115000  0.40370000  0.82689000  1.0 -0.2004697516
C  C290  1  0.09697000  0.38185000  0.74272000  1.0 -0.0786855196
C  C291  1  0.07829000  0.40899000  0.79623000  1.0 -0.150919478
C  C292  1  0.08358000  0.24200000  0.79343000  1.0 -0.0786855196
C  C293  1  0.11398000  0.40685000  0.75600000  1.0 -0.1573142175
C  C294  1  0.10821000  0.22757000  0.80853000  1.0 -0.1794526868
C  C295  1  0.10412000  0.58075000  0.21667000  1.0 0.0790800195
C  C296  1  0.07148000  0.63022000  0.24413000  1.0 -0.0707496668
C  C297  1  0.12225000  0.55559000  0.20150000  1.0 -0.0640182503
C  C298  1  0.11617000  0.52559000  0.20865000  1.0 0.1929489412
C  C299  1  0.14487000  0.56585000  0.17988000  1.0 0.1645805713
C  C300  1  0.09236000  0.51605000  0.23095000  1.0 -0.1794526868
C  C301  1  0.06142000  0.61599000  0.21766000  1.0 -0.0707496668
C  C302  1  0.05433000  0.65540000  0.25830000  1.0 0.5907942466
C  C303  1  0.15115000  0.59630000  0.17311000  1.0 -0.2004697516
C  C304  1  0.09697000  0.61815000  0.25728000  1.0 -0.0786855196
C  C305  1  0.07829000  0.59101000  0.20377000  1.0 -0.150919478
C  C306  1  0.08358000  0.75800000  0.20657000  1.0 -0.0786855196
C  C307  1  0.11398000  0.59315000  0.24400000  1.0 -0.1573142175
C  C308  1  0.10821000  0.77243000  0.19147000  1.0 -0.1794526868
C  C309  1  0.89588000  0.41925000  0.21667000  1.0 0.0790800195
C  C310  1  0.92852000  0.36978000  0.24413000  1.0 -0.0707496668
C  C311  1  0.87775000  0.44441000  0.20150000  1.0 -0.0640182503
C  C312  1  0.88383000  0.47441000  0.20865000  1.0 0.1929489412
C  C313  1  0.85513000  0.43415000  0.17988000  1.0 0.1645805713
C  C314  1  0.90764000  0.48395000  0.23095000  1.0 -0.1794526868
C  C315  1  0.93858000  0.38401000  0.21766000  1.0 -0.0707496668
C  C316  1  0.94567000  0.34460000  0.25830000  1.0 0.5907942466
C  C317  1  0.84885000  0.40370000  0.17311000  1.0 -0.2004697516
C  C318  1  0.90303000  0.38185000  0.25728000  1.0 -0.0786855196
C  C319  1  0.92171000  0.40899000  0.20377000  1.0 -0.150919478
C  C320  1  0.91642000  0.24200000  0.20657000  1.0 -0.0786855196
C  C321  1  0.88602000  0.40685000  0.24400000  1.0 -0.150919478
C  C322  1  0.89179000  0.22757000  0.19147000  1.0 -0.1794526868
C  C323  1  0.89588000  0.58075000  0.78333000  1.0 0.0790800195
C  C324  1  0.92852000  0.63022000  0.75587000  1.0 -0.0707496668
C  C325  1  0.87775000  0.55559000  0.79850000  1.0 -0.0640182503
C  C326  1  0.88383000  0.52559000  0.79135000  1.0 0.1929489412
C  C327  1  0.85513000  0.56585000  0.82012000  1.0 0.1694515386
C  C328  1  0.90764000  0.51605000  0.76905000  1.0 -0.1794526868
C  C329  1  0.93858000  0.61599000  0.78234000  1.0 -0.0707496668
C  C330  1  0.94567000  0.65540000  0.74170000  1.0 0.5907942466
C  C331  1  0.84885000  0.59630000  0.82689000  1.0 -0.2004697516
C  C332  1  0.90303000  0.61815000  0.74272000  1.0 -0.0786855196
C  C333  1  0.92171000  0.59101000  0.79623000  1.0 -0.150919478
C  C334  1  0.91642000  0.75800000  0.79343000  1.0 -0.0786855196
C  C335  1  0.88602000  0.59315000  0.75600000  1.0 -0.150919478
C  C336  1  0.89179000  0.77243000  0.80853000  1.0 -0.1794526868
C  C337  1  0.78333000  0.58075000  0.89588000  1.0 0.0790800195
C  C338  1  0.75587000  0.63022000  0.92852000  1.0 -0.0707496668
C  C339  1  0.79850000  0.55559000  0.87775000  1.0 -0.0707496668
C  C340  1  0.79135000  0.52559000  0.88383000  1.0 0.1929489412
C  C341  1  0.82012000  0.56585000  0.85513000  1.0 0.1694515386
C  C342  1  0.76905000  0.51605000  0.90764000  1.0 -0.1794526868
C  C343  1  0.78234000  0.61599000  0.93858000  1.0 -0.0707496668
C  C344  1  0.74170000  0.65540000  0.94567000  1.0 0.5907942466
C  C345  1  0.82689000  0.59630000  0.84885000  1.0 -0.2004697516
C  C346  1  0.74272000  0.61815000  0.90303000  1.0 -0.0786855196
C  C347  1  0.79623000  0.59101000  0.92171000  1.0 -0.150919478
C  C348  1  0.79343000  0.75800000  0.91642000  1.0 -0.0786855196
C  C349  1  0.75600000  0.59315000  0.88602000  1.0 -0.150919478
C  C350  1  0.80853000  0.77243000  0.89179000  1.0 -0.1794526868
C  C351  1  0.21667000  0.41925000  0.89588000  1.0 0.0790800195
C  C352  1  0.24413000  0.36978000  0.92852000  1.0 -0.0707496668
C  C353  1  0.20150000  0.44441000  0.87775000  1.0 -0.0707496668
C  C354  1  0.20865000  0.47441000  0.88383000  1.0 0.1929489412
C  C355  1  0.17988000  0.43415000  0.85513000  1.0 0.1694515386
C  C356  1  0.23095000  0.48395000  0.90764000  1.0 -0.1794526868
C  C357  1  0.21766000  0.38401000  0.93858000  1.0 -0.0707496668
C  C358  1  0.25830000  0.34460000  0.94567000  1.0 0.5907942466
C  C359  1  0.17311000  0.40370000  0.84885000  1.0 -0.2004697516
C  C360  1  0.25728000  0.38185000  0.90303000  1.0 -0.0786855196
C  C361  1  0.20377000  0.40899000  0.92171000  1.0 -0.150919478
C  C362  1  0.20657000  0.24200000  0.91642000  1.0 -0.0786855196
C  C363  1  0.24400000  0.40685000  0.88602000  1.0 -0.1573142175
C  C364  1  0.19147000  0.22757000  0.89179000  1.0 -0.1794526868
C  C365  1  0.21667000  0.58075000  0.10412000  1.0 0.0790800195
C  C366  1  0.24413000  0.63022000  0.07148000  1.0 -0.0707496668
C  C367  1  0.20150000  0.55559000  0.12225000  1.0 -0.0640182503
C  C368  1  0.20865000  0.52559000  0.11617000  1.0 0.1929489412
C  C369  1  0.17988000  0.56585000  0.14487000  1.0 0.1645805713
C  C370  1  0.23095000  0.51605000  0.09236000  1.0 -0.1794526868
C  C371  1  0.21766000  0.61599000  0.06142000  1.0 -0.0707496668
C  C372  1  0.25830000  0.65540000  0.05433000  1.0 0.5907942466
C  C373  1  0.17311000  0.59630000  0.15115000  1.0 -0.2004697516
C  C374  1  0.25728000  0.61815000  0.09697000  1.0 -0.0786855196
C  C375  1  0.20377000  0.59101000  0.07829000  1.0 -0.150919478
C  C376  1  0.20657000  0.75800000  0.08358000  1.0 -0.0786855196
C  C377  1  0.24400000  0.59315000  0.11398000  1.0 -0.1573142175
C  C378  1  0.19147000  0.77243000  0.10821000  1.0 -0.1794526868
C  C379  1  0.78333000  0.41925000  0.10412000  1.0 0.0790800195
C  C380  1  0.75587000  0.36978000  0.07148000  1.0 -0.0707496668
C  C381  1  0.79850000  0.44441000  0.12225000  1.0 -0.0640182503
C  C382  1  0.79135000  0.47441000  0.11617000  1.0 0.1929489412
C  C383  1  0.82012000  0.43415000  0.14487000  1.0 0.1645805713
C  C384  1  0.76905000  0.48395000  0.09236000  1.0 -0.1794526868
C  C385  1  0.78234000  0.38401000  0.06142000  1.0 -0.0707496668
C  C386  1  0.74170000  0.34460000  0.05433000  1.0 0.5907942466
C  C387  1  0.82689000  0.40370000  0.15115000  1.0 -0.2004697516
C  C388  1  0.74272000  0.38185000  0.09697000  1.0 -0.0786855196
C  C389  1  0.79623000  0.40899000  0.07829000  1.0 -0.150919478
C  C390  1  0.79343000  0.24200000  0.08358000  1.0 -0.0786855196
C  C391  1  0.75600000  0.40685000  0.11398000  1.0 -0.150919478
C  C392  1  0.80853000  0.22757000  0.10821000  1.0 -0.1794526868
C  C393  1  0.89588000  0.78333000  0.58075000  1.0 0.0790800195
C  C394  1  0.92852000  0.75587000  0.63022000  1.0 -0.0707496668
C  C395  1  0.87775000  0.79850000  0.55559000  1.0 -0.0640182503
C  C396  1  0.88383000  0.79135000  0.52559000  1.0 0.1929489412
C  C397  1  0.85513000  0.82012000  0.56585000  1.0 0.1694515386
C  C398  1  0.90764000  0.76905000  0.51605000  1.0 -0.1794526868
C  C399  1  0.93858000  0.78234000  0.61599000  1.0 -0.0707496668
C  C400  1  0.94567000  0.74170000  0.65540000  1.0 0.5907942466
C  C401  1  0.84885000  0.82689000  0.59630000  1.0 -0.2004697516
C  C402  1  0.90303000  0.74272000  0.61815000  1.0 -0.0786855196
C  C403  1  0.92171000  0.79623000  0.59101000  1.0 -0.150919478
C  C404  1  0.91642000  0.79343000  0.75800000  1.0 -0.0786855196
C  C405  1  0.88602000  0.75600000  0.59315000  1.0 -0.150919478
C  C406  1  0.89179000  0.80853000  0.77243000  1.0 -0.1794526868
C  C407  1  0.89588000  0.21667000  0.41925000  1.0 0.0790800195
C  C408  1  0.92852000  0.24413000  0.36978000  1.0 -0.0707496668
C  C409  1  0.87775000  0.20150000  0.44441000  1.0 -0.0640182503
C  C410  1  0.88383000  0.20865000  0.47441000  1.0 0.1929489412
C  C411  1  0.85513000  0.17988000  0.43415000  1.0 0.1694515386
C  C412  1  0.90764000  0.23095000  0.48395000  1.0 -0.1794526868
C  C413  1  0.93858000  0.21766000  0.38401000  1.0 -0.0707496668
C  C414  1  0.94567000  0.25830000  0.34460000  1.0 0.5907942466
C  C415  1  0.84885000  0.17311000  0.40370000  1.0 -0.2004697516
C  C416  1  0.90303000  0.25728000  0.38185000  1.0 -0.0786855196
C  C417  1  0.92171000  0.20377000  0.40899000  1.0 -0.150919478
C  C418  1  0.91642000  0.20657000  0.24200000  1.0 -0.0786855196
C  C419  1  0.88602000  0.24400000  0.40685000  1.0 -0.150919478
C  C420  1  0.89179000  0.19147000  0.22757000  1.0 -0.1794526868
C  C421  1  0.10412000  0.21667000  0.58075000  1.0 0.0790800195
C  C422  1  0.07148000  0.24413000  0.63022000  1.0 -0.0707496668
C  C423  1  0.12225000  0.20150000  0.55559000  1.0 -0.0640182503
C  C424  1  0.11617000  0.20865000  0.52559000  1.0 0.1929489412
C  C425  1  0.14487000  0.17988000  0.56585000  1.0 0.1694515386
C  C426  1  0.09236000  0.23095000  0.51605000  1.0 -0.1794526868
C  C427  1  0.06142000  0.21766000  0.61599000  1.0 -0.0707496668
C  C428  1  0.05433000  0.25830000  0.65540000  1.0 0.5907942466
C  C429  1  0.15115000  0.17311000  0.59630000  1.0 -0.2004697516
C  C430  1  0.09697000  0.25728000  0.61815000  1.0 -0.0786855196
C  C431  1  0.07829000  0.20377000  0.59101000  1.0 -0.150919478
C  C432  1  0.08358000  0.20657000  0.75800000  1.0 -0.0786855196
C  C433  1  0.11398000  0.24400000  0.59315000  1.0 -0.1573142175
C  C434  1  0.10821000  0.19147000  0.77243000  1.0 -0.1794526868
C  C435  1  0.10412000  0.78333000  0.41925000  1.0 0.0790800195
C  C436  1  0.07148000  0.75587000  0.36978000  1.0 -0.0707496668
C  C437  1  0.12225000  0.79850000  0.44441000  1.0 -0.0640182503
C  C438  1  0.11617000  0.79135000  0.47441000  1.0 0.1929489412
C  C439  1  0.14487000  0.82012000  0.43415000  1.0 0.1645805713
C  C440  1  0.09236000  0.76905000  0.48395000  1.0 -0.1794526868
C  C441  1  0.06142000  0.78234000  0.38401000  1.0 -0.0707496668
C  C442  1  0.05433000  0.74170000  0.34460000  1.0 0.5907942466
C  C443  1  0.15115000  0.82689000  0.40370000  1.0 -0.2004697516
C  C444  1  0.09697000  0.74272000  0.38185000  1.0 -0.0786855196
C  C445  1  0.07829000  0.79623000  0.40899000  1.0 -0.150919478
C  C446  1  0.08358000  0.79343000  0.24200000  1.0 -0.0786855196
C  C447  1  0.11398000  0.75600000  0.40685000  1.0 -0.1573142175
C  C448  1  0.10821000  0.80853000  0.22757000  1.0 -0.1794526868
C  C449  1  0.58075000  0.89588000  0.78333000  1.0 0.0790800195
C  C450  1  0.63022000  0.92852000  0.75587000  1.0 -0.0707496668
C  C451  1  0.55559000  0.87775000  0.79850000  1.0 -0.0707496668
C  C452  1  0.52559000  0.88383000  0.79135000  1.0 0.1929489412
C  C453  1  0.56585000  0.85513000  0.82012000  1.0 0.1694515386
C  C454  1  0.51605000  0.90764000  0.76905000  1.0 -0.1794526868
C  C455  1  0.61599000  0.93858000  0.78234000  1.0 -0.0707496668
C  C456  1  0.65540000  0.94567000  0.74170000  1.0 0.5907942466
C  C457  1  0.59630000  0.84885000  0.82689000  1.0 -0.2004697516
C  C458  1  0.61815000  0.90303000  0.74272000  1.0 -0.0786855196
C  C459  1  0.59101000  0.92171000  0.79623000  1.0 -0.150919478
C  C460  1  0.75800000  0.91642000  0.79343000  1.0 -0.0786855196
C  C461  1  0.59315000  0.88602000  0.75600000  1.0 -0.1573142175
C  C462  1  0.77243000  0.89179000  0.80853000  1.0 -0.1794526868
C  C463  1  0.41925000  0.89588000  0.21667000  1.0 0.0790800195
C  C464  1  0.36978000  0.92852000  0.24413000  1.0 -0.0707496668
C  C465  1  0.44441000  0.87775000  0.20150000  1.0 -0.0640182503
C  C466  1  0.47441000  0.88383000  0.20865000  1.0 0.1929489412
C  C467  1  0.43415000  0.85513000  0.17988000  1.0 0.1645805713
C  C468  1  0.48395000  0.90764000  0.23095000  1.0 -0.1794526868
C  C469  1  0.38401000  0.93858000  0.21766000  1.0 -0.0707496668
C  C470  1  0.34460000  0.94567000  0.25830000  1.0 0.5907942466
C  C471  1  0.40370000  0.84885000  0.17311000  1.0 -0.2004697516
C  C472  1  0.38185000  0.90303000  0.25728000  1.0 -0.0786855196
C  C473  1  0.40899000  0.92171000  0.20377000  1.0 -0.150919478
C  C474  1  0.24200000  0.91642000  0.20657000  1.0 -0.0786855196
C  C475  1  0.40685000  0.88602000  0.24400000  1.0 -0.1573142175
C  C476  1  0.22757000  0.89179000  0.19147000  1.0 -0.1794526868
C  C477  1  0.58075000  0.10412000  0.21667000  1.0 0.0790800195
C  C478  1  0.63022000  0.07148000  0.24413000  1.0 -0.0707496668
C  C479  1  0.55559000  0.12225000  0.20150000  1.0 -0.0640182503
C  C480  1  0.52559000  0.11617000  0.20865000  1.0 0.1929489412
C  C481  1  0.56585000  0.14487000  0.17988000  1.0 0.1645805713
C  C482  1  0.51605000  0.09236000  0.23095000  1.0 -0.1794526868
C  C483  1  0.61599000  0.06142000  0.21766000  1.0 -0.0707496668
C  C484  1  0.65540000  0.05433000  0.25830000  1.0 0.5907942466
C  C485  1  0.59630000  0.15115000  0.17311000  1.0 -0.2004697516
C  C486  1  0.61815000  0.09697000  0.25728000  1.0 -0.0786855196
C  C487  1  0.59101000  0.07829000  0.20377000  1.0 -0.150919478
C  C488  1  0.75800000  0.08358000  0.20657000  1.0 -0.0786855196
C  C489  1  0.59315000  0.11398000  0.24400000  1.0 -0.150919478
C  C490  1  0.77243000  0.10821000  0.19147000  1.0 -0.1794526868
C  C491  1  0.41925000  0.10412000  0.78333000  1.0 0.0790800195
C  C492  1  0.36978000  0.07148000  0.75587000  1.0 -0.0707496668
C  C493  1  0.44441000  0.12225000  0.79850000  1.0 -0.0640182503
C  C494  1  0.47441000  0.11617000  0.79135000  1.0 0.1929489412
C  C495  1  0.43415000  0.14487000  0.82012000  1.0 0.1694515386
C  C496  1  0.48395000  0.09236000  0.76905000  1.0 -0.1794526868
C  C497  1  0.38401000  0.06142000  0.78234000  1.0 -0.0707496668
C  C498  1  0.34460000  0.05433000  0.74170000  1.0 0.5907942466
C  C499  1  0.40370000  0.15115000  0.82689000  1.0 -0.2004697516
C  C500  1  0.38185000  0.09697000  0.74272000  1.0 -0.0786855196
C  C501  1  0.40899000  0.07829000  0.79623000  1.0 -0.150919478
C  C502  1  0.24200000  0.08358000  0.79343000  1.0 -0.0786855196
C  C503  1  0.40685000  0.11398000  0.75600000  1.0 -0.1573142175
C  C504  1  0.22757000  0.10821000  0.80853000  1.0 -0.1794526868
C  C505  1  0.58075000  0.78333000  0.10412000  1.0 0.0790800195
C  C506  1  0.63022000  0.75587000  0.07148000  1.0 -0.0707496668
C  C507  1  0.55559000  0.79850000  0.12225000  1.0 -0.0640182503
C  C508  1  0.52559000  0.79135000  0.11617000  1.0 0.1929489412
C  C509  1  0.56585000  0.82012000  0.14487000  1.0 0.1645805713
C  C510  1  0.51605000  0.76905000  0.09236000  1.0 -0.1794526868
C  C511  1  0.61599000  0.78234000  0.06142000  1.0 -0.0707496668
C  C512  1  0.65540000  0.74170000  0.05433000  1.0 0.5907942466
C  C513  1  0.59630000  0.82689000  0.15115000  1.0 -0.2004697516
C  C514  1  0.61815000  0.74272000  0.09697000  1.0 -0.0786855196
C  C515  1  0.59101000  0.79623000  0.07829000  1.0 -0.150919478
C  C516  1  0.75800000  0.79343000  0.08358000  1.0 -0.0786855196
C  C517  1  0.59315000  0.75600000  0.11398000  1.0 -0.1573142175
C  C518  1  0.77243000  0.80853000  0.10821000  1.0 -0.1794526868
C  C519  1  0.41925000  0.21667000  0.10412000  1.0 0.0790800195
C  C520  1  0.36978000  0.24413000  0.07148000  1.0 -0.0707496668
C  C521  1  0.44441000  0.20150000  0.12225000  1.0 -0.0640182503
C  C522  1  0.47441000  0.20865000  0.11617000  1.0 0.1929489412
C  C523  1  0.43415000  0.17988000  0.14487000  1.0 0.1645805713
C  C524  1  0.48395000  0.23095000  0.09236000  1.0 -0.1794526868
C  C525  1  0.38401000  0.21766000  0.06142000  1.0 -0.0707496668
C  C526  1  0.34460000  0.25830000  0.05433000  1.0 0.5907942466
C  C527  1  0.40370000  0.17311000  0.15115000  1.0 -0.2004697516
C  C528  1  0.38185000  0.25728000  0.09697000  1.0 -0.0786855196
C  C529  1  0.40899000  0.20377000  0.07829000  1.0 -0.150919478
C  C530  1  0.24200000  0.20657000  0.08358000  1.0 -0.0786855196
C  C531  1  0.40685000  0.24400000  0.11398000  1.0 -0.1573142175
C  C532  1  0.22757000  0.19147000  0.10821000  1.0 -0.1794526868
C  C533  1  0.58075000  0.21667000  0.89588000  1.0 0.0790800195
C  C534  1  0.63022000  0.24413000  0.92852000  1.0 -0.0707496668
C  C535  1  0.55559000  0.20150000  0.87775000  1.0 -0.0640182503
C  C536  1  0.52559000  0.20865000  0.88383000  1.0 0.1929489412
C  C537  1  0.56585000  0.17988000  0.85513000  1.0 0.1694515386
C  C538  1  0.51605000  0.23095000  0.90764000  1.0 -0.1794526868
C  C539  1  0.61599000  0.21766000  0.93858000  1.0 -0.0707496668
C  C540  1  0.65540000  0.25830000  0.94567000  1.0 0.5907942466
C  C541  1  0.59630000  0.17311000  0.84885000  1.0 -0.2004697516
C  C542  1  0.61815000  0.25728000  0.90303000  1.0 -0.0786855196
C  C543  1  0.59101000  0.20377000  0.92171000  1.0 -0.150919478
C  C544  1  0.75800000  0.20657000  0.91642000  1.0 -0.0786855196
C  C545  1  0.59315000  0.24400000  0.88602000  1.0 -0.1573142175
C  C546  1  0.77243000  0.19147000  0.89179000  1.0 -0.1794526868
C  C547  1  0.41925000  0.78333000  0.89588000  1.0 0.0790800195
C  C548  1  0.36978000  0.75587000  0.92852000  1.0 -0.0707496668
C  C549  1  0.44441000  0.79850000  0.87775000  1.0 -0.0707496668
C  C550  1  0.47441000  0.79135000  0.88383000  1.0 0.1929489412
C  C551  1  0.43415000  0.82012000  0.85513000  1.0 0.1694515386
C  C552  1  0.48395000  0.76905000  0.90764000  1.0 -0.1794526868
C  C553  1  0.38401000  0.78234000  0.93858000  1.0 -0.0707496668
C  C554  1  0.34460000  0.74170000  0.94567000  1.0 0.5907942466
C  C555  1  0.40370000  0.82689000  0.84885000  1.0 -0.2004697516
C  C556  1  0.38185000  0.74272000  0.90303000  1.0 -0.0786855196
C  C557  1  0.40899000  0.79623000  0.92171000  1.0 -0.150919478
C  C558  1  0.24200000  0.79343000  0.91642000  1.0 -0.0786855196
C  C559  1  0.40685000  0.75600000  0.88602000  1.0 -0.1573142175
C  C560  1  0.22757000  0.80853000  0.89179000  1.0 -0.1794526868
C  C561  1  0.78333000  0.89588000  0.41925000  1.0 0.0790800195
C  C562  1  0.75587000  0.92852000  0.36978000  1.0 -0.0707496668
C  C563  1  0.79850000  0.87775000  0.44441000  1.0 -0.0640182503
C  C564  1  0.79135000  0.88383000  0.47441000  1.0 0.1929489412
C  C565  1  0.82012000  0.85513000  0.43415000  1.0 0.1645805713
C  C566  1  0.76905000  0.90764000  0.48395000  1.0 -0.1794526868
C  C567  1  0.78234000  0.93858000  0.38401000  1.0 -0.0707496668
C  C568  1  0.74170000  0.94567000  0.34460000  1.0 0.5907942466
C  C569  1  0.82689000  0.84885000  0.40370000  1.0 -0.2004697516
C  C570  1  0.74272000  0.90303000  0.38185000  1.0 -0.0786855196
C  C571  1  0.79623000  0.92171000  0.40899000  1.0 -0.150919478
C  C572  1  0.79343000  0.91642000  0.24200000  1.0 -0.0786855196
C  C573  1  0.75600000  0.88602000  0.40685000  1.0 -0.150919478
C  C574  1  0.80853000  0.89179000  0.22757000  1.0 -0.1794526868
C  C575  1  0.21667000  0.89588000  0.58075000  1.0 0.0790800195
C  C576  1  0.24413000  0.92852000  0.63022000  1.0 -0.0707496668
C  C577  1  0.20150000  0.87775000  0.55559000  1.0 -0.0707496668
C  C578  1  0.20865000  0.88383000  0.52559000  1.0 0.1929489412
C  C579  1  0.17988000  0.85513000  0.56585000  1.0 0.1645805713
C  C580  1  0.23095000  0.90764000  0.51605000  1.0 -0.1794526868
C  C581  1  0.21766000  0.93858000  0.61599000  1.0 -0.0707496668
C  C582  1  0.25830000  0.94567000  0.65540000  1.0 0.5907942466
C  C583  1  0.17311000  0.84885000  0.59630000  1.0 -0.2004697516
C  C584  1  0.25728000  0.90303000  0.61815000  1.0 -0.0786855196
C  C585  1  0.20377000  0.92171000  0.59101000  1.0 -0.150919478
C  C586  1  0.20657000  0.91642000  0.75800000  1.0 -0.0786855196
C  C587  1  0.24400000  0.88602000  0.59315000  1.0 -0.1573142175
C  C588  1  0.19147000  0.89179000  0.77243000  1.0 -0.1794526868
C  C589  1  0.21667000  0.10412000  0.41925000  1.0 0.0790800195
C  C590  1  0.24413000  0.07148000  0.36978000  1.0 -0.0707496668
C  C591  1  0.20150000  0.12225000  0.44441000  1.0 -0.0640182503
C  C592  1  0.20865000  0.11617000  0.47441000  1.0 0.1929489412
C  C593  1  0.17988000  0.14487000  0.43415000  1.0 0.1694515386
C  C594  1  0.23095000  0.09236000  0.48395000  1.0 -0.1794526868
C  C595  1  0.21766000  0.06142000  0.38401000  1.0 -0.0707496668
C  C596  1  0.25830000  0.05433000  0.34460000  1.0 0.5907942466
C  C597  1  0.17311000  0.15115000  0.40370000  1.0 -0.2004697516
C  C598  1  0.25728000  0.09697000  0.38185000  1.0 -0.0786855196
C  C599  1  0.20377000  0.07829000  0.40899000  1.0 -0.150919478
C  C600  1  0.20657000  0.08358000  0.24200000  1.0 -0.0786855196
C  C601  1  0.24400000  0.11398000  0.40685000  1.0 -0.1573142175
C  C602  1  0.19147000  0.10821000  0.22757000  1.0 -0.1794526868
C  C603  1  0.78333000  0.10412000  0.58075000  1.0 0.0790800195
C  C604  1  0.75587000  0.07148000  0.63022000  1.0 -0.0707496668
C  C605  1  0.79850000  0.12225000  0.55559000  1.0 -0.0640182503
C  C606  1  0.79135000  0.11617000  0.52559000  1.0 0.1929489412
C  C607  1  0.82012000  0.14487000  0.56585000  1.0 0.1694515386
C  C608  1  0.76905000  0.09236000  0.51605000  1.0 -0.1794526868
C  C609  1  0.78234000  0.06142000  0.61599000  1.0 -0.0707496668
C  C610  1  0.74170000  0.05433000  0.65540000  1.0 0.5907942466
C  C611  1  0.82689000  0.15115000  0.59630000  1.0 -0.2004697516
C  C612  1  0.74272000  0.09697000  0.61815000  1.0 -0.0786855196
C  C613  1  0.79623000  0.07829000  0.59101000  1.0 -0.150919478
C  C614  1  0.79343000  0.08358000  0.75800000  1.0 -0.0786855196
C  C615  1  0.75600000  0.11398000  0.59315000  1.0 -0.150919478
C  C616  1  0.80853000  0.10821000  0.77243000  1.0 -0.1794526868
C  C617  1  0.89588000  0.58075000  0.21667000  1.0 0.0790800195
C  C618  1  0.92852000  0.63022000  0.24413000  1.0 -0.0707496668
C  C619  1  0.87775000  0.55559000  0.20150000  1.0 -0.0640182503
C  C620  1  0.88383000  0.52559000  0.20865000  1.0 0.1929489412
C  C621  1  0.85513000  0.56585000  0.17988000  1.0 0.1645805713
C  C622  1  0.90764000  0.51605000  0.23095000  1.0 -0.1794526868
C  C623  1  0.93858000  0.61599000  0.21766000  1.0 -0.0707496668
C  C624  1  0.94567000  0.65540000  0.25830000  1.0 0.5907942466
C  C625  1  0.84885000  0.59630000  0.17311000  1.0 -0.2004697516
C  C626  1  0.90303000  0.61815000  0.25728000  1.0 -0.0786855196
C  C627  1  0.92171000  0.59101000  0.20377000  1.0 -0.150919478
C  C628  1  0.91642000  0.75800000  0.20657000  1.0 -0.0786855196
C  C629  1  0.88602000  0.59315000  0.24400000  1.0 -0.150919478
C  C630  1  0.89179000  0.77243000  0.19147000  1.0 -0.1794526868
C  C631  1  0.89588000  0.41925000  0.78333000  1.0 0.0790800195
C  C632  1  0.92852000  0.36978000  0.75587000  1.0 -0.0707496668
C  C633  1  0.87775000  0.44441000  0.79850000  1.0 -0.0640182503
C  C634  1  0.88383000  0.47441000  0.79135000  1.0 0.1929489412
C  C635  1  0.85513000  0.43415000  0.82012000  1.0 0.1694515386
C  C636  1  0.90764000  0.48395000  0.76905000  1.0 -0.1794526868
C  C637  1  0.93858000  0.38401000  0.78234000  1.0 -0.0707496668
C  C638  1  0.94567000  0.34460000  0.74170000  1.0 0.5907942466
C  C639  1  0.84885000  0.40370000  0.82689000  1.0 -0.2004697516
C  C640  1  0.90303000  0.38185000  0.74272000  1.0 -0.0786855196
C  C641  1  0.92171000  0.40899000  0.79623000  1.0 -0.150919478
C  C642  1  0.91642000  0.24200000  0.79343000  1.0 -0.0786855196
C  C643  1  0.88602000  0.40685000  0.75600000  1.0 -0.150919478
C  C644  1  0.89179000  0.22757000  0.80853000  1.0 -0.1794526868
C  C645  1  0.10412000  0.58075000  0.78333000  1.0 0.0790800195
C  C646  1  0.07148000  0.63022000  0.75587000  1.0 -0.0707496668
C  C647  1  0.12225000  0.55559000  0.79850000  1.0 -0.0707496668
C  C648  1  0.11617000  0.52559000  0.79135000  1.0 0.1929489412
C  C649  1  0.14487000  0.56585000  0.82012000  1.0 0.1694515386
C  C650  1  0.09236000  0.51605000  0.76905000  1.0 -0.1794526868
C  C651  1  0.06142000  0.61599000  0.78234000  1.0 -0.0707496668
C  C652  1  0.05433000  0.65540000  0.74170000  1.0 0.5907942466
C  C653  1  0.15115000  0.59630000  0.82689000  1.0 -0.2004697516
C  C654  1  0.09697000  0.61815000  0.74272000  1.0 -0.0786855196
C  C655  1  0.07829000  0.59101000  0.79623000  1.0 -0.150919478
C  C656  1  0.08358000  0.75800000  0.79343000  1.0 -0.0786855196
C  C657  1  0.11398000  0.59315000  0.75600000  1.0 -0.1573142175
C  C658  1  0.10821000  0.77243000  0.80853000  1.0 -0.1794526868
C  C659  1  0.10412000  0.41925000  0.21667000  1.0 0.0790800195
C  C660  1  0.07148000  0.36978000  0.24413000  1.0 -0.0707496668
C  C661  1  0.12225000  0.44441000  0.20150000  1.0 -0.0640182503
C  C662  1  0.11617000  0.47441000  0.20865000  1.0 0.1929489412
C  C663  1  0.14487000  0.43415000  0.17988000  1.0 0.1645805713
C  C664  1  0.09236000  0.48395000  0.23095000  1.0 -0.1794526868
C  C665  1  0.06142000  0.38401000  0.21766000  1.0 -0.0707496668
C  C666  1  0.05433000  0.34460000  0.25830000  1.0 0.5907942466
C  C667  1  0.15115000  0.40370000  0.17311000  1.0 -0.2004697516
C  C668  1  0.09697000  0.38185000  0.25728000  1.0 -0.0786855196
C  C669  1  0.07829000  0.40899000  0.20377000  1.0 -0.150919478
C  C670  1  0.08358000  0.24200000  0.20657000  1.0 -0.0786855196
C  C671  1  0.11398000  0.40685000  0.24400000  1.0 -0.1573142175
C  C672  1  0.10821000  0.22757000  0.19147000  1.0 -0.1794526868
C  C673  1  0.23193000  0.23193000  0.07010000  1.0 -0.0640182503
C  C674  1  0.24685000  0.24685000  0.04410000  1.0 0.5907942466
C  C675  1  0.20318000  0.20318000  0.12240000  1.0 0.0790800195
C  C676  1  0.18854000  0.18854000  0.14891000  1.0 0.0888861109
C  C677  1  0.38672000  0.38672000  0.02630000  1.0 -0.0707496668
C  C678  1  0.40940000  0.40940000  0.02780000  1.0 -0.1573142175
C  C679  1  0.76807000  0.76807000  0.07010000  1.0 -0.0640182503
C  C680  1  0.75315000  0.75315000  0.04410000  1.0 0.5907942466
C  C681  1  0.79682000  0.79682000  0.12240000  1.0 0.0790800195
C  C682  1  0.81146000  0.81146000  0.14891000  1.0 0.0888861109
C  C683  1  0.61328000  0.61328000  0.02630000  1.0 -0.0707496668
C  C684  1  0.59060000  0.59060000  0.02780000  1.0 -0.1573142175
C  C685  1  0.76807000  0.23193000  0.92990000  1.0 -0.0640182503
C  C686  1  0.75315000  0.24685000  0.95590000  1.0 0.5907942466
C  C687  1  0.79682000  0.20318000  0.87760000  1.0 0.0790800195
C  C688  1  0.81146000  0.18854000  0.85109000  1.0 0.0888861109
C  C689  1  0.61328000  0.38672000  0.97370000  1.0 -0.0707496668
C  C690  1  0.59060000  0.40940000  0.97220000  1.0 -0.1573142175
C  C691  1  0.23193000  0.76807000  0.92990000  1.0 -0.0640182503
C  C692  1  0.24685000  0.75315000  0.95590000  1.0 0.5907942466
C  C693  1  0.20318000  0.79682000  0.87760000  1.0 0.0790800195
C  C694  1  0.18854000  0.81146000  0.85109000  1.0 0.0888861109
C  C695  1  0.38672000  0.61328000  0.97370000  1.0 -0.0707496668
C  C696  1  0.40940000  0.59060000  0.97220000  1.0 -0.1573142175
C  C697  1  0.07010000  0.23193000  0.23193000  1.0 -0.0640182503
C  C698  1  0.04410000  0.24685000  0.24685000  1.0 0.5907942466
C  C699  1  0.12240000  0.20318000  0.20318000  1.0 0.0790800195
C  C700  1  0.14891000  0.18854000  0.18854000  1.0 0.0888861109
C  C701  1  0.02630000  0.38672000  0.38672000  1.0 -0.0707496668
C  C702  1  0.02780000  0.40940000  0.40940000  1.0 -0.1573142175
C  C703  1  0.07010000  0.76807000  0.76807000  1.0 -0.0640182503
C  C704  1  0.04410000  0.75315000  0.75315000  1.0 0.5907942466
C  C705  1  0.12240000  0.79682000  0.79682000  1.0 0.0790800195
C  C706  1  0.14891000  0.81146000  0.81146000  1.0 0.0888861109
C  C707  1  0.02630000  0.61328000  0.61328000  1.0 -0.0707496668
C  C708  1  0.02780000  0.59060000  0.59060000  1.0 -0.1573142175
C  C709  1  0.92990000  0.76807000  0.23193000  1.0 -0.0640182503
C  C710  1  0.95590000  0.75315000  0.24685000  1.0 0.5907942466
C  C711  1  0.87760000  0.79682000  0.20318000  1.0 0.0790800195
C  C712  1  0.85109000  0.81146000  0.18854000  1.0 0.0888861109
C  C713  1  0.97370000  0.61328000  0.38672000  1.0 -0.0707496668
C  C714  1  0.97220000  0.59060000  0.40940000  1.0 -0.1573142175
C  C715  1  0.92990000  0.23193000  0.76807000  1.0 -0.0640182503
C  C716  1  0.95590000  0.24685000  0.75315000  1.0 0.5907942466
C  C717  1  0.87760000  0.20318000  0.79682000  1.0 0.0790800195
C  C718  1  0.85109000  0.18854000  0.81146000  1.0 0.0888861109
C  C719  1  0.97370000  0.38672000  0.61328000  1.0 -0.0707496668
C  C720  1  0.97220000  0.40940000  0.59060000  1.0 -0.1573142175
C  C721  1  0.23193000  0.07010000  0.23193000  1.0 -0.0640182503
C  C722  1  0.24685000  0.04410000  0.24685000  1.0 0.5907942466
C  C723  1  0.20318000  0.12240000  0.20318000  1.0 0.0790800195
C  C724  1  0.18854000  0.14891000  0.18854000  1.0 0.0888861109
C  C725  1  0.38672000  0.02630000  0.38672000  1.0 -0.0707496668
C  C726  1  0.40940000  0.02780000  0.40940000  1.0 -0.1573142175
C  C727  1  0.76807000  0.07010000  0.76807000  1.0 -0.0640182503
C  C728  1  0.75315000  0.04410000  0.75315000  1.0 0.5907942466
C  C729  1  0.79682000  0.12240000  0.79682000  1.0 0.0790800195
C  C730  1  0.81146000  0.14891000  0.81146000  1.0 0.0888861109
C  C731  1  0.61328000  0.02630000  0.61328000  1.0 -0.0707496668
C  C732  1  0.59060000  0.02780000  0.59060000  1.0 -0.1573142175
C  C733  1  0.23193000  0.92990000  0.76807000  1.0 -0.0640182503
C  C734  1  0.24685000  0.95590000  0.75315000  1.0 0.5907942466
C  C735  1  0.20318000  0.87760000  0.79682000  1.0 0.0790800195
C  C736  1  0.18854000  0.85109000  0.81146000  1.0 0.0888861109
C  C737  1  0.38672000  0.97370000  0.61328000  1.0 -0.0707496668
C  C738  1  0.40940000  0.97220000  0.59060000  1.0 -0.1573142175
C  C739  1  0.76807000  0.92990000  0.23193000  1.0 -0.0640182503
C  C740  1  0.75315000  0.95590000  0.24685000  1.0 0.5907942466
C  C741  1  0.79682000  0.87760000  0.20318000  1.0 0.0790800195
C  C742  1  0.81146000  0.85109000  0.18854000  1.0 0.0888861109
C  C743  1  0.61328000  0.97370000  0.38672000  1.0 -0.0707496668
C  C744  1  0.59060000  0.97220000  0.40940000  1.0 -0.1573142175
C  C745  1  0.23193000  0.23193000  0.92990000  1.0 -0.0640182503
C  C746  1  0.24685000  0.24685000  0.95590000  1.0 0.5907942466
C  C747  1  0.20318000  0.20318000  0.87760000  1.0 0.0790800195
C  C748  1  0.18854000  0.18854000  0.85109000  1.0 0.0888861109
C  C749  1  0.38672000  0.38672000  0.97370000  1.0 -0.0707496668
C  C750  1  0.40940000  0.40940000  0.97220000  1.0 -0.1573142175
C  C751  1  0.76807000  0.76807000  0.92990000  1.0 -0.0640182503
C  C752  1  0.75315000  0.75315000  0.95590000  1.0 0.5907942466
C  C753  1  0.79682000  0.79682000  0.87760000  1.0 0.0790800195
C  C754  1  0.81146000  0.81146000  0.85109000  1.0 0.0888861109
C  C755  1  0.61328000  0.61328000  0.97370000  1.0 -0.0707496668
C  C756  1  0.59060000  0.59060000  0.97220000  1.0 -0.1573142175
C  C757  1  0.23193000  0.76807000  0.07010000  1.0 -0.0640182503
C  C758  1  0.24685000  0.75315000  0.04410000  1.0 0.5907942466
C  C759  1  0.20318000  0.79682000  0.12240000  1.0 0.0790800195
C  C760  1  0.18854000  0.81146000  0.14891000  1.0 0.0888861109
C  C761  1  0.38672000  0.61328000  0.02630000  1.0 -0.0707496668
C  C762  1  0.40940000  0.59060000  0.02780000  1.0 -0.1573142175
C  C763  1  0.76807000  0.23193000  0.07010000  1.0 -0.0640182503
C  C764  1  0.75315000  0.24685000  0.04410000  1.0 0.5907942466
C  C765  1  0.79682000  0.20318000  0.12240000  1.0 0.0790800195
C  C766  1  0.81146000  0.18854000  0.14891000  1.0 0.0888861109
C  C767  1  0.61328000  0.38672000  0.02630000  1.0 -0.0707496668
C  C768  1  0.59060000  0.40940000  0.02780000  1.0 -0.1573142175
C  C769  1  0.23193000  0.07010000  0.76807000  1.0 -0.0640182503
C  C770  1  0.24685000  0.04410000  0.75315000  1.0 0.5907942466
C  C771  1  0.20318000  0.12240000  0.79682000  1.0 0.0790800195
C  C772  1  0.18854000  0.14891000  0.81146000  1.0 0.0888861109
C  C773  1  0.38672000  0.02630000  0.61328000  1.0 -0.0707496668
C  C774  1  0.40940000  0.02780000  0.59060000  1.0 -0.1573142175
C  C775  1  0.76807000  0.07010000  0.23193000  1.0 -0.0640182503
C  C776  1  0.75315000  0.04410000  0.24685000  1.0 0.5907942466
C  C777  1  0.79682000  0.12240000  0.20318000  1.0 0.0790800195
C  C778  1  0.81146000  0.14891000  0.18854000  1.0 0.0888861109
C  C779  1  0.61328000  0.02630000  0.38672000  1.0 -0.0707496668
C  C780  1  0.59060000  0.02780000  0.40940000  1.0 -0.1573142175
C  C781  1  0.76807000  0.92990000  0.76807000  1.0 -0.0640182503
C  C782  1  0.75315000  0.95590000  0.75315000  1.0 0.5907942466
C  C783  1  0.79682000  0.87760000  0.79682000  1.0 0.0790800195
C  C784  1  0.81146000  0.85109000  0.81146000  1.0 0.0888861109
C  C785  1  0.61328000  0.97370000  0.61328000  1.0 -0.0707496668
C  C786  1  0.59060000  0.97220000  0.59060000  1.0 -0.1573142175
C  C787  1  0.23193000  0.92990000  0.23193000  1.0 -0.0640182503
C  C788  1  0.24685000  0.95590000  0.24685000  1.0 0.5907942466
C  C789  1  0.20318000  0.87760000  0.20318000  1.0 0.0790800195
C  C790  1  0.18854000  0.85109000  0.18854000  1.0 0.0888861109
C  C791  1  0.38672000  0.97370000  0.38672000  1.0 -0.0707496668
C  C792  1  0.40940000  0.97220000  0.40940000  1.0 -0.1573142175
C  C793  1  0.07010000  0.23193000  0.76807000  1.0 -0.0640182503
C  C794  1  0.04410000  0.24685000  0.75315000  1.0 0.5907942466
C  C795  1  0.12240000  0.20318000  0.79682000  1.0 0.0790800195
C  C796  1  0.14891000  0.18854000  0.81146000  1.0 0.0888861109
C  C797  1  0.02630000  0.38672000  0.61328000  1.0 -0.0707496668
C  C798  1  0.02780000  0.40940000  0.59060000  1.0 -0.1573142175
C  C799  1  0.07010000  0.76807000  0.23193000  1.0 -0.0640182503
C  C800  1  0.04410000  0.75315000  0.24685000  1.0 0.5907942466
C  C801  1  0.12240000  0.79682000  0.20318000  1.0 0.0790800195
C  C802  1  0.14891000  0.81146000  0.18854000  1.0 0.0888861109
C  C803  1  0.02630000  0.61328000  0.38672000  1.0 -0.0707496668
C  C804  1  0.02780000  0.59060000  0.40940000  1.0 -0.1573142175
C  C805  1  0.92990000  0.23193000  0.23193000  1.0 -0.0640182503
C  C806  1  0.95590000  0.24685000  0.24685000  1.0 0.5907942466
C  C807  1  0.87760000  0.20318000  0.20318000  1.0 0.0790800195
C  C808  1  0.85109000  0.18854000  0.18854000  1.0 0.0888861109
C  C809  1  0.97370000  0.38672000  0.38672000  1.0 -0.0707496668
C  C810  1  0.97220000  0.40940000  0.40940000  1.0 -0.1573142175
C  C811  1  0.92990000  0.76807000  0.76807000  1.0 -0.0640182503
C  C812  1  0.95590000  0.75315000  0.75315000  1.0 0.5907942466
C  C813  1  0.87760000  0.79682000  0.79682000  1.0 0.0790800195
C  C814  1  0.85109000  0.81146000  0.81146000  1.0 0.0888861109
C  C815  1  0.97370000  0.61328000  0.61328000  1.0 -0.0707496668
C  C816  1  0.97220000  0.59060000  0.59060000  1.0 -0.1573142175
C  C817  1  0.43424000  0.47460000  0.00000000  1.0 0.1694515386
C  C818  1  0.40346000  0.48384000  0.00000000  1.0 -0.2004697516
C  C819  1  0.56576000  0.52540000  0.00000000  1.0 0.1694515386
C  C820  1  0.59654000  0.51616000  0.00000000  1.0 -0.2004697516
C  C821  1  0.56576000  0.47460000  0.00000000  1.0 0.1694515386
C  C822  1  0.59654000  0.48384000  0.00000000  1.0 -0.2004697516
C  C823  1  0.43424000  0.52540000  0.00000000  1.0 0.1694515386
C  C824  1  0.40346000  0.51616000  0.00000000  1.0 -0.2004697516
C  C825  1  0.00000000  0.43424000  0.47460000  1.0 0.1694515386
C  C826  1  0.00000000  0.40346000  0.48384000  1.0 -0.2004697516
C  C827  1  0.00000000  0.56576000  0.52540000  1.0 0.1694515386
C  C828  1  0.00000000  0.59654000  0.51616000  1.0 -0.2004697516
C  C829  1  0.00000000  0.56576000  0.47460000  1.0 0.1694515386
C  C830  1  0.00000000  0.59654000  0.48384000  1.0 -0.2004697516
C  C831  1  0.00000000  0.43424000  0.52540000  1.0 0.1694515386
C  C832  1  0.00000000  0.40346000  0.51616000  1.0 -0.2004697516
C  C833  1  0.47460000  0.00000000  0.43424000  1.0 0.1694515386
C  C834  1  0.48384000  0.00000000  0.40346000  1.0 -0.2004697516
C  C835  1  0.52540000  0.00000000  0.56576000  1.0 0.1694515386
C  C836  1  0.51616000  0.00000000  0.59654000  1.0 -0.2004697516
C  C837  1  0.47460000  0.00000000  0.56576000  1.0 0.1694515386
C  C838  1  0.48384000  0.00000000  0.59654000  1.0 -0.2004697516
C  C839  1  0.52540000  0.00000000  0.43424000  1.0 0.1694515386
C  C840  1  0.51616000  0.00000000  0.40346000  1.0 -0.2004697516
C  C841  1  0.47460000  0.43424000  0.00000000  1.0 0.1694515386
C  C842  1  0.48384000  0.40346000  0.00000000  1.0 -0.2004697516
C  C843  1  0.52540000  0.56576000  0.00000000  1.0 0.1694515386
C  C844  1  0.51616000  0.59654000  0.00000000  1.0 -0.2004697516
C  C845  1  0.47460000  0.56576000  0.00000000  1.0 0.1694515386
C  C846  1  0.48384000  0.59654000  0.00000000  1.0 -0.2004697516
C  C847  1  0.52540000  0.43424000  0.00000000  1.0 0.1694515386
C  C848  1  0.51616000  0.40346000  0.00000000  1.0 -0.2004697516
C  C849  1  0.43424000  0.00000000  0.52540000  1.0 0.1694515386
C  C850  1  0.40346000  0.00000000  0.51616000  1.0 -0.2004697516
C  C851  1  0.56576000  0.00000000  0.47460000  1.0 0.1694515386
C  C852  1  0.59654000  0.00000000  0.48384000  1.0 -0.2004697516
C  C853  1  0.56576000  0.00000000  0.52540000  1.0 0.1694515386
C  C854  1  0.59654000  0.00000000  0.51616000  1.0 -0.2004697516
C  C855  1  0.43424000  0.00000000  0.47460000  1.0 0.1694515386
C  C856  1  0.40346000  0.00000000  0.48384000  1.0 -0.2004697516
C  C857  1  0.00000000  0.47460000  0.56576000  1.0 0.1694515386
C  C858  1  0.00000000  0.48384000  0.59654000  1.0 -0.2004697516
C  C859  1  0.00000000  0.52540000  0.43424000  1.0 0.1694515386
C  C860  1  0.00000000  0.51616000  0.40346000  1.0 -0.2004697516
C  C861  1  0.00000000  0.47460000  0.43424000  1.0 0.1694515386
C  C862  1  0.00000000  0.48384000  0.40346000  1.0 -0.2004697516
C  C863  1  0.00000000  0.52540000  0.56576000  1.0 0.1694515386
C  C864  1  0.00000000  0.51616000  0.59654000  1.0 -0.2004697516
C  C865  1  0.35060000  0.35060000  0.00000000  1.0 0.5907942466
C  C866  1  0.37370000  0.37370000  0.00000000  1.0 -0.1217408999
C  C867  1  0.44467000  0.44467000  0.00000000  1.0 -0.0786855196
C  C868  1  0.42080000  0.42080000  0.00000000  1.0 0.0971592442
C  C869  1  0.64940000  0.64940000  0.00000000  1.0 0.5907942466
C  C870  1  0.62630000  0.62630000  0.00000000  1.0 -0.1217408999
C  C871  1  0.55533000  0.55533000  0.00000000  1.0 -0.0786855196
C  C872  1  0.57920000  0.57920000  0.00000000  1.0 0.0971592442
C  C873  1  0.64940000  0.35060000  0.00000000  1.0 0.5907942466
C  C874  1  0.62630000  0.37370000  0.00000000  1.0 -0.1217408999
C  C875  1  0.55533000  0.44467000  0.00000000  1.0 -0.0786855196
C  C876  1  0.57920000  0.42080000  0.00000000  1.0 0.0971592442
C  C877  1  0.35060000  0.64940000  0.00000000  1.0 0.5907942466
C  C878  1  0.37370000  0.62630000  0.00000000  1.0 -0.1217408999
C  C879  1  0.44467000  0.55533000  0.00000000  1.0 -0.0786855196
C  C880  1  0.42080000  0.57920000  0.00000000  1.0 0.0971592442
C  C881  1  0.00000000  0.35060000  0.35060000  1.0 0.5907942466
C  C882  1  0.00000000  0.37370000  0.37370000  1.0 -0.1217408999
C  C883  1  0.00000000  0.44467000  0.44467000  1.0 -0.0786855196
C  C884  1  0.00000000  0.42080000  0.42080000  1.0 0.0971592442
C  C885  1  0.00000000  0.64940000  0.64940000  1.0 0.5907942466
C  C886  1  0.00000000  0.62630000  0.62630000  1.0 -0.1217408999
C  C887  1  0.00000000  0.55533000  0.55533000  1.0 -0.0786855196
C  C888  1  0.00000000  0.57920000  0.57920000  1.0 0.0971592442
C  C889  1  0.00000000  0.64940000  0.35060000  1.0 0.5907942466
C  C890  1  0.00000000  0.62630000  0.37370000  1.0 -0.1217408999
C  C891  1  0.00000000  0.55533000  0.44467000  1.0 -0.0786855196
C  C892  1  0.00000000  0.57920000  0.42080000  1.0 0.0971592442
C  C893  1  0.00000000  0.35060000  0.64940000  1.0 0.5907942466
C  C894  1  0.00000000  0.37370000  0.62630000  1.0 -0.1217408999
C  C895  1  0.00000000  0.44467000  0.55533000  1.0 -0.0786855196
C  C896  1  0.00000000  0.42080000  0.57920000  1.0 0.0971592442
C  C897  1  0.35060000  0.00000000  0.35060000  1.0 0.5907942466
C  C898  1  0.37370000  0.00000000  0.37370000  1.0 -0.1217408999
C  C899  1  0.44467000  0.00000000  0.44467000  1.0 -0.0786855196
C  C900  1  0.42080000  0.00000000  0.42080000  1.0 0.0971592442
C  C901  1  0.64940000  0.00000000  0.64940000  1.0 0.5907942466
C  C902  1  0.62630000  0.00000000  0.62630000  1.0 -0.1217408999
C  C903  1  0.55533000  0.00000000  0.55533000  1.0 -0.0786855196
C  C904  1  0.57920000  0.00000000  0.57920000  1.0 0.0971592442
C  C905  1  0.35060000  0.00000000  0.64940000  1.0 0.5907942466
C  C906  1  0.37370000  0.00000000  0.62630000  1.0 -0.1217408999
C  C907  1  0.44467000  0.00000000  0.55533000  1.0 -0.0786855196
C  C908  1  0.42080000  0.00000000  0.57920000  1.0 0.0971592442
C  C909  1  0.64940000  0.00000000  0.35060000  1.0 0.5907942466
C  C910  1  0.62630000  0.00000000  0.37370000  1.0 -0.1217408999
C  C911  1  0.55533000  0.00000000  0.44467000  1.0 -0.0786855196
C  C912  1  0.57920000  0.00000000  0.42080000  1.0 0.0971592442
C  C913  1  0.20154000  0.16314000  0.16314000  1.0 -0.2004697516
C  C914  1  0.79846000  0.83686000  0.16314000  1.0 -0.2004697516
C  C915  1  0.79846000  0.16314000  0.83686000  1.0 -0.2004697516
C  C916  1  0.20154000  0.83686000  0.83686000  1.0 -0.2004697516
C  C917  1  0.16314000  0.20154000  0.16314000  1.0 -0.2004697516
C  C918  1  0.16314000  0.79846000  0.83686000  1.0 -0.2004697516
C  C919  1  0.83686000  0.79846000  0.16314000  1.0 -0.2004697516
C  C920  1  0.83686000  0.20154000  0.83686000  1.0 -0.2004697516
C  C921  1  0.16314000  0.16314000  0.20154000  1.0 -0.2004697516
C  C922  1  0.83686000  0.16314000  0.79846000  1.0 -0.2004697516
C  C923  1  0.16314000  0.83686000  0.79846000  1.0 -0.2004697516
C  C924  1  0.83686000  0.83686000  0.20154000  1.0 -0.2004697516
C  C925  1  0.16314000  0.20154000  0.83686000  1.0 -0.2004697516
C  C926  1  0.83686000  0.79846000  0.83686000  1.0 -0.2004697516
C  C927  1  0.16314000  0.79846000  0.16314000  1.0 -0.2004697516
C  C928  1  0.83686000  0.20154000  0.16314000  1.0 -0.2004697516
C  C929  1  0.20154000  0.16314000  0.83686000  1.0 -0.2004697516
C  C930  1  0.79846000  0.16314000  0.16314000  1.0 -0.2004697516
C  C931  1  0.79846000  0.83686000  0.83686000  1.0 -0.2004697516
C  C932  1  0.20154000  0.83686000  0.16314000  1.0 -0.2004697516
C  C933  1  0.16314000  0.16314000  0.79846000  1.0 -0.2004697516
C  C934  1  0.16314000  0.83686000  0.20154000  1.0 -0.2004697516
C  C935  1  0.83686000  0.16314000  0.20154000  1.0 -0.2004697516
C  C936  1  0.83686000  0.83686000  0.79846000  1.0 -0.2004697516
N  N1  1  0.19654000  0.50000000  0.12960000  1.0 -0.3429422054
N  N2  1  0.80346000  0.50000000  0.12960000  1.0 -0.3429422054
N  N3  1  0.80346000  0.50000000  0.87040000  1.0 -0.3429422054
N  N4  1  0.19654000  0.50000000  0.87040000  1.0 -0.3429422054
N  N5  1  0.12960000  0.19654000  0.50000000  1.0 -0.3429422054
N  N6  1  0.12960000  0.80346000  0.50000000  1.0 -0.3429422054
N  N7  1  0.87040000  0.80346000  0.50000000  1.0 -0.3429422054
N  N8  1  0.87040000  0.19654000  0.50000000  1.0 -0.3429422054
N  N9  1  0.50000000  0.12960000  0.19654000  1.0 -0.3429422054
N  N10  1  0.50000000  0.12960000  0.80346000  1.0 -0.3429422054
N  N11  1  0.50000000  0.87040000  0.80346000  1.0 -0.3429422054
N  N12  1  0.50000000  0.87040000  0.19654000  1.0 -0.3429422054
N  N13  1  0.50000000  0.19654000  0.87040000  1.0 -0.3429422054
N  N14  1  0.50000000  0.80346000  0.87040000  1.0 -0.3429422054
N  N15  1  0.50000000  0.80346000  0.12960000  1.0 -0.3429422054
N  N16  1  0.50000000  0.19654000  0.12960000  1.0 -0.3429422054
N  N17  1  0.19654000  0.12960000  0.50000000  1.0 -0.3429422054
N  N18  1  0.80346000  0.12960000  0.50000000  1.0 -0.3429422054
N  N19  1  0.80346000  0.87040000  0.50000000  1.0 -0.3429422054
N  N20  1  0.19654000  0.87040000  0.50000000  1.0 -0.3429422054
N  N21  1  0.12960000  0.50000000  0.80346000  1.0 -0.3429422054
N  N22  1  0.12960000  0.50000000  0.19654000  1.0 -0.3429422054
N  N23  1  0.87040000  0.50000000  0.19654000  1.0 -0.3429422054
N  N24  1  0.87040000  0.50000000  0.80346000  1.0 -0.3429422054
N  N25  1  0.16283000  0.54616000  0.16283000  1.0 -0.3732274793
N  N26  1  0.83717000  0.45384000  0.16283000  1.0 -0.3732274793
N  N27  1  0.83717000  0.54616000  0.83717000  1.0 -0.3732274793
N  N28  1  0.16283000  0.45384000  0.83717000  1.0 -0.3753527675
N  N29  1  0.16283000  0.16283000  0.54616000  1.0 -0.3753527675
N  N30  1  0.16283000  0.83717000  0.45384000  1.0 -0.3732274793
N  N31  1  0.83717000  0.83717000  0.54616000  1.0 -0.3732274793
N  N32  1  0.83717000  0.16283000  0.45384000  1.0 -0.3753527675
N  N33  1  0.54616000  0.16283000  0.16283000  1.0 -0.3753527675
N  N34  1  0.45384000  0.16283000  0.83717000  1.0 -0.3753527675
N  N35  1  0.54616000  0.83717000  0.83717000  1.0 -0.3732274793
N  N36  1  0.45384000  0.83717000  0.16283000  1.0 -0.3732274793
N  N37  1  0.54616000  0.16283000  0.83717000  1.0 -0.3753527675
N  N38  1  0.45384000  0.83717000  0.83717000  1.0 -0.3732274793
N  N39  1  0.54616000  0.83717000  0.16283000  1.0 -0.3732274793
N  N40  1  0.45384000  0.16283000  0.16283000  1.0 -0.3753527675
N  N41  1  0.16283000  0.16283000  0.45384000  1.0 -0.3753527675
N  N42  1  0.83717000  0.16283000  0.54616000  1.0 -0.3753527675
N  N43  1  0.83717000  0.83717000  0.45384000  1.0 -0.3732274793
N  N44  1  0.16283000  0.83717000  0.54616000  1.0 -0.3732274793
N  N45  1  0.16283000  0.54616000  0.83717000  1.0 -0.3753527675
N  N46  1  0.16283000  0.45384000  0.16283000  1.0 -0.3732274793
N  N47  1  0.83717000  0.54616000  0.16283000  1.0 -0.3732274793
N  N48  1  0.83717000  0.45384000  0.83717000  1.0 -0.3753527675
N  N49  1  0.45410000  0.50000000  0.00000000  1.0 -0.3732274793
N  N50  1  0.54590000  0.50000000  0.00000000  1.0 -0.3732274793
N  N51  1  0.00000000  0.45410000  0.50000000  1.0 -0.3732274793
N  N52  1  0.00000000  0.54590000  0.50000000  1.0 -0.3732274793
N  N53  1  0.50000000  0.00000000  0.45410000  1.0 -0.3732274793
N  N54  1  0.50000000  0.00000000  0.54590000  1.0 -0.3732274793
N  N55  1  0.50000000  0.45410000  0.00000000  1.0 -0.3732274793
N  N56  1  0.50000000  0.54590000  0.00000000  1.0 -0.3732274793
N  N57  1  0.45410000  0.00000000  0.50000000  1.0 -0.3732274793
N  N58  1  0.54590000  0.00000000  0.50000000  1.0 -0.3732274793
N  N59  1  0.00000000  0.50000000  0.54590000  1.0 -0.3732274793
N  N60  1  0.00000000  0.50000000  0.45410000  1.0 -0.3732274793
O  O1  1  0.28401000  0.33499000  0.06257000  1.0 -0.5006697122
O  O2  1  0.33494000  0.24338000  0.03247000  1.0 -0.5006697122
O  O3  1  0.26974000  0.23450000  0.03413000  1.0 -0.4862808522
O  O4  1  0.71599000  0.66501000  0.06257000  1.0 -0.5006697122
O  O5  1  0.66506000  0.75662000  0.03247000  1.0 -0.5006697122
O  O6  1  0.73026000  0.76550000  0.03413000  1.0 -0.4862808522
O  O7  1  0.71599000  0.33499000  0.93743000  1.0 -0.5006697122
O  O8  1  0.66506000  0.24338000  0.96753000  1.0 -0.5006697122
O  O9  1  0.73026000  0.23450000  0.96587000  1.0 -0.4862808522
O  O10  1  0.28401000  0.66501000  0.93743000  1.0 -0.5006697122
O  O11  1  0.33494000  0.75662000  0.96753000  1.0 -0.5006697122
O  O12  1  0.26974000  0.76550000  0.96587000  1.0 -0.4862808522
O  O13  1  0.06257000  0.28401000  0.33499000  1.0 -0.5006697122
O  O14  1  0.03247000  0.33494000  0.24338000  1.0 -0.5006697122
O  O15  1  0.03413000  0.26974000  0.23450000  1.0 -0.4862808522
O  O16  1  0.06257000  0.71599000  0.66501000  1.0 -0.5006697122
O  O17  1  0.03247000  0.66506000  0.75662000  1.0 -0.5006697122
O  O18  1  0.03413000  0.73026000  0.76550000  1.0 -0.4862808522
O  O19  1  0.93743000  0.71599000  0.33499000  1.0 -0.5006697122
O  O20  1  0.96753000  0.66506000  0.24338000  1.0 -0.5006697122
O  O21  1  0.96587000  0.73026000  0.23450000  1.0 -0.4862808522
O  O22  1  0.93743000  0.28401000  0.66501000  1.0 -0.5006697122
O  O23  1  0.96753000  0.33494000  0.75662000  1.0 -0.5006697122
O  O24  1  0.96587000  0.26974000  0.76550000  1.0 -0.4862808522
O  O25  1  0.33499000  0.06257000  0.28401000  1.0 -0.5006697122
O  O26  1  0.24338000  0.03247000  0.33494000  1.0 -0.5006697122
O  O27  1  0.23450000  0.03413000  0.26974000  1.0 -0.4862808522
O  O28  1  0.66501000  0.06257000  0.71599000  1.0 -0.5006697122
O  O29  1  0.75662000  0.03247000  0.66506000  1.0 -0.5006697122
O  O30  1  0.76550000  0.03413000  0.73026000  1.0 -0.4862808522
O  O31  1  0.33499000  0.93743000  0.71599000  1.0 -0.5006697122
O  O32  1  0.24338000  0.96753000  0.66506000  1.0 -0.5006697122
O  O33  1  0.23450000  0.96587000  0.73026000  1.0 -0.4862808522
O  O34  1  0.66501000  0.93743000  0.28401000  1.0 -0.5006697122
O  O35  1  0.75662000  0.96753000  0.33494000  1.0 -0.5006697122
O  O36  1  0.76550000  0.96587000  0.26974000  1.0 -0.4862808522
O  O37  1  0.33499000  0.28401000  0.93743000  1.0 -0.5006697122
O  O38  1  0.24338000  0.33494000  0.96753000  1.0 -0.5006697122
O  O39  1  0.23450000  0.26974000  0.96587000  1.0 -0.4862808522
O  O40  1  0.66501000  0.71599000  0.93743000  1.0 -0.5006697122
O  O41  1  0.75662000  0.66506000  0.96753000  1.0 -0.5006697122
O  O42  1  0.76550000  0.73026000  0.96587000  1.0 -0.4862808522
O  O43  1  0.33499000  0.71599000  0.06257000  1.0 -0.5006697122
O  O44  1  0.24338000  0.66506000  0.03247000  1.0 -0.5006697122
O  O45  1  0.23450000  0.73026000  0.03413000  1.0 -0.4862808522
O  O46  1  0.66501000  0.28401000  0.06257000  1.0 -0.5006697122
O  O47  1  0.75662000  0.33494000  0.03247000  1.0 -0.5006697122
O  O48  1  0.76550000  0.26974000  0.03413000  1.0 -0.4862808522
O  O49  1  0.28401000  0.06257000  0.66501000  1.0 -0.5006697122
O  O50  1  0.33494000  0.03247000  0.75662000  1.0 -0.5006697122
O  O51  1  0.26974000  0.03413000  0.76550000  1.0 -0.4862808522
O  O52  1  0.71599000  0.06257000  0.33499000  1.0 -0.5006697122
O  O53  1  0.66506000  0.03247000  0.24338000  1.0 -0.5006697122
O  O54  1  0.73026000  0.03413000  0.23450000  1.0 -0.4862808522
O  O55  1  0.71599000  0.93743000  0.66501000  1.0 -0.5006697122
O  O56  1  0.66506000  0.96753000  0.75662000  1.0 -0.5006697122
O  O57  1  0.73026000  0.96587000  0.76550000  1.0 -0.4862808522
O  O58  1  0.28401000  0.93743000  0.33499000  1.0 -0.5006697122
O  O59  1  0.33494000  0.96753000  0.24338000  1.0 -0.5006697122
O  O60  1  0.26974000  0.96587000  0.23450000  1.0 -0.4862808522
O  O61  1  0.06257000  0.33499000  0.71599000  1.0 -0.5006697122
O  O62  1  0.03247000  0.24338000  0.66506000  1.0 -0.5006697122
O  O63  1  0.03413000  0.23450000  0.73026000  1.0 -0.4862808522
O  O64  1  0.06257000  0.66501000  0.28401000  1.0 -0.5006697122
O  O65  1  0.03247000  0.75662000  0.33494000  1.0 -0.5006697122
O  O66  1  0.03413000  0.76550000  0.26974000  1.0 -0.4862808522
O  O67  1  0.93743000  0.33499000  0.28401000  1.0 -0.5006697122
O  O68  1  0.96753000  0.24338000  0.33494000  1.0 -0.5006697122
O  O69  1  0.96587000  0.23450000  0.26974000  1.0 -0.4862808522
O  O70  1  0.93743000  0.66501000  0.71599000  1.0 -0.5006697122
O  O71  1  0.96753000  0.75662000  0.66506000  1.0 -0.5006697122
O  O72  1  0.96587000  0.76550000  0.73026000  1.0 -0.4862808522
O  O73  1  0.71599000  0.66501000  0.93743000  1.0 -0.5006697122
O  O74  1  0.66506000  0.75662000  0.96753000  1.0 -0.5006697122
O  O75  1  0.73026000  0.76550000  0.96587000  1.0 -0.4862808522
O  O76  1  0.28401000  0.33499000  0.93743000  1.0 -0.5006697122
O  O77  1  0.33494000  0.24338000  0.96753000  1.0 -0.5006697122
O  O78  1  0.26974000  0.23450000  0.96587000  1.0 -0.4862808522
O  O79  1  0.28401000  0.66501000  0.06257000  1.0 -0.5006697122
O  O80  1  0.33494000  0.75662000  0.03247000  1.0 -0.5006697122
O  O81  1  0.26974000  0.76550000  0.03413000  1.0 -0.4862808522
O  O82  1  0.71599000  0.33499000  0.06257000  1.0 -0.5006697122
O  O83  1  0.66506000  0.24338000  0.03247000  1.0 -0.5006697122
O  O84  1  0.73026000  0.23450000  0.03413000  1.0 -0.4862808522
O  O85  1  0.93743000  0.71599000  0.66501000  1.0 -0.5006697122
O  O86  1  0.96753000  0.66506000  0.75662000  1.0 -0.5006697122
O  O87  1  0.96587000  0.73026000  0.76550000  1.0 -0.4862808522
O  O88  1  0.93743000  0.28401000  0.33499000  1.0 -0.5006697122
O  O89  1  0.96753000  0.33494000  0.24338000  1.0 -0.5006697122
O  O90  1  0.96587000  0.26974000  0.23450000  1.0 -0.4862808522
O  O91  1  0.06257000  0.28401000  0.66501000  1.0 -0.5006697122
O  O92  1  0.03247000  0.33494000  0.75662000  1.0 -0.5006697122
O  O93  1  0.03413000  0.26974000  0.76550000  1.0 -0.4862808522
O  O94  1  0.06257000  0.71599000  0.33499000  1.0 -0.5006697122
O  O95  1  0.03247000  0.66506000  0.24338000  1.0 -0.5006697122
O  O96  1  0.03413000  0.73026000  0.23450000  1.0 -0.4862808522
O  O97  1  0.66501000  0.93743000  0.71599000  1.0 -0.5006697122
O  O98  1  0.75662000  0.96753000  0.66506000  1.0 -0.5006697122
O  O99  1  0.76550000  0.96587000  0.73026000  1.0 -0.4862808522
O  O100  1  0.33499000  0.93743000  0.28401000  1.0 -0.5006697122
O  O101  1  0.24338000  0.96753000  0.33494000  1.0 -0.5006697122
O  O102  1  0.23450000  0.96587000  0.26974000  1.0 -0.4862808522
O  O103  1  0.66501000  0.06257000  0.28401000  1.0 -0.5006697122
O  O104  1  0.75662000  0.03247000  0.33494000  1.0 -0.5006697122
O  O105  1  0.76550000  0.03413000  0.26974000  1.0 -0.4862808522
O  O106  1  0.33499000  0.06257000  0.71599000  1.0 -0.5006697122
O  O107  1  0.24338000  0.03247000  0.66506000  1.0 -0.5006697122
O  O108  1  0.23450000  0.03413000  0.73026000  1.0 -0.4862808522
O  O109  1  0.66501000  0.71599000  0.06257000  1.0 -0.5006697122
O  O110  1  0.75662000  0.66506000  0.03247000  1.0 -0.5006697122
O  O111  1  0.76550000  0.73026000  0.03413000  1.0 -0.4862808522
O  O112  1  0.33499000  0.28401000  0.06257000  1.0 -0.5006697122
O  O113  1  0.24338000  0.33494000  0.03247000  1.0 -0.5006697122
O  O114  1  0.23450000  0.26974000  0.03413000  1.0 -0.4862808522
O  O115  1  0.66501000  0.28401000  0.93743000  1.0 -0.5006697122
O  O116  1  0.75662000  0.33494000  0.96753000  1.0 -0.5006697122
O  O117  1  0.76550000  0.26974000  0.96587000  1.0 -0.4862808522
O  O118  1  0.33499000  0.71599000  0.93743000  1.0 -0.5006697122
O  O119  1  0.24338000  0.66506000  0.96753000  1.0 -0.5006697122
O  O120  1  0.23450000  0.73026000  0.96587000  1.0 -0.4862808522
O  O121  1  0.71599000  0.93743000  0.33499000  1.0 -0.5006697122
O  O122  1  0.66506000  0.96753000  0.24338000  1.0 -0.5006697122
O  O123  1  0.73026000  0.96587000  0.23450000  1.0 -0.4862808522
O  O124  1  0.28401000  0.93743000  0.66501000  1.0 -0.5006697122
O  O125  1  0.33494000  0.96753000  0.75662000  1.0 -0.5006697122
O  O126  1  0.26974000  0.96587000  0.76550000  1.0 -0.4862808522
O  O127  1  0.28401000  0.06257000  0.33499000  1.0 -0.5006697122
O  O128  1  0.33494000  0.03247000  0.24338000  1.0 -0.5006697122
O  O129  1  0.26974000  0.03413000  0.23450000  1.0 -0.4862808522
O  O130  1  0.71599000  0.06257000  0.66501000  1.0 -0.5006697122
O  O131  1  0.66506000  0.03247000  0.75662000  1.0 -0.5006697122
O  O132  1  0.73026000  0.03413000  0.76550000  1.0 -0.4862808522
O  O133  1  0.93743000  0.66501000  0.28401000  1.0 -0.5006697122
O  O134  1  0.96753000  0.75662000  0.33494000  1.0 -0.5006697122
O  O135  1  0.96587000  0.76550000  0.26974000  1.0 -0.4862808522
O  O136  1  0.93743000  0.33499000  0.71599000  1.0 -0.5006697122
O  O137  1  0.96753000  0.24338000  0.66506000  1.0 -0.5006697122
O  O138  1  0.96587000  0.23450000  0.73026000  1.0 -0.4862808522
O  O139  1  0.06257000  0.66501000  0.71599000  1.0 -0.5006697122
O  O140  1  0.03247000  0.75662000  0.66506000  1.0 -0.5006697122
O  O141  1  0.03413000  0.76550000  0.73026000  1.0 -0.4862808522
O  O142  1  0.06257000  0.33499000  0.28401000  1.0 -0.5006697122
O  O143  1  0.03247000  0.24338000  0.33494000  1.0 -0.5006697122
O  O144  1  0.03413000  0.23450000  0.26974000  1.0 -0.4862808522
O  O145  1  0.34116000  0.34116000  0.02528000  1.0 -0.5006697122
O  O146  1  0.65884000  0.65884000  0.02528000  1.0 -0.5006697122
O  O147  1  0.65884000  0.34116000  0.97472000  1.0 -0.5006697122
O  O148  1  0.34116000  0.65884000  0.97472000  1.0 -0.5006697122
O  O149  1  0.02528000  0.34116000  0.34116000  1.0 -0.5006697122
O  O150  1  0.02528000  0.65884000  0.65884000  1.0 -0.5006697122
O  O151  1  0.97472000  0.65884000  0.34116000  1.0 -0.5006697122
O  O152  1  0.97472000  0.34116000  0.65884000  1.0 -0.5006697122
O  O153  1  0.34116000  0.02528000  0.34116000  1.0 -0.5006697122
O  O154  1  0.65884000  0.02528000  0.65884000  1.0 -0.5006697122
O  O155  1  0.34116000  0.97472000  0.65884000  1.0 -0.5006697122
O  O156  1  0.65884000  0.97472000  0.34116000  1.0 -0.5006697122
O  O157  1  0.34116000  0.34116000  0.97472000  1.0 -0.5006697122
O  O158  1  0.65884000  0.65884000  0.97472000  1.0 -0.5006697122
O  O159  1  0.34116000  0.65884000  0.02528000  1.0 -0.5006697122
O  O160  1  0.65884000  0.34116000  0.02528000  1.0 -0.5006697122
O  O161  1  0.34116000  0.02528000  0.65884000  1.0 -0.5006697122
O  O162  1  0.65884000  0.02528000  0.34116000  1.0 -0.5006697122
O  O163  1  0.65884000  0.97472000  0.65884000  1.0 -0.5006697122
O  O164  1  0.34116000  0.97472000  0.34116000  1.0 -0.5006697122
O  O165  1  0.02528000  0.34116000  0.65884000  1.0 -0.5006697122
O  O166  1  0.02528000  0.65884000  0.34116000  1.0 -0.5006697122
O  O167  1  0.97472000  0.34116000  0.34116000  1.0 -0.5006697122
O  O168  1  0.97472000  0.65884000  0.65884000  1.0 -0.5006697122
O  O169  1  0.29348000  0.29348000  0.00000000  1.0 -1.0173006627
O  O170  1  0.70652000  0.70652000  0.00000000  1.0 -1.0173006627
O  O171  1  0.70652000  0.29348000  0.00000000  1.0 -1.0173006627
O  O172  1  0.29348000  0.70652000  0.00000000  1.0 -1.0173006627
O  O173  1  0.00000000  0.29348000  0.29348000  1.0 -1.0173006627
O  O174  1  0.00000000  0.70652000  0.70652000  1.0 -1.0173006627
O  O175  1  0.00000000  0.70652000  0.29348000  1.0 -1.0173006627
O  O176  1  0.00000000  0.29348000  0.70652000  1.0 -1.0173006627
O  O177  1  0.29348000  0.00000000  0.29348000  1.0 -1.0173006627
O  O178  1  0.70652000  0.00000000  0.70652000  1.0 -1.0173006627
O  O179  1  0.29348000  0.00000000  0.70652000  1.0 -1.0173006627
O  O180  1  0.70652000  0.00000000  0.29348000  1.0 -1.0173006627
