# DDEC6 charges by PACMAN v1.1 (https://github.com/mtap-research/PACMAN-charge/)
data_oc7b00169_si_003_9_ASR_pacman
_symmetry_space_group_name_H-M   'P 1'
_cell_length_a   18.85700000
_cell_length_b   18.85700000
_cell_length_c   36.30200000
_cell_angle_alpha   90.00000000
_cell_angle_beta   90.00000000
_cell_angle_gamma   90.00000000
_symmetry_Int_Tables_number   1
_chemical_formula_structural   Al2H21(C17O5)2
_chemical_formula_sum   'Al16 H168 C272 O80'
_cell_volume   12908.49927160
_cell_formula_units_Z   8
loop_
 _symmetry_equiv_pos_site_id
 _symmetry_equiv_pos_as_xyz
  1  'x, y, z'
loop_
 _atom_site_type_symbol
 _atom_site_label
 _atom_site_symmetry_multiplicity
 _atom_site_fract_x
 _atom_site_fract_y
 _atom_site_fract_z
 _atom_site_occupancy
 _atom_site_charge
Al  Al1  1  0.66468000  0.33532000  0.50000000  1.0 1.6412648082
Al  Al2  1  0.16468000  0.16468000  0.00000000  1.0 1.6412648082
Al  Al3  1  0.33532000  0.66468000  0.50000000  1.0 1.6412648082
Al  Al4  1  0.83532000  0.83532000  0.00000000  1.0 1.6412648082
Al  Al5  1  0.61863000  0.38590000  0.41704000  1.0 1.6341613651
Al  Al6  1  0.11410000  0.11863000  0.91704000  1.0 1.6412648082
Al  Al7  1  0.38137000  0.61410000  0.41704000  1.0 1.6341613651
Al  Al8  1  0.88590000  0.88137000  0.91704000  1.0 1.6341613651
Al  Al9  1  0.11863000  0.11410000  0.08296000  1.0 1.6341613651
Al  Al10  1  0.88137000  0.88590000  0.08296000  1.0 1.6341613651
Al  Al11  1  0.38590000  0.61863000  0.58296000  1.0 1.6341613651
Al  Al12  1  0.61410000  0.38137000  0.58296000  1.0 1.6341613651
Al  Al13  1  0.50000000  0.50000000  0.38599000  1.0 1.6412648082
Al  Al14  1  0.00000000  0.00000000  0.88599000  1.0 1.6459145666
Al  Al15  1  0.00000000  0.00000000  0.11401000  1.0 1.6412648082
Al  Al16  1  0.50000000  0.50000000  0.61401000  1.0 1.6412648082
H  H1  1  0.58460000  0.50450000  0.43620000  1.0 0.4298634202
H  H2  1  0.99550000  0.08460000  0.93620000  1.0 0.4298634202
H  H3  1  0.41540000  0.49550000  0.43620000  1.0 0.4298634202
H  H4  1  0.00450000  0.91540000  0.93620000  1.0 0.4298634202
H  H5  1  0.08460000  0.99550000  0.06380000  1.0 0.4298634202
H  H6  1  0.91540000  0.00450000  0.06380000  1.0 0.4298634202
H  H7  1  0.50450000  0.58460000  0.56380000  1.0 0.4298634202
H  H8  1  0.49550000  0.41540000  0.56380000  1.0 0.4298634202
H  H9  1  0.55020000  0.36890000  0.47340000  1.0 0.4298634202
H  H10  1  0.13110000  0.05020000  0.97340000  1.0 0.4298634202
H  H11  1  0.44980000  0.63110000  0.47340000  1.0 0.4298634202
H  H12  1  0.86890000  0.94980000  0.97340000  1.0 0.4298634202
H  H13  1  0.05020000  0.13110000  0.02660000  1.0 0.4298634202
H  H14  1  0.94980000  0.86890000  0.02660000  1.0 0.4298634202
H  H15  1  0.36890000  0.55020000  0.52660000  1.0 0.4298634202
H  H16  1  0.63110000  0.44980000  0.52660000  1.0 0.4298634202
H  H17  1  0.77170000  0.62610000  0.16420000  1.0 0.1222861632
H  H18  1  0.87390000  0.27170000  0.66420000  1.0 0.1222861632
H  H19  1  0.22830000  0.37390000  0.16420000  1.0 0.1222861632
H  H20  1  0.12610000  0.72830000  0.66420000  1.0 0.1222861632
H  H21  1  0.27170000  0.87390000  0.33580000  1.0 0.1222861632
H  H22  1  0.72830000  0.12610000  0.33580000  1.0 0.1222861632
H  H23  1  0.62610000  0.77170000  0.83580000  1.0 0.1222861632
H  H24  1  0.37390000  0.22830000  0.83580000  1.0 0.1222861632
H  H25  1  0.77450000  0.63750000  0.03770000  1.0 0.1474319462
H  H26  1  0.86250000  0.27450000  0.53770000  1.0 0.1474319462
H  H27  1  0.22550000  0.36250000  0.03770000  1.0 0.1474319462
H  H28  1  0.13750000  0.72550000  0.53770000  1.0 0.1474319462
H  H29  1  0.27450000  0.86250000  0.46230000  1.0 0.1474319462
H  H30  1  0.72550000  0.13750000  0.46230000  1.0 0.1474319462
H  H31  1  0.63750000  0.77450000  0.96230000  1.0 0.1474319462
H  H32  1  0.36250000  0.22550000  0.96230000  1.0 0.1474319462
H  H33  1  0.76430000  0.73430000  0.13560000  1.0 0.137708092
H  H34  1  0.76570000  0.26430000  0.63560000  1.0 0.137708092
H  H35  1  0.23570000  0.26570000  0.13560000  1.0 0.137708092
H  H36  1  0.23430000  0.73570000  0.63560000  1.0 0.137708092
H  H37  1  0.26430000  0.76570000  0.36440000  1.0 0.137708092
H  H38  1  0.73570000  0.23430000  0.36440000  1.0 0.137708092
H  H39  1  0.73430000  0.76430000  0.86440000  1.0 0.137708092
H  H40  1  0.26570000  0.23570000  0.86440000  1.0 0.137708092
H  H41  1  0.74110000  0.52190000  0.07040000  1.0 0.1222861632
H  H42  1  0.97810000  0.24110000  0.57040000  1.0 0.1222861632
H  H43  1  0.25890000  0.47810000  0.07040000  1.0 0.1222861632
H  H44  1  0.02190000  0.75890000  0.57040000  1.0 0.1222861632
H  H45  1  0.24110000  0.97810000  0.42960000  1.0 0.1222861632
H  H46  1  0.75890000  0.02190000  0.42960000  1.0 0.1222861632
H  H47  1  0.52190000  0.74110000  0.92960000  1.0 0.1222861632
H  H48  1  0.47810000  0.25890000  0.92960000  1.0 0.1222861632
H  H49  1  0.56680000  0.50560000  0.28250000  1.0 0.1222861632
H  H50  1  0.99440000  0.06680000  0.78250000  1.0 0.1222861632
H  H51  1  0.43320000  0.49440000  0.28250000  1.0 0.1222861632
H  H52  1  0.00560000  0.93320000  0.78250000  1.0 0.1222861632
H  H53  1  0.06680000  0.99440000  0.21750000  1.0 0.1222861632
H  H54  1  0.93320000  0.00560000  0.21750000  1.0 0.1222861632
H  H55  1  0.50560000  0.56680000  0.71750000  1.0 0.1222861632
H  H56  1  0.49440000  0.43320000  0.71750000  1.0 0.1222861632
H  H57  1  0.85490000  0.15840000  0.14460000  1.0 0.1474319462
H  H58  1  0.34160000  0.35490000  0.64460000  1.0 0.1474319462
H  H59  1  0.14510000  0.84160000  0.14460000  1.0 0.1474319462
H  H60  1  0.65840000  0.64510000  0.64460000  1.0 0.1474319462
H  H61  1  0.35490000  0.34160000  0.35540000  1.0 0.1474319462
H  H62  1  0.64510000  0.65840000  0.35540000  1.0 0.1474319462
H  H63  1  0.15840000  0.85490000  0.85540000  1.0 0.1474319462
H  H64  1  0.84160000  0.14510000  0.85540000  1.0 0.1474319462
H  H65  1  0.99060000  0.29380000  0.09590000  1.0 0.130983313
H  H66  1  0.20620000  0.49060000  0.59590000  1.0 0.130983313
H  H67  1  0.00940000  0.70620000  0.09590000  1.0 0.130983313
H  H68  1  0.79380000  0.50940000  0.59590000  1.0 0.130983313
H  H69  1  0.49060000  0.20620000  0.40410000  1.0 0.130983313
H  H70  1  0.50940000  0.79380000  0.40410000  1.0 0.130983313
H  H71  1  0.29380000  0.99060000  0.90410000  1.0 0.130983313
H  H72  1  0.70620000  0.00940000  0.90410000  1.0 0.130983313
H  H73  1  0.71180000  0.35790000  0.31050000  1.0 0.130983313
H  H74  1  0.14210000  0.21180000  0.81050000  1.0 0.130983313
H  H75  1  0.28820000  0.64210000  0.31050000  1.0 0.130983313
H  H76  1  0.85790000  0.78820000  0.81050000  1.0 0.130983313
H  H77  1  0.21180000  0.14210000  0.18950000  1.0 0.130983313
H  H78  1  0.78820000  0.85790000  0.18950000  1.0 0.130983313
H  H79  1  0.35790000  0.71180000  0.68950000  1.0 0.130983313
H  H80  1  0.64210000  0.28820000  0.68950000  1.0 0.130983313
H  H81  1  0.75420000  0.36010000  0.25450000  1.0 0.130983313
H  H82  1  0.13990000  0.25420000  0.75450000  1.0 0.130983313
H  H83  1  0.24580000  0.63990000  0.25450000  1.0 0.130983313
H  H84  1  0.86010000  0.74580000  0.75450000  1.0 0.130983313
H  H85  1  0.25420000  0.13990000  0.24550000  1.0 0.130983313
H  H86  1  0.74580000  0.86010000  0.24550000  1.0 0.130983313
H  H87  1  0.36010000  0.75420000  0.74550000  1.0 0.130983313
H  H88  1  0.63990000  0.24580000  0.74550000  1.0 0.130983313
H  H89  1  0.61140000  0.49270000  0.22160000  1.0 0.1222861632
H  H90  1  0.00730000  0.11140000  0.72160000  1.0 0.1222861632
H  H91  1  0.38860000  0.50730000  0.22160000  1.0 0.1222861632
H  H92  1  0.99270000  0.88860000  0.72160000  1.0 0.1222861632
H  H93  1  0.11140000  0.00730000  0.27840000  1.0 0.1222861632
H  H94  1  0.88860000  0.99270000  0.27840000  1.0 0.1222861632
H  H95  1  0.49270000  0.61140000  0.77840000  1.0 0.1222861632
H  H96  1  0.50730000  0.38860000  0.77840000  1.0 0.1222861632
H  H97  1  0.69020000  0.53330000  0.18210000  1.0 0.1222861632
H  H98  1  0.96670000  0.19020000  0.68210000  1.0 0.1222861632
H  H99  1  0.30980000  0.46670000  0.18210000  1.0 0.1222861632
H  H100  1  0.03330000  0.80980000  0.68210000  1.0 0.1222861632
H  H101  1  0.19020000  0.96670000  0.31790000  1.0 0.130983313
H  H102  1  0.80980000  0.03330000  0.31790000  1.0 0.1222861632
H  H103  1  0.53330000  0.69020000  0.81790000  1.0 0.130983313
H  H104  1  0.46670000  0.30980000  0.81790000  1.0 0.130983313
H  H105  1  0.91380000  0.38190000  0.11430000  1.0 0.1222861632
H  H106  1  0.11810000  0.41380000  0.61430000  1.0 0.1222861632
H  H107  1  0.08620000  0.61810000  0.11430000  1.0 0.1222861632
H  H108  1  0.88190000  0.58620000  0.61430000  1.0 0.1222861632
H  H109  1  0.41380000  0.11810000  0.38570000  1.0 0.1222861632
H  H110  1  0.58620000  0.88190000  0.38570000  1.0 0.1222861632
H  H111  1  0.38190000  0.91380000  0.88570000  1.0 0.1222861632
H  H112  1  0.61810000  0.08620000  0.88570000  1.0 0.1222861632
H  H113  1  0.78560000  0.23560000  0.15740000  1.0 0.130983313
H  H114  1  0.26440000  0.28560000  0.65740000  1.0 0.130983313
H  H115  1  0.21440000  0.76440000  0.15740000  1.0 0.130983313
H  H116  1  0.73560000  0.71440000  0.65740000  1.0 0.130983313
H  H117  1  0.28560000  0.26440000  0.34260000  1.0 0.130983313
H  H118  1  0.71440000  0.73560000  0.34260000  1.0 0.130983313
H  H119  1  0.23560000  0.78560000  0.84260000  1.0 0.130983313
H  H120  1  0.76440000  0.21440000  0.84260000  1.0 0.130983313
H  H121  1  0.80070000  0.44330000  0.10560000  1.0 0.1118998722
H  H122  1  0.05670000  0.30070000  0.60560000  1.0 0.1118998722
H  H123  1  0.19930000  0.55670000  0.10560000  1.0 0.1118998722
H  H124  1  0.94330000  0.69930000  0.60560000  1.0 0.1118998722
H  H125  1  0.30070000  0.05670000  0.39440000  1.0 0.1118998722
H  H126  1  0.69930000  0.94330000  0.39440000  1.0 0.1118998722
H  H127  1  0.44330000  0.80070000  0.89440000  1.0 0.1118998722
H  H128  1  0.55670000  0.19930000  0.89440000  1.0 0.1118998722
H  H129  1  0.76320000  0.33500000  0.19600000  1.0 0.1118998722
H  H130  1  0.16500000  0.26320000  0.69600000  1.0 0.1118998722
H  H131  1  0.23680000  0.66500000  0.19600000  1.0 0.1118998722
H  H132  1  0.83500000  0.73680000  0.69600000  1.0 0.1118998722
H  H133  1  0.26320000  0.16500000  0.30400000  1.0 0.1118998722
H  H134  1  0.73680000  0.83500000  0.30400000  1.0 0.1118998722
H  H135  1  0.33500000  0.76320000  0.80400000  1.0 0.1118998722
H  H136  1  0.66500000  0.23680000  0.80400000  1.0 0.1118998722
H  H137  1  0.82260000  0.47830000  0.39760000  1.0 0.137708092
H  H138  1  0.02170000  0.32260000  0.89760000  1.0 0.137708092
H  H139  1  0.17740000  0.52170000  0.39760000  1.0 0.137708092
H  H140  1  0.97830000  0.67740000  0.89760000  1.0 0.137708092
H  H141  1  0.32260000  0.02170000  0.10240000  1.0 0.137708092
H  H142  1  0.67740000  0.97830000  0.10240000  1.0 0.137708092
H  H143  1  0.47830000  0.82260000  0.60240000  1.0 0.137708092
H  H144  1  0.52170000  0.17740000  0.60240000  1.0 0.137708092
H  H145  1  0.93890000  0.50160000  0.39230000  1.0 0.1222861632
H  H146  1  0.99840000  0.43890000  0.89230000  1.0 0.1222861632
H  H147  1  0.06110000  0.49840000  0.39230000  1.0 0.1222861632
H  H148  1  0.00160000  0.56110000  0.89230000  1.0 0.1222861632
H  H149  1  0.43890000  0.99840000  0.10770000  1.0 0.1222861632
H  H150  1  0.56110000  0.00160000  0.10770000  1.0 0.1222861632
H  H151  1  0.50160000  0.93890000  0.60770000  1.0 0.1222861632
H  H152  1  0.49840000  0.06110000  0.60770000  1.0 0.1222861632
H  H153  1  0.84150000  0.40510000  0.49650000  1.0 0.130983313
H  H154  1  0.09490000  0.34150000  0.99650000  1.0 0.130983313
H  H155  1  0.15850000  0.59490000  0.49650000  1.0 0.130983313
H  H156  1  0.90510000  0.65850000  0.99650000  1.0 0.130983313
H  H157  1  0.34150000  0.09490000  0.00350000  1.0 0.130983313
H  H158  1  0.65850000  0.90510000  0.00350000  1.0 0.130983313
H  H159  1  0.40510000  0.84150000  0.50350000  1.0 0.130983313
H  H160  1  0.59490000  0.15850000  0.50350000  1.0 0.130983313
H  H161  1  0.96890000  0.44290000  0.49480000  1.0 0.1118998722
H  H162  1  0.05710000  0.46890000  0.99480000  1.0 0.1118998722
H  H163  1  0.03110000  0.55710000  0.49480000  1.0 0.1118998722
H  H164  1  0.94290000  0.53110000  0.99480000  1.0 0.1118998722
H  H165  1  0.46890000  0.05710000  0.00520000  1.0 0.1118998722
H  H166  1  0.53110000  0.94290000  0.00520000  1.0 0.1118998722
H  H167  1  0.44290000  0.96890000  0.50520000  1.0 0.1118998722
H  H168  1  0.55710000  0.03110000  0.50520000  1.0 0.1118998722
C  C1  1  0.61120000  0.42720000  0.33940000  1.0 0.5673710824
C  C2  1  0.07280000  0.11120000  0.83940000  1.0 0.5673710824
C  C3  1  0.38880000  0.57280000  0.33940000  1.0 0.5673710824
C  C4  1  0.92720000  0.88880000  0.83940000  1.0 0.5673710824
C  C5  1  0.11120000  0.07280000  0.16060000  1.0 0.5673710824
C  C6  1  0.88880000  0.92720000  0.16060000  1.0 0.5673710824
C  C7  1  0.42720000  0.61120000  0.66060000  1.0 0.5673710824
C  C8  1  0.57280000  0.38880000  0.66060000  1.0 0.5673710824
C  C9  1  0.76540000  0.62810000  0.13880000  1.0 -0.146852598
C  C10  1  0.87190000  0.26540000  0.63880000  1.0 -0.146852598
C  C11  1  0.23460000  0.37190000  0.13880000  1.0 -0.146852598
C  C12  1  0.12810000  0.73460000  0.63880000  1.0 -0.146852598
C  C13  1  0.26540000  0.87190000  0.36120000  1.0 -0.146852598
C  C14  1  0.73460000  0.12810000  0.36120000  1.0 -0.146852598
C  C15  1  0.62810000  0.76540000  0.86120000  1.0 -0.146852598
C  C16  1  0.37190000  0.23460000  0.86120000  1.0 -0.146852598
C  C17  1  0.77030000  0.63500000  0.06320000  1.0 -0.0924885628
C  C18  1  0.86500000  0.27030000  0.56320000  1.0 -0.0924885628
C  C19  1  0.22970000  0.36500000  0.06320000  1.0 -0.0924885628
C  C20  1  0.13500000  0.72970000  0.56320000  1.0 -0.0924885628
C  C21  1  0.27030000  0.86500000  0.43680000  1.0 -0.0924885628
C  C22  1  0.72970000  0.13500000  0.43680000  1.0 -0.0924885628
C  C23  1  0.63500000  0.77030000  0.93680000  1.0 -0.0924885628
C  C24  1  0.36500000  0.22970000  0.93680000  1.0 -0.0924885628
C  C25  1  0.97130000  0.15060000  0.10830000  1.0 0.5773964942
C  C26  1  0.34940000  0.47130000  0.60830000  1.0 0.5773964942
C  C27  1  0.02870000  0.84940000  0.10830000  1.0 0.5773964942
C  C28  1  0.65060000  0.52870000  0.60830000  1.0 0.5773964942
C  C29  1  0.47130000  0.34940000  0.39170000  1.0 0.5773964942
C  C30  1  0.52870000  0.65060000  0.39170000  1.0 0.5773964942
C  C31  1  0.15060000  0.97130000  0.89170000  1.0 0.5773964942
C  C32  1  0.84940000  0.02870000  0.89170000  1.0 0.5773964942
C  C33  1  0.76870000  0.69220000  0.12240000  1.0 -0.1006603652
C  C34  1  0.80780000  0.26870000  0.62240000  1.0 -0.1006603652
C  C35  1  0.23130000  0.30780000  0.12240000  1.0 -0.1006603652
C  C36  1  0.19220000  0.73130000  0.62240000  1.0 -0.1006603652
C  C37  1  0.26870000  0.80780000  0.37760000  1.0 -0.1006603652
C  C38  1  0.73130000  0.19220000  0.37760000  1.0 -0.1006603652
C  C39  1  0.69220000  0.76870000  0.87760000  1.0 -0.1006603652
C  C40  1  0.30780000  0.23130000  0.87760000  1.0 -0.1006603652
C  C41  1  0.75200000  0.56270000  0.08360000  1.0 -0.1328327983
C  C42  1  0.93730000  0.25200000  0.58360000  1.0 -0.1328327983
C  C43  1  0.24800000  0.43730000  0.08360000  1.0 -0.1328327983
C  C44  1  0.06270000  0.74800000  0.58360000  1.0 -0.1328327983
C  C45  1  0.25200000  0.93730000  0.41640000  1.0 -0.1328327983
C  C46  1  0.74800000  0.06270000  0.41640000  1.0 -0.1328327983
C  C47  1  0.56270000  0.75200000  0.91640000  1.0 -0.1328327983
C  C48  1  0.43730000  0.24800000  0.91640000  1.0 -0.1328327983
C  C49  1  0.77940000  0.69110000  0.08430000  1.0 -0.0146851888
C  C50  1  0.80890000  0.27940000  0.58430000  1.0 -0.0146851888
C  C51  1  0.22060000  0.30890000  0.08430000  1.0 -0.0146851888
C  C52  1  0.19110000  0.72060000  0.58430000  1.0 -0.0146851888
C  C53  1  0.27940000  0.80890000  0.41570000  1.0 -0.0146851888
C  C54  1  0.72060000  0.19110000  0.41570000  1.0 -0.0146851888
C  C55  1  0.69110000  0.77940000  0.91570000  1.0 -0.0146851888
C  C56  1  0.30890000  0.22060000  0.91570000  1.0 -0.0146851888
C  C57  1  0.80560000  0.76470000  0.07020000  1.0 0.6102098794
C  C58  1  0.73530000  0.30560000  0.57020000  1.0 0.6102098794
C  C59  1  0.19440000  0.23530000  0.07020000  1.0 0.6102098794
C  C60  1  0.26470000  0.69440000  0.57020000  1.0 0.6102098794
C  C61  1  0.30560000  0.73530000  0.42980000  1.0 0.6102098794
C  C62  1  0.69440000  0.26470000  0.42980000  1.0 0.6102098794
C  C63  1  0.76470000  0.80560000  0.92980000  1.0 0.6102098794
C  C64  1  0.23530000  0.19440000  0.92980000  1.0 0.6102098794
C  C65  1  0.92860000  0.20660000  0.11840000  1.0 -0.1167738184
C  C66  1  0.29340000  0.42860000  0.61840000  1.0 -0.1167738184
C  C67  1  0.07140000  0.79340000  0.11840000  1.0 -0.1167738184
C  C68  1  0.70660000  0.57140000  0.61840000  1.0 -0.1167738184
C  C69  1  0.42860000  0.29340000  0.38160000  1.0 -0.1167738184
C  C70  1  0.57140000  0.70660000  0.38160000  1.0 -0.1167738184
C  C71  1  0.20660000  0.92860000  0.88160000  1.0 -0.1167738184
C  C72  1  0.79340000  0.07140000  0.88160000  1.0 -0.1167738184
C  C73  1  0.60360000  0.47480000  0.27670000  1.0 -0.0537839732
C  C74  1  0.02520000  0.10360000  0.77670000  1.0 -0.0537839732
C  C75  1  0.39640000  0.52520000  0.27670000  1.0 -0.0537839732
C  C76  1  0.97480000  0.89640000  0.77670000  1.0 -0.0537839732
C  C77  1  0.10360000  0.02520000  0.22330000  1.0 -0.055593866
C  C78  1  0.89640000  0.97480000  0.22330000  1.0 -0.0537839732
C  C79  1  0.47480000  0.60360000  0.72330000  1.0 -0.0537839732
C  C80  1  0.52520000  0.39640000  0.72330000  1.0 -0.0537839732
C  C81  1  0.75260000  0.56260000  0.11950000  1.0 0.0761155333
C  C82  1  0.93740000  0.25260000  0.61950000  1.0 0.0761155333
C  C83  1  0.24740000  0.43740000  0.11950000  1.0 0.0761155333
C  C84  1  0.06260000  0.74740000  0.61950000  1.0 0.0761155333
C  C85  1  0.25260000  0.93740000  0.38050000  1.0 0.0761155333
C  C86  1  0.74740000  0.06260000  0.38050000  1.0 0.0761155333
C  C87  1  0.56260000  0.75260000  0.88050000  1.0 0.0761155333
C  C88  1  0.43740000  0.24740000  0.88050000  1.0 0.0761155333
C  C89  1  0.69180000  0.42730000  0.23510000  1.0 0.0610367584
C  C90  1  0.07270000  0.19180000  0.73510000  1.0 0.0610367584
C  C91  1  0.30820000  0.57270000  0.23510000  1.0 0.0610367584
C  C92  1  0.92730000  0.80820000  0.73510000  1.0 0.0610367584
C  C93  1  0.19180000  0.07270000  0.26490000  1.0 0.0610367584
C  C94  1  0.80820000  0.92730000  0.26490000  1.0 0.0610367584
C  C95  1  0.42730000  0.69180000  0.76490000  1.0 0.0610367584
C  C96  1  0.57270000  0.30820000  0.76490000  1.0 0.0610367584
C  C97  1  0.86740000  0.20340000  0.13640000  1.0 -0.0766456347
C  C98  1  0.29660000  0.36740000  0.63640000  1.0 -0.0766456347
C  C99  1  0.13260000  0.79660000  0.13640000  1.0 -0.0766456347
C  C100  1  0.70340000  0.63260000  0.63640000  1.0 -0.0766456347
C  C101  1  0.36740000  0.29660000  0.36360000  1.0 -0.0766456347
C  C102  1  0.63260000  0.70340000  0.36360000  1.0 -0.0766456347
C  C103  1  0.20340000  0.86740000  0.86360000  1.0 -0.0766456347
C  C104  1  0.79660000  0.13260000  0.86360000  1.0 -0.0766456347
C  C105  1  0.72110000  0.43490000  0.19320000  1.0 0.0723105565
C  C106  1  0.06510000  0.22110000  0.69320000  1.0 0.0723105565
C  C107  1  0.27890000  0.56510000  0.19320000  1.0 0.0723105565
C  C108  1  0.93490000  0.77890000  0.69320000  1.0 0.0723105565
C  C109  1  0.22110000  0.06510000  0.30680000  1.0 0.0723105565
C  C110  1  0.77890000  0.93490000  0.30680000  1.0 0.0723105565
C  C111  1  0.43490000  0.72110000  0.80680000  1.0 0.0723105565
C  C112  1  0.56510000  0.27890000  0.80680000  1.0 0.0723105565
C  C113  1  0.63910000  0.42520000  0.30560000  1.0 -0.1006603652
C  C114  1  0.07480000  0.13910000  0.80560000  1.0 -0.1006603652
C  C115  1  0.36090000  0.57480000  0.30560000  1.0 -0.1006603652
C  C116  1  0.92520000  0.86090000  0.80560000  1.0 -0.1006603652
C  C117  1  0.13910000  0.07480000  0.19440000  1.0 -0.1006603652
C  C118  1  0.86090000  0.92520000  0.19440000  1.0 -0.1006603652
C  C119  1  0.42520000  0.63910000  0.69440000  1.0 -0.1006603652
C  C120  1  0.57480000  0.36090000  0.69440000  1.0 -0.1006603652
C  C121  1  0.94860000  0.28320000  0.10820000  1.0 -0.0766456347
C  C122  1  0.21680000  0.44860000  0.60820000  1.0 -0.0766456347
C  C123  1  0.05140000  0.71680000  0.10820000  1.0 -0.0766456347
C  C124  1  0.78320000  0.55140000  0.60820000  1.0 -0.0766456347
C  C125  1  0.44860000  0.21680000  0.39180000  1.0 -0.0766456347
C  C126  1  0.55140000  0.78320000  0.39180000  1.0 -0.0766456347
C  C127  1  0.28320000  0.94860000  0.89180000  1.0 -0.0766456347
C  C128  1  0.71680000  0.05140000  0.89180000  1.0 -0.0766456347
C  C129  1  0.69020000  0.38840000  0.29380000  1.0 -0.0691850028
C  C130  1  0.11160000  0.19020000  0.79380000  1.0 -0.0691850028
C  C131  1  0.30980000  0.61160000  0.29380000  1.0 -0.0691850028
C  C132  1  0.88840000  0.80980000  0.79380000  1.0 -0.0691850028
C  C133  1  0.19020000  0.11160000  0.20620000  1.0 -0.0691850028
C  C134  1  0.80980000  0.88840000  0.20620000  1.0 -0.0691850028
C  C135  1  0.38840000  0.69020000  0.70620000  1.0 -0.0691850028
C  C136  1  0.61160000  0.30980000  0.70620000  1.0 -0.0691850028
C  C137  1  0.71590000  0.38940000  0.26000000  1.0 -0.1369914665
C  C138  1  0.11060000  0.21590000  0.76000000  1.0 -0.1369914665
C  C139  1  0.28410000  0.61060000  0.26000000  1.0 -0.1369914665
C  C140  1  0.88940000  0.78410000  0.76000000  1.0 -0.1369914665
C  C141  1  0.21590000  0.11060000  0.24000000  1.0 -0.1369914665
C  C142  1  0.78410000  0.88940000  0.24000000  1.0 -0.1369914665
C  C143  1  0.38940000  0.71590000  0.74000000  1.0 -0.1369914665
C  C144  1  0.61060000  0.28410000  0.74000000  1.0 -0.1369914665
C  C145  1  0.82990000  0.31780000  0.13490000  1.0 0.0462347016
C  C146  1  0.18220000  0.32990000  0.63490000  1.0 0.0448692933
C  C147  1  0.17010000  0.68220000  0.13490000  1.0 0.0448692933
C  C148  1  0.81780000  0.67010000  0.63490000  1.0 0.0462347016
C  C149  1  0.32990000  0.18220000  0.36510000  1.0 0.0448692933
C  C150  1  0.67010000  0.81780000  0.36510000  1.0 0.0462347016
C  C151  1  0.31780000  0.82990000  0.86510000  1.0 0.0462347016
C  C152  1  0.68220000  0.17010000  0.86510000  1.0 0.0462347016
C  C153  1  0.63240000  0.46870000  0.24110000  1.0 -0.1801281237
C  C154  1  0.03130000  0.13240000  0.74110000  1.0 -0.1801281237
C  C155  1  0.36760000  0.53130000  0.24110000  1.0 -0.1801281237
C  C156  1  0.96870000  0.86760000  0.74110000  1.0 -0.1801281237
C  C157  1  0.13240000  0.03130000  0.25890000  1.0 -0.1801281237
C  C158  1  0.86760000  0.96870000  0.25890000  1.0 -0.1801281237
C  C159  1  0.46870000  0.63240000  0.75890000  1.0 -0.1801281237
C  C160  1  0.53130000  0.36760000  0.75890000  1.0 -0.1801281237
C  C161  1  0.71480000  0.49440000  0.17280000  1.0 -0.1801281237
C  C162  1  0.00560000  0.21480000  0.67280000  1.0 -0.1801281237
C  C163  1  0.28520000  0.50560000  0.17280000  1.0 -0.1801281237
C  C164  1  0.99440000  0.78520000  0.67280000  1.0 -0.1801281237
C  C165  1  0.21480000  0.00560000  0.32720000  1.0 -0.1801281237
C  C166  1  0.78520000  0.99440000  0.32720000  1.0 -0.1801281237
C  C167  1  0.49440000  0.71480000  0.82720000  1.0 -0.1801281237
C  C168  1  0.50560000  0.28520000  0.82720000  1.0 -0.1801281237
C  C169  1  0.90150000  0.33470000  0.11800000  1.0 -0.146852598
C  C170  1  0.16530000  0.40150000  0.61800000  1.0 -0.146852598
C  C171  1  0.09850000  0.66530000  0.11800000  1.0 -0.146852598
C  C172  1  0.83470000  0.59850000  0.61800000  1.0 -0.146852598
C  C173  1  0.40150000  0.16530000  0.38200000  1.0 -0.146852598
C  C174  1  0.59850000  0.83470000  0.38200000  1.0 -0.146852598
C  C175  1  0.33470000  0.90150000  0.88200000  1.0 -0.146852598
C  C176  1  0.66530000  0.09850000  0.88200000  1.0 -0.146852598
C  C177  1  0.79080000  0.37350000  0.14820000  1.0 0.0723105565
C  C178  1  0.12650000  0.29080000  0.64820000  1.0 0.0723105565
C  C179  1  0.20920000  0.62650000  0.14820000  1.0 0.0723105565
C  C180  1  0.87350000  0.70920000  0.64820000  1.0 0.0723105565
C  C181  1  0.29080000  0.12650000  0.35180000  1.0 0.0723105565
C  C182  1  0.70920000  0.87350000  0.35180000  1.0 0.0723105565
C  C183  1  0.37350000  0.79080000  0.85180000  1.0 0.0723105565
C  C184  1  0.62650000  0.20920000  0.85180000  1.0 0.0723105565
C  C185  1  0.82530000  0.24930000  0.14400000  1.0 -0.1062922198
C  C186  1  0.25070000  0.32530000  0.64400000  1.0 -0.1062922198
C  C187  1  0.17470000  0.75070000  0.14400000  1.0 -0.1062922198
C  C188  1  0.74930000  0.67470000  0.64400000  1.0 -0.1006603652
C  C189  1  0.32530000  0.25070000  0.35600000  1.0 -0.1062922198
C  C190  1  0.67470000  0.74930000  0.35600000  1.0 -0.1062922198
C  C191  1  0.24930000  0.82530000  0.85600000  1.0 -0.1062922198
C  C192  1  0.75070000  0.17470000  0.85600000  1.0 -0.1062922198
C  C193  1  0.74220000  0.49740000  0.14080000  1.0 0.0723105565
C  C194  1  0.00260000  0.24220000  0.64080000  1.0 0.0723105565
C  C195  1  0.25780000  0.50260000  0.14080000  1.0 0.0723105565
C  C196  1  0.99740000  0.75780000  0.64080000  1.0 0.0761155333
C  C197  1  0.24220000  0.00260000  0.35920000  1.0 0.0723105565
C  C198  1  0.75780000  0.99740000  0.35920000  1.0 0.0723105565
C  C199  1  0.49740000  0.74220000  0.85920000  1.0 0.0723105565
C  C200  1  0.50260000  0.25780000  0.85920000  1.0 0.0723105565
C  C201  1  0.77990000  0.43960000  0.12880000  1.0 -0.2564205258
C  C202  1  0.06040000  0.27990000  0.62880000  1.0 -0.2564205258
C  C203  1  0.22010000  0.56040000  0.12880000  1.0 -0.2564205258
C  C204  1  0.93960000  0.72010000  0.62880000  1.0 -0.2564205258
C  C205  1  0.27990000  0.06040000  0.37120000  1.0 -0.2564205258
C  C206  1  0.72010000  0.93960000  0.37120000  1.0 -0.2564205258
C  C207  1  0.43960000  0.77990000  0.87120000  1.0 -0.2564205258
C  C208  1  0.56040000  0.22010000  0.87120000  1.0 -0.2564205258
C  C209  1  0.75980000  0.37460000  0.18080000  1.0 -0.20244974
C  C210  1  0.12540000  0.25980000  0.68080000  1.0 -0.20244974
C  C211  1  0.24020000  0.62540000  0.18080000  1.0 -0.20244974
C  C212  1  0.87460000  0.74020000  0.68080000  1.0 -0.20244974
C  C213  1  0.25980000  0.12540000  0.31920000  1.0 -0.20244974
C  C214  1  0.74020000  0.87460000  0.31920000  1.0 -0.20244974
C  C215  1  0.37460000  0.75980000  0.81920000  1.0 -0.20244974
C  C216  1  0.62540000  0.24020000  0.81920000  1.0 -0.20244974
C  C217  1  0.75310000  0.43150000  0.45460000  1.0 0.5673710824
C  C218  1  0.06850000  0.25310000  0.95460000  1.0 0.5673710824
C  C219  1  0.24690000  0.56850000  0.45460000  1.0 0.5673710824
C  C220  1  0.93150000  0.74690000  0.95460000  1.0 0.5673710824
C  C221  1  0.25310000  0.06850000  0.04540000  1.0 0.5673710824
C  C222  1  0.74690000  0.93150000  0.04540000  1.0 0.5673710824
C  C223  1  0.43150000  0.75310000  0.54540000  1.0 0.564479065
C  C224  1  0.56850000  0.24690000  0.54540000  1.0 0.5673710824
C  C225  1  0.85090000  0.47530000  0.41860000  1.0 -0.0924885628
C  C226  1  0.02470000  0.35090000  0.91860000  1.0 -0.0924885628
C  C227  1  0.14910000  0.52470000  0.41860000  1.0 -0.0924885628
C  C228  1  0.97530000  0.64910000  0.91860000  1.0 -0.0924885628
C  C229  1  0.35090000  0.02470000  0.08140000  1.0 -0.0924885628
C  C230  1  0.64910000  0.97530000  0.08140000  1.0 -0.0924885628
C  C231  1  0.47530000  0.85090000  0.58140000  1.0 -0.0924885628
C  C232  1  0.52470000  0.14910000  0.58140000  1.0 -0.0924885628
C  C233  1  0.82180000  0.45520000  0.44810000  1.0 -0.0691850028
C  C234  1  0.04480000  0.32180000  0.94810000  1.0 -0.0691850028
C  C235  1  0.17820000  0.54480000  0.44810000  1.0 -0.0691850028
C  C236  1  0.95520000  0.67820000  0.94810000  1.0 -0.0691850028
C  C237  1  0.32180000  0.04480000  0.05190000  1.0 -0.0691850028
C  C238  1  0.67820000  0.95520000  0.05190000  1.0 -0.0691850028
C  C239  1  0.45520000  0.82180000  0.55190000  1.0 -0.0691850028
C  C240  1  0.54480000  0.17820000  0.55190000  1.0 -0.0691850028
C  C241  1  0.91890000  0.49260000  0.41530000  1.0 -0.1167738184
C  C242  1  0.00740000  0.41890000  0.91530000  1.0 -0.1167738184
C  C243  1  0.08110000  0.50740000  0.41530000  1.0 -0.1167738184
C  C244  1  0.99260000  0.58110000  0.91530000  1.0 -0.1167738184
C  C245  1  0.41890000  0.00740000  0.08470000  1.0 -0.1167738184
C  C246  1  0.58110000  0.99260000  0.08470000  1.0 -0.1167738184
C  C247  1  0.49260000  0.91890000  0.58470000  1.0 -0.1167738184
C  C248  1  0.50740000  0.08110000  0.58470000  1.0 -0.1167738184
C  C249  1  0.86060000  0.43230000  0.47750000  1.0 -0.1167738184
C  C250  1  0.06770000  0.36060000  0.97750000  1.0 -0.1167738184
C  C251  1  0.13940000  0.56770000  0.47750000  1.0 -0.1167738184
C  C252  1  0.93230000  0.63940000  0.97750000  1.0 -0.1167738184
C  C253  1  0.36060000  0.06770000  0.02250000  1.0 -0.1167738184
C  C254  1  0.63940000  0.93230000  0.02250000  1.0 -0.1167738184
C  C255  1  0.43230000  0.86060000  0.52250000  1.0 -0.1167738184
C  C256  1  0.56770000  0.13940000  0.52250000  1.0 -0.1167738184
C  C257  1  0.95600000  0.49620000  0.44500000  1.0 0.0723105565
C  C258  1  0.00380000  0.45600000  0.94500000  1.0 0.0610367584
C  C259  1  0.04400000  0.50380000  0.44500000  1.0 0.0610367584
C  C260  1  0.99620000  0.54400000  0.94500000  1.0 0.0610367584
C  C261  1  0.45600000  0.00380000  0.05500000  1.0 0.0610367584
C  C262  1  0.54400000  0.99620000  0.05500000  1.0 0.0610367584
C  C263  1  0.49620000  0.95600000  0.55500000  1.0 0.0610367584
C  C264  1  0.50380000  0.04400000  0.55500000  1.0 0.0610367584
C  C265  1  0.93660000  0.45480000  0.47640000  1.0 -0.146852598
C  C266  1  0.04520000  0.43660000  0.97640000  1.0 -0.146852598
C  C267  1  0.06340000  0.54520000  0.47640000  1.0 -0.146852598
C  C268  1  0.95480000  0.56340000  0.97640000  1.0 -0.146852598
C  C269  1  0.43660000  0.04520000  0.02360000  1.0 -0.146852598
C  C270  1  0.56340000  0.95480000  0.02360000  1.0 -0.146852598
C  C271  1  0.45480000  0.93660000  0.52360000  1.0 -0.146852598
C  C272  1  0.54520000  0.06340000  0.52360000  1.0 -0.146852598
O  O1  1  0.57130000  0.47240000  0.41805000  1.0 -1.0028674035
O  O2  1  0.02760000  0.07130000  0.91805000  1.0 -1.0028674035
O  O3  1  0.42870000  0.52760000  0.41805000  1.0 -1.0028674035
O  O4  1  0.97240000  0.92870000  0.91805000  1.0 -1.0028674035
O  O5  1  0.07130000  0.02760000  0.08195000  1.0 -1.0028674035
O  O6  1  0.92870000  0.97240000  0.08195000  1.0 -1.0028674035
O  O7  1  0.47240000  0.57130000  0.58195000  1.0 -1.0028674035
O  O8  1  0.52760000  0.42870000  0.58195000  1.0 -1.0028674035
O  O9  1  0.64020000  0.39520000  0.36508000  1.0 -0.5060625105
O  O10  1  0.10480000  0.14020000  0.86508000  1.0 -0.5060625105
O  O11  1  0.35980000  0.60480000  0.36508000  1.0 -0.5060625105
O  O12  1  0.89520000  0.85980000  0.86508000  1.0 -0.5060625105
O  O13  1  0.14020000  0.10480000  0.13492000  1.0 -0.5060625105
O  O14  1  0.85980000  0.89520000  0.13492000  1.0 -0.5060625105
O  O15  1  0.39520000  0.64020000  0.63492000  1.0 -0.5060625105
O  O16  1  0.60480000  0.35980000  0.63492000  1.0 -0.5060625105
O  O17  1  0.59700000  0.36470000  0.46570000  1.0 -1.0028674035
O  O18  1  0.13530000  0.09700000  0.96570000  1.0 -1.0028674035
O  O19  1  0.40300000  0.63530000  0.46570000  1.0 -1.0028674035
O  O20  1  0.86470000  0.90300000  0.96570000  1.0 -1.0028674035
O  O21  1  0.09700000  0.13530000  0.03430000  1.0 -1.0028674035
O  O22  1  0.90300000  0.86470000  0.03430000  1.0 -1.0028674035
O  O23  1  0.36470000  0.59700000  0.53430000  1.0 -1.0028674035
O  O24  1  0.63530000  0.40300000  0.53430000  1.0 -1.0028674035
O  O25  1  0.55820000  0.47110000  0.34652000  1.0 -0.5908041179
O  O26  1  0.02890000  0.05820000  0.84652000  1.0 -0.5908041179
O  O27  1  0.44180000  0.52890000  0.34652000  1.0 -0.5908041179
O  O28  1  0.97110000  0.94180000  0.84652000  1.0 -0.5908041179
O  O29  1  0.05820000  0.02890000  0.15348000  1.0 -0.5908041179
O  O30  1  0.94180000  0.97110000  0.15348000  1.0 -0.5908041179
O  O31  1  0.47110000  0.55820000  0.65348000  1.0 -0.5908041179
O  O32  1  0.52890000  0.44180000  0.65348000  1.0 -0.5908041179
O  O33  1  0.82460000  0.80530000  0.08936000  1.0 -0.4565089895
O  O34  1  0.69470000  0.32460000  0.58936000  1.0 -0.4565089895
O  O35  1  0.17540000  0.19470000  0.08936000  1.0 -0.4565089895
O  O36  1  0.30530000  0.67540000  0.58936000  1.0 -0.4565089895
O  O37  1  0.32460000  0.69470000  0.41064000  1.0 -0.4565089895
O  O38  1  0.67540000  0.30530000  0.41064000  1.0 -0.4565089895
O  O39  1  0.80530000  0.82460000  0.91064000  1.0 -0.4565089895
O  O40  1  0.19470000  0.17540000  0.91064000  1.0 -0.4565089895
O  O41  1  0.73370000  0.39080000  0.48155000  1.0 -0.5800550386
O  O42  1  0.10920000  0.23370000  0.98155000  1.0 -0.5800550386
O  O43  1  0.26630000  0.60920000  0.48155000  1.0 -0.5800550386
O  O44  1  0.89080000  0.76630000  0.98155000  1.0 -0.5800550386
O  O45  1  0.23370000  0.10920000  0.01845000  1.0 -0.5800550386
O  O46  1  0.76630000  0.89080000  0.01845000  1.0 -0.5800550386
O  O47  1  0.39080000  0.73370000  0.51845000  1.0 -0.5800550386
O  O48  1  0.60920000  0.26630000  0.51845000  1.0 -0.5800550386
O  O49  1  0.03900000  0.16170000  0.09640000  1.0 -0.6195743336
O  O50  1  0.33830000  0.53900000  0.59640000  1.0 -0.6195743336
O  O51  1  0.96100000  0.83830000  0.09640000  1.0 -0.6195743336
O  O52  1  0.66170000  0.46100000  0.59640000  1.0 -0.6195743336
O  O53  1  0.53900000  0.33830000  0.40360000  1.0 -0.6195743336
O  O54  1  0.46100000  0.66170000  0.40360000  1.0 -0.6195743336
O  O55  1  0.16170000  0.03900000  0.90360000  1.0 -0.6195743336
O  O56  1  0.83830000  0.96100000  0.90360000  1.0 -0.6195743336
O  O57  1  0.95890000  0.08820000  0.11587000  1.0 -0.5189184576
O  O58  1  0.41180000  0.45890000  0.61587000  1.0 -0.5189184576
O  O59  1  0.04110000  0.91180000  0.11587000  1.0 -0.5189184576
O  O60  1  0.58820000  0.54110000  0.61587000  1.0 -0.5189184576
O  O61  1  0.45890000  0.41180000  0.38413000  1.0 -0.5189184576
O  O62  1  0.54110000  0.58820000  0.38413000  1.0 -0.5189184576
O  O63  1  0.08820000  0.95890000  0.88413000  1.0 -0.5189184576
O  O64  1  0.91180000  0.04110000  0.88413000  1.0 -0.5189184576
O  O65  1  0.70430000  0.43060000  0.42431000  1.0 -0.7019591063
O  O66  1  0.06940000  0.20430000  0.92431000  1.0 -0.7019591063
O  O67  1  0.29570000  0.56940000  0.42431000  1.0 -0.7019591063
O  O68  1  0.93060000  0.79570000  0.92431000  1.0 -0.7019591063
O  O69  1  0.20430000  0.06940000  0.07569000  1.0 -0.7019591063
O  O70  1  0.79570000  0.93060000  0.07569000  1.0 -0.7019591063
O  O71  1  0.43060000  0.70430000  0.57569000  1.0 -0.7019591063
O  O72  1  0.56940000  0.29570000  0.57569000  1.0 -0.7019591063
O  O73  1  0.80390000  0.76220000  0.03211000  1.0 -0.6298081159
O  O74  1  0.73780000  0.30390000  0.53211000  1.0 -0.6298081159
O  O75  1  0.19610000  0.23780000  0.03211000  1.0 -0.6298081159
O  O76  1  0.26220000  0.69610000  0.53211000  1.0 -0.6298081159
O  O77  1  0.30390000  0.73780000  0.46789000  1.0 -0.6298081159
O  O78  1  0.69610000  0.26220000  0.46789000  1.0 -0.6298081159
O  O79  1  0.76220000  0.80390000  0.96789000  1.0 -0.6298081159
O  O80  1  0.23780000  0.19610000  0.96789000  1.0 -0.6298081159
