# DDEC6 charges by PACMAN v1.1 (https://github.com/mtap-research/PACMAN-charge/)
data_aav4119_data_file_s3_FSR_pacman
_symmetry_space_group_name_H-M   'P 1'
_cell_length_a   30.31500000
_cell_length_b   30.31500000
_cell_length_c   34.47400000
_cell_angle_alpha   90.00000000
_cell_angle_beta   90.00000000
_cell_angle_gamma   90.00000000
_symmetry_Int_Tables_number   1
_chemical_formula_structural   Zn44.0H332.8C632N59.2O143.2
_chemical_formula_sum   'Zn44.0 H332.8 C632 N59.2 O143.2'
_cell_volume   31681.57928265
_cell_formula_units_Z   1
loop_
 _symmetry_equiv_pos_site_id
 _symmetry_equiv_pos_as_xyz
  1  'x, y, z'
loop_
 _atom_site_type_symbol
 _atom_site_label
 _atom_site_symmetry_multiplicity
 _atom_site_fract_x
 _atom_site_fract_y
 _atom_site_fract_z
 _atom_site_occupancy
 _atom_site_charge
Zn  Zn1  1  0.33399000  0.90218000  0.27349000  1.0 1.0027713687
Zn  Zn2  1  0.66601000  0.09782000  0.27349000  1.0 1.009087988
Zn  Zn3  1  0.09782000  0.33399000  0.27349000  1.0 1.0027713687
Zn  Zn4  1  0.90218000  0.66601000  0.27349000  1.0 1.0027713687
Zn  Zn5  1  0.16601000  0.40218000  0.22651000  1.0 1.0027713687
Zn  Zn6  1  0.83399000  0.59782000  0.22651000  1.0 1.0027713687
Zn  Zn7  1  0.40218000  0.83399000  0.22651000  1.0 1.0027713687
Zn  Zn8  1  0.59782000  0.16601000  0.22651000  1.0 1.0027713687
Zn  Zn9  1  0.66601000  0.09782000  0.72651000  1.0 1.0027713687
Zn  Zn10  1  0.33399000  0.90218000  0.72651000  1.0 1.0027713687
Zn  Zn11  1  0.90218000  0.66601000  0.72651000  1.0 1.0027713687
Zn  Zn12  1  0.09782000  0.33399000  0.72651000  1.0 1.0027713687
Zn  Zn13  1  0.83399000  0.59782000  0.77349000  1.0 1.0027713687
Zn  Zn14  1  0.16601000  0.40218000  0.77349000  1.0 1.009087988
Zn  Zn15  1  0.59782000  0.16601000  0.77349000  1.0 1.0027713687
Zn  Zn16  1  0.40218000  0.83399000  0.77349000  1.0 1.0027713687
Zn  Zn17  1  0.00000000  0.00000000  0.16537000  1.0 0.6055334888
Zn  Zn18  1  0.50000000  0.50000000  0.33463000  1.0 0.6055334888
Zn  Zn19  1  0.00000000  0.00000000  0.83463000  1.0 0.6047841392
Zn  Zn20  1  0.50000000  0.50000000  0.66537000  1.0 0.6047841392
Zn  Zn21  1  0.16508000  0.70321000  0.50000000  1.0 0.882340356
Zn  Zn22  1  0.83492000  0.29679000  0.50000000  1.0 0.8885280373
Zn  Zn23  1  0.29679000  0.16508000  0.50000000  1.0 0.882340356
Zn  Zn24  1  0.70321000  0.83492000  0.50000000  1.0 0.882340356
Zn  Zn25  1  0.33492000  0.20321000  0.00000000  1.0 0.882340356
Zn  Zn26  1  0.66508000  0.79679000  0.00000000  1.0 0.8885280373
Zn  Zn27  1  0.20321000  0.66508000  0.00000000  1.0 0.882340356
Zn  Zn28  1  0.79679000  0.33492000  0.00000000  1.0 0.8885280373
Zn  Zn29  1  0.24168000  0.94258000  0.33465000  0.45 0.5870417364
Zn  Zn30  1  0.75832000  0.05742000  0.33465000  0.45 0.5825129954
Zn  Zn31  1  0.05742000  0.24168000  0.33465000  0.45 0.5870417364
Zn  Zn32  1  0.94258000  0.75832000  0.33465000  0.45 0.5825129954
Zn  Zn33  1  0.25832000  0.44258000  0.16535000  0.45 0.5870417364
Zn  Zn34  1  0.74168000  0.55742000  0.16535000  0.45 0.5825129954
Zn  Zn35  1  0.44258000  0.74168000  0.16535000  0.45 0.5870417364
Zn  Zn36  1  0.55742000  0.25832000  0.16535000  0.45 0.5825129954
Zn  Zn37  1  0.75832000  0.05742000  0.66535000  0.45 0.5825129954
Zn  Zn38  1  0.24168000  0.94258000  0.66535000  0.45 0.5870417364
Zn  Zn39  1  0.94258000  0.75832000  0.66535000  0.45 0.5825129954
Zn  Zn40  1  0.05742000  0.24168000  0.66535000  0.45 0.5870417364
Zn  Zn41  1  0.74168000  0.55742000  0.83465000  0.45 0.5825129954
Zn  Zn42  1  0.25832000  0.44258000  0.83465000  0.45 0.5870417364
Zn  Zn43  1  0.55742000  0.25832000  0.83465000  0.45 0.5825129954
Zn  Zn44  1  0.44258000  0.74168000  0.83465000  0.45 0.5870417364
Zn  Zn45  1  0.23714000  0.91139000  0.32394000  0.55 0.4804146465
Zn  Zn46  1  0.76286000  0.08861000  0.32394000  0.55 0.4804146465
Zn  Zn47  1  0.08861000  0.23714000  0.32394000  0.55 0.4804146465
Zn  Zn48  1  0.91139000  0.76286000  0.32394000  0.55 0.4804146465
Zn  Zn49  1  0.26286000  0.41139000  0.17606000  0.55 0.4804146465
Zn  Zn50  1  0.73714000  0.58861000  0.17606000  0.55 0.4804146465
Zn  Zn51  1  0.41139000  0.73714000  0.17606000  0.55 0.4804146465
Zn  Zn52  1  0.58861000  0.26286000  0.17606000  0.55 0.4804146465
Zn  Zn53  1  0.76286000  0.08861000  0.67606000  0.55 0.4804146465
Zn  Zn54  1  0.23714000  0.91139000  0.67606000  0.55 0.4804146465
Zn  Zn55  1  0.91139000  0.76286000  0.67606000  0.55 0.4804146465
Zn  Zn56  1  0.08861000  0.23714000  0.67606000  0.55 0.4804146465
Zn  Zn57  1  0.73714000  0.58861000  0.82394000  0.55 0.4804146465
Zn  Zn58  1  0.26286000  0.41139000  0.82394000  0.55 0.4804146465
Zn  Zn59  1  0.58861000  0.26286000  0.82394000  0.55 0.4804146465
Zn  Zn60  1  0.41139000  0.73714000  0.82394000  0.55 0.4804146465
H  H1  1  0.05940000  0.84080000  0.17970000  1.0 0.1285749962
H  H2  1  0.12450000  0.88580000  0.17630000  1.0 0.1285749962
H  H3  1  0.16680000  0.98370000  0.11740000  1.0 0.1222162676
H  H4  1  0.24220000  0.96930000  0.11350000  1.0 0.1222162676
H  H5  1  0.28060000  0.94610000  0.16830000  1.0 0.1285749962
H  H6  1  0.16830000  0.95170000  0.23100000  1.0 0.1285749962
H  H7  1  0.41010000  0.99520000  0.32440000  1.0 0.1285749962
H  H8  1  0.45070000  0.04910000  0.35670000  1.0 0.111231963
H  H9  1  0.41700000  0.09310000  0.40360000  1.0 0.1285749962
H  H10  1  0.30200000  0.02910000  0.38590000  1.0 0.1285749962
H  H11  1  0.35510000  0.78210000  0.32580000  1.0 0.1285749962
H  H12  1  0.36350000  0.71740000  0.36160000  1.0 0.111231963
H  H13  1  0.31090000  0.69820000  0.40800000  1.0 0.1222162676
H  H14  1  0.24170000  0.80820000  0.38260000  1.0 0.1363416145
H  H15  1  0.31270000  0.77690000  0.46700000  1.0 0.1285749962
H  H16  1  0.20390000  0.71160000  0.35410000  1.0 0.1285749962
H  H17  1  0.12990000  0.68380000  0.35500000  1.0 0.1222162676
H  H18  1  0.01910000  0.62870000  0.46370000  1.0 0.1222162676
H  H19  1  0.94060000  0.15920000  0.17970000  1.0 0.1285749962
H  H20  1  0.87550000  0.11420000  0.17630000  1.0 0.1285749962
H  H21  1  0.83320000  0.01630000  0.11740000  1.0 0.1222162676
H  H22  1  0.75780000  0.03070000  0.11350000  1.0 0.1222162676
H  H23  1  0.71940000  0.05390000  0.16830000  1.0 0.1285749962
H  H24  1  0.83170000  0.04830000  0.23100000  1.0 0.1285749962
H  H25  1  0.58990000  0.00480000  0.32440000  1.0 0.1285749962
H  H26  1  0.54930000  0.95090000  0.35670000  1.0 0.111231963
H  H27  1  0.58300000  0.90690000  0.40360000  1.0 0.1285749962
H  H28  1  0.69800000  0.97090000  0.38590000  1.0 0.1285749962
H  H29  1  0.64490000  0.21790000  0.32580000  1.0 0.1285749962
H  H30  1  0.63650000  0.28260000  0.36160000  1.0 0.111231963
H  H31  1  0.68910000  0.30180000  0.40800000  1.0 0.1222162676
H  H32  1  0.75830000  0.19180000  0.38260000  1.0 0.1363416145
H  H33  1  0.68730000  0.22310000  0.46700000  1.0 0.1285749962
H  H34  1  0.79610000  0.28840000  0.35410000  1.0 0.1285749962
H  H35  1  0.87010000  0.31620000  0.35500000  1.0 0.1222162676
H  H36  1  0.98090000  0.37130000  0.46370000  1.0 0.1222162676
H  H37  1  0.15920000  0.05940000  0.17970000  1.0 0.1285749962
H  H38  1  0.11420000  0.12450000  0.17630000  1.0 0.1285749962
H  H39  1  0.01630000  0.16680000  0.11740000  1.0 0.1222162676
H  H40  1  0.03070000  0.24220000  0.11350000  1.0 0.1222162676
H  H41  1  0.05390000  0.28060000  0.16830000  1.0 0.1285749962
H  H42  1  0.04830000  0.16830000  0.23100000  1.0 0.1285749962
H  H43  1  0.00480000  0.41010000  0.32440000  1.0 0.1285749962
H  H44  1  0.95090000  0.45070000  0.35670000  1.0 0.111231963
H  H45  1  0.90690000  0.41700000  0.40360000  1.0 0.1285749962
H  H46  1  0.97090000  0.30200000  0.38590000  1.0 0.1285749962
H  H47  1  0.21790000  0.35510000  0.32580000  1.0 0.1285749962
H  H48  1  0.28260000  0.36350000  0.36160000  1.0 0.111231963
H  H49  1  0.30180000  0.31090000  0.40800000  1.0 0.1222162676
H  H50  1  0.19180000  0.24170000  0.38260000  1.0 0.1363416145
H  H51  1  0.22310000  0.31270000  0.46700000  1.0 0.1285749962
H  H52  1  0.28840000  0.20390000  0.35410000  1.0 0.1285749962
H  H53  1  0.31620000  0.12990000  0.35500000  1.0 0.1222162676
H  H54  1  0.37130000  0.01910000  0.46370000  1.0 0.1222162676
H  H55  1  0.84080000  0.94060000  0.17970000  1.0 0.1285749962
H  H56  1  0.88580000  0.87550000  0.17630000  1.0 0.1285749962
H  H57  1  0.98370000  0.83320000  0.11740000  1.0 0.1222162676
H  H58  1  0.96930000  0.75780000  0.11350000  1.0 0.1222162676
H  H59  1  0.94610000  0.71940000  0.16830000  1.0 0.1285749962
H  H60  1  0.95170000  0.83170000  0.23100000  1.0 0.1285749962
H  H61  1  0.99520000  0.58990000  0.32440000  1.0 0.1285749962
H  H62  1  0.04910000  0.54930000  0.35670000  1.0 0.111231963
H  H63  1  0.09310000  0.58300000  0.40360000  1.0 0.1285749962
H  H64  1  0.02910000  0.69800000  0.38590000  1.0 0.1285749962
H  H65  1  0.78210000  0.64490000  0.32580000  1.0 0.1285749962
H  H66  1  0.71740000  0.63650000  0.36160000  1.0 0.111231963
H  H67  1  0.69820000  0.68910000  0.40800000  1.0 0.1222162676
H  H68  1  0.80820000  0.75830000  0.38260000  1.0 0.1363416145
H  H69  1  0.77690000  0.68730000  0.46700000  1.0 0.1285749962
H  H70  1  0.71160000  0.79610000  0.35410000  1.0 0.1285749962
H  H71  1  0.68380000  0.87010000  0.35500000  1.0 0.1222162676
H  H72  1  0.62870000  0.98090000  0.46370000  1.0 0.1222162676
H  H73  1  0.44060000  0.34080000  0.32030000  1.0 0.1285749962
H  H74  1  0.37550000  0.38580000  0.32370000  1.0 0.1285749962
H  H75  1  0.33320000  0.48370000  0.38260000  1.0 0.1222162676
H  H76  1  0.25780000  0.46930000  0.38650000  1.0 0.1222162676
H  H77  1  0.21940000  0.44610000  0.33170000  1.0 0.1285749962
H  H78  1  0.33170000  0.45170000  0.26900000  1.0 0.1285749962
H  H79  1  0.08990000  0.49520000  0.17560000  1.0 0.1285749962
H  H80  1  0.04930000  0.54910000  0.14330000  1.0 0.111231963
H  H81  1  0.08300000  0.59310000  0.09640000  1.0 0.1285749962
H  H82  1  0.19800000  0.52910000  0.11410000  1.0 0.1285749962
H  H83  1  0.14490000  0.28210000  0.17420000  1.0 0.1285749962
H  H84  1  0.13650000  0.21740000  0.13840000  1.0 0.111231963
H  H85  1  0.18910000  0.19820000  0.09200000  1.0 0.1222162676
H  H86  1  0.25830000  0.30820000  0.11740000  1.0 0.1363416145
H  H87  1  0.18730000  0.27690000  0.03300000  1.0 0.1285749962
H  H88  1  0.29610000  0.21160000  0.14590000  1.0 0.1285749962
H  H89  1  0.37010000  0.18380000  0.14500000  1.0 0.1222162676
H  H90  1  0.48090000  0.12870000  0.03630000  1.0 0.1222162676
H  H91  1  0.55940000  0.65920000  0.32030000  1.0 0.1285749962
H  H92  1  0.62450000  0.61420000  0.32370000  1.0 0.1285749962
H  H93  1  0.66680000  0.51630000  0.38260000  1.0 0.1222162676
H  H94  1  0.74220000  0.53070000  0.38650000  1.0 0.1222162676
H  H95  1  0.78060000  0.55390000  0.33170000  1.0 0.1285749962
H  H96  1  0.66830000  0.54830000  0.26900000  1.0 0.1285749962
H  H97  1  0.91010000  0.50480000  0.17560000  1.0 0.1285749962
H  H98  1  0.95070000  0.45090000  0.14330000  1.0 0.1222162676
H  H99  1  0.91700000  0.40690000  0.09640000  1.0 0.1285749962
H  H100  1  0.80200000  0.47090000  0.11410000  1.0 0.1285749962
H  H101  1  0.85510000  0.71790000  0.17420000  1.0 0.1285749962
H  H102  1  0.86350000  0.78260000  0.13840000  1.0 0.111231963
H  H103  1  0.81090000  0.80180000  0.09200000  1.0 0.1222162676
H  H104  1  0.74170000  0.69180000  0.11740000  1.0 0.1363416145
H  H105  1  0.81270000  0.72310000  0.03300000  1.0 0.1285749962
H  H106  1  0.70390000  0.78840000  0.14590000  1.0 0.1285749962
H  H107  1  0.62990000  0.81620000  0.14500000  1.0 0.1222162676
H  H108  1  0.51910000  0.87130000  0.03630000  1.0 0.1222162676
H  H109  1  0.34080000  0.55940000  0.32030000  1.0 0.1285749962
H  H110  1  0.38580000  0.62450000  0.32370000  1.0 0.1285749962
H  H111  1  0.48370000  0.66680000  0.38260000  1.0 0.1222162676
H  H112  1  0.46930000  0.74220000  0.38650000  1.0 0.1222162676
H  H113  1  0.44610000  0.78060000  0.33170000  1.0 0.1285749962
H  H114  1  0.45170000  0.66830000  0.26900000  1.0 0.1285749962
H  H115  1  0.49520000  0.91010000  0.17560000  1.0 0.1285749962
H  H116  1  0.54910000  0.95070000  0.14330000  1.0 0.111231963
H  H117  1  0.59310000  0.91700000  0.09640000  1.0 0.1285749962
H  H118  1  0.52910000  0.80200000  0.11410000  1.0 0.1285749962
H  H119  1  0.28210000  0.85510000  0.17420000  1.0 0.1285749962
H  H120  1  0.21740000  0.86350000  0.13840000  1.0 0.111231963
H  H121  1  0.19820000  0.81090000  0.09200000  1.0 0.1222162676
H  H122  1  0.30820000  0.74170000  0.11740000  1.0 0.1363416145
H  H123  1  0.27690000  0.81270000  0.03300000  1.0 0.1285749962
H  H124  1  0.21160000  0.70390000  0.14590000  1.0 0.1285749962
H  H125  1  0.18380000  0.62990000  0.14500000  1.0 0.1222162676
H  H126  1  0.12870000  0.51910000  0.03630000  1.0 0.1222162676
H  H127  1  0.65920000  0.44060000  0.32030000  1.0 0.1285749962
H  H128  1  0.61420000  0.37550000  0.32370000  1.0 0.1285749962
H  H129  1  0.51630000  0.33320000  0.38260000  1.0 0.1222162676
H  H130  1  0.53070000  0.25780000  0.38650000  1.0 0.1222162676
H  H131  1  0.55390000  0.21940000  0.33170000  1.0 0.1285749962
H  H132  1  0.54830000  0.33170000  0.26900000  1.0 0.1285749962
H  H133  1  0.50480000  0.08990000  0.17560000  1.0 0.1285749962
H  H134  1  0.45090000  0.04930000  0.14330000  1.0 0.111231963
H  H135  1  0.40690000  0.08300000  0.09640000  1.0 0.1285749962
H  H136  1  0.47090000  0.19800000  0.11410000  1.0 0.1285749962
H  H137  1  0.71790000  0.14490000  0.17420000  1.0 0.1285749962
H  H138  1  0.78260000  0.13650000  0.13840000  1.0 0.111231963
H  H139  1  0.80180000  0.18910000  0.09200000  1.0 0.1222162676
H  H140  1  0.69180000  0.25830000  0.11740000  1.0 0.1363416145
H  H141  1  0.72310000  0.18730000  0.03300000  1.0 0.1285749962
H  H142  1  0.78840000  0.29610000  0.14590000  1.0 0.1285749962
H  H143  1  0.81620000  0.37010000  0.14500000  1.0 0.1222162676
H  H144  1  0.87130000  0.48090000  0.03630000  1.0 0.1222162676
H  H145  1  0.94060000  0.15920000  0.82030000  1.0 0.1285749962
H  H146  1  0.87550000  0.11420000  0.82370000  1.0 0.1285749962
H  H147  1  0.83320000  0.01630000  0.88260000  1.0 0.1222162676
H  H148  1  0.75780000  0.03070000  0.88650000  1.0 0.1222162676
H  H149  1  0.71940000  0.05390000  0.83170000  1.0 0.1285749962
H  H150  1  0.83170000  0.04830000  0.76900000  1.0 0.1285749962
H  H151  1  0.58990000  0.00480000  0.67560000  1.0 0.1285749962
H  H152  1  0.54930000  0.95090000  0.64330000  1.0 0.111231963
H  H153  1  0.58300000  0.90690000  0.59640000  1.0 0.1285749962
H  H154  1  0.69800000  0.97090000  0.61410000  1.0 0.1285749962
H  H155  1  0.64490000  0.21790000  0.67420000  1.0 0.1285749962
H  H156  1  0.63650000  0.28260000  0.63840000  1.0 0.111231963
H  H157  1  0.68910000  0.30180000  0.59200000  1.0 0.1222162676
H  H158  1  0.75830000  0.19180000  0.61740000  1.0 0.1363416145
H  H159  1  0.68730000  0.22310000  0.53300000  1.0 0.1285749962
H  H160  1  0.79610000  0.28840000  0.64590000  1.0 0.1285749962
H  H161  1  0.87010000  0.31620000  0.64500000  1.0 0.1222162676
H  H162  1  0.98090000  0.37130000  0.53630000  1.0 0.1222162676
H  H163  1  0.05940000  0.84080000  0.82030000  1.0 0.1285749962
H  H164  1  0.12450000  0.88580000  0.82370000  1.0 0.1285749962
H  H165  1  0.16680000  0.98370000  0.88260000  1.0 0.1222162676
H  H166  1  0.24220000  0.96930000  0.88650000  1.0 0.1222162676
H  H167  1  0.28060000  0.94610000  0.83170000  1.0 0.1285749962
H  H168  1  0.16830000  0.95170000  0.76900000  1.0 0.1285749962
H  H169  1  0.41010000  0.99520000  0.67560000  1.0 0.1285749962
H  H170  1  0.45070000  0.04910000  0.64330000  1.0 0.111231963
H  H171  1  0.41700000  0.09310000  0.59640000  1.0 0.1285749962
H  H172  1  0.30200000  0.02910000  0.61410000  1.0 0.1285749962
H  H173  1  0.35510000  0.78210000  0.67420000  1.0 0.1285749962
H  H174  1  0.36350000  0.71740000  0.63840000  1.0 0.111231963
H  H175  1  0.31090000  0.69820000  0.59200000  1.0 0.1222162676
H  H176  1  0.24170000  0.80820000  0.61740000  1.0 0.1363416145
H  H177  1  0.31270000  0.77690000  0.53300000  1.0 0.1285749962
H  H178  1  0.20390000  0.71160000  0.64590000  1.0 0.1285749962
H  H179  1  0.12990000  0.68380000  0.64500000  1.0 0.1222162676
H  H180  1  0.01910000  0.62870000  0.53630000  1.0 0.1222162676
H  H181  1  0.84080000  0.94060000  0.82030000  1.0 0.1285749962
H  H182  1  0.88580000  0.87550000  0.82370000  1.0 0.1285749962
H  H183  1  0.98370000  0.83320000  0.88260000  1.0 0.1222162676
H  H184  1  0.96930000  0.75780000  0.88650000  1.0 0.1222162676
H  H185  1  0.94610000  0.71940000  0.83170000  1.0 0.1285749962
H  H186  1  0.95170000  0.83170000  0.76900000  1.0 0.1285749962
H  H187  1  0.99520000  0.58990000  0.67560000  1.0 0.1285749962
H  H188  1  0.04910000  0.54930000  0.64330000  1.0 0.111231963
H  H189  1  0.09310000  0.58300000  0.59640000  1.0 0.1285749962
H  H190  1  0.02910000  0.69800000  0.61410000  1.0 0.1285749962
H  H191  1  0.78210000  0.64490000  0.67420000  1.0 0.1285749962
H  H192  1  0.71740000  0.63650000  0.63840000  1.0 0.111231963
H  H193  1  0.69820000  0.68910000  0.59200000  1.0 0.1222162676
H  H194  1  0.80820000  0.75830000  0.61740000  1.0 0.1363416145
H  H195  1  0.77690000  0.68730000  0.53300000  1.0 0.1285749962
H  H196  1  0.71160000  0.79610000  0.64590000  1.0 0.1285749962
H  H197  1  0.68380000  0.87010000  0.64500000  1.0 0.1222162676
H  H198  1  0.62870000  0.98090000  0.53630000  1.0 0.1222162676
H  H199  1  0.15920000  0.05940000  0.82030000  1.0 0.1285749962
H  H200  1  0.11420000  0.12450000  0.82370000  1.0 0.1285749962
H  H201  1  0.01630000  0.16680000  0.88260000  1.0 0.1222162676
H  H202  1  0.03070000  0.24220000  0.88650000  1.0 0.1222162676
H  H203  1  0.05390000  0.28060000  0.83170000  1.0 0.1285749962
H  H204  1  0.04830000  0.16830000  0.76900000  1.0 0.1285749962
H  H205  1  0.00480000  0.41010000  0.67560000  1.0 0.1285749962
H  H206  1  0.95090000  0.45070000  0.64330000  1.0 0.111231963
H  H207  1  0.90690000  0.41700000  0.59640000  1.0 0.1285749962
H  H208  1  0.97090000  0.30200000  0.61410000  1.0 0.1285749962
H  H209  1  0.21790000  0.35510000  0.67420000  1.0 0.1285749962
H  H210  1  0.28260000  0.36350000  0.63840000  1.0 0.111231963
H  H211  1  0.30180000  0.31090000  0.59200000  1.0 0.1222162676
H  H212  1  0.19180000  0.24170000  0.61740000  1.0 0.1363416145
H  H213  1  0.22310000  0.31270000  0.53300000  1.0 0.1285749962
H  H214  1  0.28840000  0.20390000  0.64590000  1.0 0.1285749962
H  H215  1  0.31620000  0.12990000  0.64500000  1.0 0.1222162676
H  H216  1  0.37130000  0.01910000  0.53630000  1.0 0.1222162676
H  H217  1  0.55940000  0.65920000  0.67970000  1.0 0.1285749962
H  H218  1  0.62450000  0.61420000  0.67630000  1.0 0.1285749962
H  H219  1  0.66680000  0.51630000  0.61740000  1.0 0.1222162676
H  H220  1  0.74220000  0.53070000  0.61350000  1.0 0.1222162676
H  H221  1  0.78060000  0.55390000  0.66830000  1.0 0.1285749962
H  H222  1  0.66830000  0.54830000  0.73100000  1.0 0.1285749962
H  H223  1  0.91010000  0.50480000  0.82440000  1.0 0.1285749962
H  H224  1  0.95070000  0.45090000  0.85670000  1.0 0.111231963
H  H225  1  0.91700000  0.40690000  0.90360000  1.0 0.1285749962
H  H226  1  0.80200000  0.47090000  0.88590000  1.0 0.1285749962
H  H227  1  0.85510000  0.71790000  0.82580000  1.0 0.1285749962
H  H228  1  0.86350000  0.78260000  0.86160000  1.0 0.111231963
H  H229  1  0.81090000  0.80180000  0.90800000  1.0 0.1222162676
H  H230  1  0.74170000  0.69180000  0.88260000  1.0 0.1363416145
H  H231  1  0.81270000  0.72310000  0.96700000  1.0 0.1222162676
H  H232  1  0.70390000  0.78840000  0.85410000  1.0 0.1285749962
H  H233  1  0.62990000  0.81620000  0.85500000  1.0 0.1222162676
H  H234  1  0.51910000  0.87130000  0.96370000  1.0 0.1222162676
H  H235  1  0.44060000  0.34080000  0.67970000  1.0 0.1285749962
H  H236  1  0.37550000  0.38580000  0.67630000  1.0 0.1285749962
H  H237  1  0.33320000  0.48370000  0.61740000  1.0 0.1222162676
H  H238  1  0.25780000  0.46930000  0.61350000  1.0 0.1222162676
H  H239  1  0.21940000  0.44610000  0.66830000  1.0 0.1285749962
H  H240  1  0.33170000  0.45170000  0.73100000  1.0 0.1285749962
H  H241  1  0.08990000  0.49520000  0.82440000  1.0 0.1285749962
H  H242  1  0.04930000  0.54910000  0.85670000  1.0 0.111231963
H  H243  1  0.08300000  0.59310000  0.90360000  1.0 0.1285749962
H  H244  1  0.19800000  0.52910000  0.88590000  1.0 0.1285749962
H  H245  1  0.14490000  0.28210000  0.82580000  1.0 0.1285749962
H  H246  1  0.13650000  0.21740000  0.86160000  1.0 0.111231963
H  H247  1  0.18910000  0.19820000  0.90800000  1.0 0.1222162676
H  H248  1  0.25830000  0.30820000  0.88260000  1.0 0.1363416145
H  H249  1  0.18730000  0.27690000  0.96700000  1.0 0.1285749962
H  H250  1  0.29610000  0.21160000  0.85410000  1.0 0.1285749962
H  H251  1  0.37010000  0.18380000  0.85500000  1.0 0.1222162676
H  H252  1  0.48090000  0.12870000  0.96370000  1.0 0.1222162676
H  H253  1  0.65920000  0.44060000  0.67970000  1.0 0.1285749962
H  H254  1  0.61420000  0.37550000  0.67630000  1.0 0.1285749962
H  H255  1  0.51630000  0.33320000  0.61740000  1.0 0.1222162676
H  H256  1  0.53070000  0.25780000  0.61350000  1.0 0.1222162676
H  H257  1  0.55390000  0.21940000  0.66830000  1.0 0.1285749962
H  H258  1  0.54830000  0.33170000  0.73100000  1.0 0.1285749962
H  H259  1  0.50480000  0.08990000  0.82440000  1.0 0.1285749962
H  H260  1  0.45090000  0.04930000  0.85670000  1.0 0.111231963
H  H261  1  0.40690000  0.08300000  0.90360000  1.0 0.1285749962
H  H262  1  0.47090000  0.19800000  0.88590000  1.0 0.1285749962
H  H263  1  0.71790000  0.14490000  0.82580000  1.0 0.1222162676
H  H264  1  0.78260000  0.13650000  0.86160000  1.0 0.111231963
H  H265  1  0.80180000  0.18910000  0.90800000  1.0 0.1222162676
H  H266  1  0.69180000  0.25830000  0.88260000  1.0 0.1363416145
H  H267  1  0.72310000  0.18730000  0.96700000  1.0 0.1285749962
H  H268  1  0.78840000  0.29610000  0.85410000  1.0 0.1285749962
H  H269  1  0.81620000  0.37010000  0.85500000  1.0 0.1222162676
H  H270  1  0.87130000  0.48090000  0.96370000  1.0 0.1222162676
H  H271  1  0.34080000  0.55940000  0.67970000  1.0 0.1285749962
H  H272  1  0.38580000  0.62450000  0.67630000  1.0 0.1285749962
H  H273  1  0.48370000  0.66680000  0.61740000  1.0 0.1222162676
H  H274  1  0.46930000  0.74220000  0.61350000  1.0 0.1222162676
H  H275  1  0.44610000  0.78060000  0.66830000  1.0 0.1285749962
H  H276  1  0.45170000  0.66830000  0.73100000  1.0 0.1285749962
H  H277  1  0.49520000  0.91010000  0.82440000  1.0 0.1285749962
H  H278  1  0.54910000  0.95070000  0.85670000  1.0 0.111231963
H  H279  1  0.59310000  0.91700000  0.90360000  1.0 0.1285749962
H  H280  1  0.52910000  0.80200000  0.88590000  1.0 0.1285749962
H  H281  1  0.28210000  0.85510000  0.82580000  1.0 0.1285749962
H  H282  1  0.21740000  0.86350000  0.86160000  1.0 0.111231963
H  H283  1  0.19820000  0.81090000  0.90800000  1.0 0.1222162676
H  H284  1  0.30820000  0.74170000  0.88260000  1.0 0.1363416145
H  H285  1  0.27690000  0.81270000  0.96700000  1.0 0.1285749962
H  H286  1  0.21160000  0.70390000  0.85410000  1.0 0.1285749962
H  H287  1  0.18380000  0.62990000  0.85500000  1.0 0.1222162676
H  H288  1  0.12870000  0.51910000  0.96370000  1.0 0.1222162676
H  H289  1  0.17590000  0.96690000  0.40380000  0.45 0.1022639998
H  H290  1  0.17520000  0.96560000  0.47140000  0.45 0.1022639998
H  H291  1  0.29970000  0.91840000  0.47170000  0.45 0.1222162676
H  H292  1  0.30030000  0.91960000  0.40410000  0.45 0.111231963
H  H293  1  0.82410000  0.03310000  0.40380000  0.45 0.1022639998
H  H294  1  0.82480000  0.03440000  0.47140000  0.45 0.1022639998
H  H295  1  0.70030000  0.08160000  0.47170000  0.45 0.1222162676
H  H296  1  0.69970000  0.08040000  0.40410000  0.45 0.111231963
H  H297  1  0.03310000  0.17590000  0.40380000  0.45 0.1022639998
H  H298  1  0.03440000  0.17520000  0.47140000  0.45 0.1022639998
H  H299  1  0.08160000  0.29970000  0.47170000  0.45 0.1222162676
H  H300  1  0.08040000  0.30030000  0.40410000  0.45 0.111231963
H  H301  1  0.96690000  0.82410000  0.40380000  0.45 0.1022639998
H  H302  1  0.96560000  0.82480000  0.47140000  0.45 0.1022639998
H  H303  1  0.91840000  0.70030000  0.47170000  0.45 0.1222162676
H  H304  1  0.91960000  0.69970000  0.40410000  0.45 0.111231963
H  H305  1  0.32410000  0.46690000  0.09620000  0.45 0.1022639998
H  H306  1  0.32480000  0.46560000  0.02860000  0.45 0.1022639998
H  H307  1  0.20030000  0.41840000  0.02830000  0.45 0.1222162676
H  H308  1  0.19970000  0.41960000  0.09590000  0.45 0.111231963
H  H309  1  0.67590000  0.53310000  0.09620000  0.45 0.1022639998
H  H310  1  0.67520000  0.53440000  0.02860000  0.45 0.1022639998
H  H311  1  0.79970000  0.58160000  0.02830000  0.45 0.1222162676
H  H312  1  0.80030000  0.58040000  0.09590000  0.45 0.111231963
H  H313  1  0.46690000  0.67590000  0.09620000  0.45 0.1022639998
H  H314  1  0.46560000  0.67520000  0.02860000  0.45 0.1022639998
H  H315  1  0.41840000  0.79970000  0.02830000  0.45 0.1222162676
H  H316  1  0.41960000  0.80030000  0.09590000  0.45 0.111231963
H  H317  1  0.53310000  0.32410000  0.09620000  0.45 0.1022639998
H  H318  1  0.53440000  0.32480000  0.02860000  0.45 0.1022639998
H  H319  1  0.58160000  0.20030000  0.02830000  0.45 0.1222162676
H  H320  1  0.58040000  0.19970000  0.09590000  0.45 0.111231963
H  H321  1  0.82410000  0.03310000  0.59620000  0.45 0.1022639998
H  H322  1  0.82480000  0.03440000  0.52860000  0.45 0.1022639998
H  H323  1  0.70030000  0.08160000  0.52830000  0.45 0.1222162676
H  H324  1  0.69970000  0.08040000  0.59590000  0.45 0.111231963
H  H325  1  0.17590000  0.96690000  0.59620000  0.45 0.1022639998
H  H326  1  0.17520000  0.96560000  0.52860000  0.45 0.1022639998
H  H327  1  0.29970000  0.91840000  0.52830000  0.45 0.1222162676
H  H328  1  0.30030000  0.91960000  0.59590000  0.45 0.111231963
H  H329  1  0.96690000  0.82410000  0.59620000  0.45 0.1022639998
H  H330  1  0.96560000  0.82480000  0.52860000  0.45 0.1022639998
H  H331  1  0.91840000  0.70030000  0.52830000  0.45 0.1222162676
H  H332  1  0.91960000  0.69970000  0.59590000  0.45 0.111231963
H  H333  1  0.03310000  0.17590000  0.59620000  0.45 0.1022639998
H  H334  1  0.03440000  0.17520000  0.52860000  0.45 0.1022639998
H  H335  1  0.08160000  0.29970000  0.52830000  0.45 0.1222162676
H  H336  1  0.08040000  0.30030000  0.59590000  0.45 0.111231963
H  H337  1  0.67590000  0.53310000  0.90380000  0.45 0.1022639998
H  H338  1  0.67520000  0.53440000  0.97140000  0.45 0.1022639998
H  H339  1  0.79970000  0.58160000  0.97170000  0.45 0.1222162676
H  H340  1  0.80030000  0.58040000  0.90410000  0.45 0.111231963
H  H341  1  0.32410000  0.46690000  0.90380000  0.45 0.1022639998
H  H342  1  0.32480000  0.46560000  0.97140000  0.45 0.1022639998
H  H343  1  0.20030000  0.41840000  0.97170000  0.45 0.1222162676
H  H344  1  0.19970000  0.41960000  0.90410000  0.45 0.111231963
H  H345  1  0.53310000  0.32410000  0.90380000  0.45 0.1022639998
H  H346  1  0.53440000  0.32480000  0.97140000  0.45 0.1022639998
H  H347  1  0.58160000  0.20030000  0.97170000  0.45 0.1222162676
H  H348  1  0.58040000  0.19970000  0.90410000  0.45 0.111231963
H  H349  1  0.46690000  0.67590000  0.90380000  0.45 0.1022639998
H  H350  1  0.46560000  0.67520000  0.97140000  0.45 0.1022639998
H  H351  1  0.41840000  0.79970000  0.97170000  0.45 0.1222162676
H  H352  1  0.41960000  0.80030000  0.90410000  0.45 0.111231963
H  H353  1  0.05750000  0.02160000  0.09610000  0.5 0.1022639998
H  H354  1  0.05640000  0.02710000  0.02940000  0.5 0.1022639998
H  H355  1  0.94250000  0.97840000  0.09610000  0.5 0.1022639998
H  H356  1  0.94360000  0.97290000  0.02940000  0.5 0.1022639998
H  H357  1  0.97840000  0.05750000  0.09610000  0.5 0.1022639998
H  H358  1  0.97290000  0.05640000  0.02940000  0.5 0.1022639998
H  H359  1  0.02160000  0.94250000  0.09610000  0.5 0.1022639998
H  H360  1  0.02710000  0.94360000  0.02940000  0.5 0.1022639998
H  H361  1  0.44250000  0.52160000  0.40390000  0.5 0.1022639998
H  H362  1  0.44360000  0.52710000  0.47060000  0.5 0.1022639998
H  H363  1  0.55750000  0.47840000  0.40390000  0.5 0.1022639998
H  H364  1  0.55640000  0.47290000  0.47060000  0.5 0.1022639998
H  H365  1  0.52160000  0.55750000  0.40390000  0.5 0.1022639998
H  H366  1  0.52710000  0.55640000  0.47060000  0.5 0.1022639998
H  H367  1  0.47840000  0.44250000  0.40390000  0.5 0.1022639998
H  H368  1  0.47290000  0.44360000  0.47060000  0.5 0.1022639998
H  H369  1  0.94250000  0.97840000  0.90390000  0.5 0.1022639998
H  H370  1  0.94360000  0.97290000  0.97060000  0.5 0.1022639998
H  H371  1  0.05750000  0.02160000  0.90390000  0.5 0.1022639998
H  H372  1  0.05640000  0.02710000  0.97060000  0.5 0.1022639998
H  H373  1  0.02160000  0.94250000  0.90390000  0.5 0.1022639998
H  H374  1  0.02710000  0.94360000  0.97060000  0.5 0.1022639998
H  H375  1  0.97840000  0.05750000  0.90390000  0.5 0.1022639998
H  H376  1  0.97290000  0.05640000  0.97060000  0.5 0.1022639998
H  H377  1  0.55750000  0.47840000  0.59610000  0.5 0.1022639998
H  H378  1  0.55640000  0.47290000  0.52940000  0.5 0.1022639998
H  H379  1  0.44250000  0.52160000  0.59610000  0.5 0.1022639998
H  H380  1  0.44360000  0.52710000  0.52940000  0.5 0.1022639998
H  H381  1  0.47840000  0.44250000  0.59610000  0.5 0.1022639998
H  H382  1  0.47290000  0.44360000  0.52940000  0.5 0.1022639998
H  H383  1  0.52160000  0.55750000  0.59610000  0.5 0.1022639998
H  H384  1  0.52710000  0.55640000  0.52940000  0.5 0.1022639998
C  C1  1  0.02190000  0.90280000  0.17610000  1.0 0.1993696818
C  C2  1  0.06040000  0.87180000  0.17790000  1.0 -0.1812641538
C  C3  1  0.09540000  0.89660000  0.17650000  1.0 -0.189363151
C  C4  1  0.08390000  0.94230000  0.17525000  1.0 0.1625914357
C  C5  1  0.11160000  0.97760000  0.17550000  1.0 -0.0935976069
C  C6  1  0.16029000  0.96913000  0.17460000  1.0 0.0833832294
C  C7  1  0.18231000  0.97440000  0.13954000  1.0 -0.1597114878
C  C8  1  0.22727000  0.96580000  0.13719000  1.0 -0.100333968
C  C9  1  0.25021000  0.95190000  0.16991000  1.0 -0.1078849525
C  C10  1  0.22819000  0.94667000  0.20497000  1.0 -0.0631094359
C  C11  1  0.18323000  0.95528000  0.20732000  1.0 -0.138957973
C  C12  1  0.25330000  0.93310000  0.23910000  1.0 0.5825129954
C  C13  1  0.32580000  0.97180000  0.33340000  1.0 0.5336200677
C  C14  1  0.35210000  0.00690000  0.35200000  1.0 -0.0427239201
C  C15  1  0.39650000  0.01290000  0.34330000  1.0 -0.100333968
C  C16  1  0.42070000  0.04510000  0.36260000  1.0 -0.100333968
C  C17  1  0.40060000  0.07130000  0.39050000  1.0 -0.1306203288
C  C18  1  0.35620000  0.06530000  0.39920000  1.0 0.0886683702
C  C19  1  0.33200000  0.03310000  0.37998000  1.0 -0.138957973
C  C20  1  0.29480000  0.84250000  0.32810000  1.0 0.554760313
C  C21  1  0.29760000  0.80140000  0.35070000  1.0 -0.0312732353
C  C22  1  0.33390000  0.77430000  0.34450000  1.0 -0.100333968
C  C23  1  0.33890000  0.73580000  0.36590000  1.0 -0.100333968
C  C24  1  0.30760000  0.72430000  0.39350000  1.0 -0.1306203288
C  C25  1  0.27120000  0.75130000  0.39975000  1.0 0.0886683702
C  C26  1  0.26626000  0.78990000  0.37840000  1.0 -0.138957973
C  C27  1  0.29000000  0.76530000  0.48260000  1.0 -0.1597114878
C  C28  1  0.24980000  0.74470000  0.46790000  1.0 0.1758105856
C  C29  1  0.23720000  0.73790000  0.42870000  1.0 -0.0935976069
C  C30  1  0.19700000  0.72100000  0.41740000  1.0 0.193314486
C  C31  1  0.18590000  0.70770000  0.37610000  1.0 -0.1506759559
C  C32  1  0.14730000  0.69020000  0.37690000  1.0 -0.1506759559
C  C33  1  0.13460000  0.68170000  0.41790000  1.0 0.1687858913
C  C34  1  0.09470000  0.66780000  0.42930000  1.0 -0.0723737052
C  C35  1  0.08020000  0.65890000  0.46770000  1.0 0.1625914357
C  C36  1  0.04160000  0.63980000  0.47980000  1.0 -0.1990784017
C  C37  1  0.97810000  0.09720000  0.17610000  1.0 0.1993696818
C  C38  1  0.93960000  0.12820000  0.17790000  1.0 -0.1812641538
C  C39  1  0.90460000  0.10340000  0.17650000  1.0 -0.189363151
C  C40  1  0.91610000  0.05770000  0.17525000  1.0 0.1625914357
C  C41  1  0.88840000  0.02240000  0.17550000  1.0 -0.0935976069
C  C42  1  0.83971000  0.03087000  0.17460000  1.0 0.0833832294
C  C43  1  0.81769000  0.02560000  0.13954000  1.0 -0.1597114878
C  C44  1  0.77273000  0.03420000  0.13719000  1.0 -0.100333968
C  C45  1  0.74979000  0.04810000  0.16991000  1.0 -0.1078849525
C  C46  1  0.77181000  0.05333000  0.20497000  1.0 -0.0631094359
C  C47  1  0.81677000  0.04472000  0.20732000  1.0 -0.138957973
C  C48  1  0.74670000  0.06690000  0.23910000  1.0 0.5825129954
C  C49  1  0.67420000  0.02820000  0.33340000  1.0 0.5336200677
C  C50  1  0.64790000  0.99310000  0.35200000  1.0 -0.0456854689
C  C51  1  0.60350000  0.98710000  0.34330000  1.0 -0.100333968
C  C52  1  0.57930000  0.95490000  0.36260000  1.0 -0.100333968
C  C53  1  0.59940000  0.92870000  0.39050000  1.0 -0.1306203288
C  C54  1  0.64380000  0.93470000  0.39920000  1.0 0.0886683702
C  C55  1  0.66800000  0.96690000  0.37998000  1.0 -0.138957973
C  C56  1  0.70520000  0.15750000  0.32810000  1.0 0.5556251489
C  C57  1  0.70240000  0.19860000  0.35070000  1.0 -0.0312732353
C  C58  1  0.66610000  0.22570000  0.34450000  1.0 -0.100333968
C  C59  1  0.66110000  0.26420000  0.36590000  1.0 -0.100333968
C  C60  1  0.69240000  0.27570000  0.39350000  1.0 -0.1306203288
C  C61  1  0.72880000  0.24870000  0.39975000  1.0 0.0833832294
C  C62  1  0.73374000  0.21010000  0.37840000  1.0 -0.138957973
C  C63  1  0.71000000  0.23470000  0.48260000  1.0 -0.1597114878
C  C64  1  0.75020000  0.25530000  0.46790000  1.0 0.1758105856
C  C65  1  0.76280000  0.26210000  0.42870000  1.0 -0.0935976069
C  C66  1  0.80300000  0.27900000  0.41740000  1.0 0.193314486
C  C67  1  0.81410000  0.29230000  0.37610000  1.0 -0.1506759559
C  C68  1  0.85270000  0.30980000  0.37690000  1.0 -0.1506759559
C  C69  1  0.86540000  0.31830000  0.41790000  1.0 0.1687858913
C  C70  1  0.90530000  0.33220000  0.42930000  1.0 -0.0723737052
C  C71  1  0.91980000  0.34110000  0.46770000  1.0 0.1625914357
C  C72  1  0.95840000  0.36020000  0.47980000  1.0 -0.1990784017
C  C73  1  0.09720000  0.02190000  0.17610000  1.0 0.1993696818
C  C74  1  0.12820000  0.06040000  0.17790000  1.0 -0.1812641538
C  C75  1  0.10340000  0.09540000  0.17650000  1.0 -0.189363151
C  C76  1  0.05770000  0.08390000  0.17525000  1.0 0.1625914357
C  C77  1  0.02240000  0.11160000  0.17550000  1.0 -0.0935976069
C  C78  1  0.03087000  0.16029000  0.17460000  1.0 0.0833832294
C  C79  1  0.02560000  0.18231000  0.13954000  1.0 -0.1597114878
C  C80  1  0.03420000  0.22727000  0.13719000  1.0 -0.100333968
C  C81  1  0.04810000  0.25021000  0.16991000  1.0 -0.1078849525
C  C82  1  0.05333000  0.22819000  0.20497000  1.0 -0.0631094359
C  C83  1  0.04472000  0.18323000  0.20732000  1.0 -0.138957973
C  C84  1  0.06690000  0.25330000  0.23910000  1.0 0.5825129954
C  C85  1  0.02820000  0.32580000  0.33340000  1.0 0.5336200677
C  C86  1  0.99310000  0.35210000  0.35200000  1.0 -0.0427239201
C  C87  1  0.98710000  0.39650000  0.34330000  1.0 -0.100333968
C  C88  1  0.95490000  0.42070000  0.36260000  1.0 -0.100333968
C  C89  1  0.92870000  0.40060000  0.39050000  1.0 -0.1306203288
C  C90  1  0.93470000  0.35620000  0.39920000  1.0 0.0886683702
C  C91  1  0.96690000  0.33200000  0.37998000  1.0 -0.138957973
C  C92  1  0.15750000  0.29480000  0.32810000  1.0 0.554760313
C  C93  1  0.19860000  0.29760000  0.35070000  1.0 -0.0312732353
C  C94  1  0.22570000  0.33390000  0.34450000  1.0 -0.100333968
C  C95  1  0.26420000  0.33890000  0.36590000  1.0 -0.100333968
C  C96  1  0.27570000  0.30760000  0.39350000  1.0 -0.1306203288
C  C97  1  0.24870000  0.27120000  0.39975000  1.0 0.0833832294
C  C98  1  0.21010000  0.26626000  0.37840000  1.0 -0.138957973
C  C99  1  0.23470000  0.29000000  0.48260000  1.0 -0.1597114878
C  C100  1  0.25530000  0.24980000  0.46790000  1.0 0.1758105856
C  C101  1  0.26210000  0.23720000  0.42870000  1.0 -0.0935976069
C  C102  1  0.27900000  0.19700000  0.41740000  1.0 0.193314486
C  C103  1  0.29230000  0.18590000  0.37610000  1.0 -0.1506759559
C  C104  1  0.30980000  0.14730000  0.37690000  1.0 -0.1506759559
C  C105  1  0.31830000  0.13460000  0.41790000  1.0 0.1687858913
C  C106  1  0.33220000  0.09470000  0.42930000  1.0 -0.0723737052
C  C107  1  0.34110000  0.08020000  0.46770000  1.0 0.1625914357
C  C108  1  0.36020000  0.04160000  0.47980000  1.0 -0.1990784017
C  C109  1  0.90280000  0.97810000  0.17610000  1.0 0.1993696818
C  C110  1  0.87180000  0.93960000  0.17790000  1.0 -0.1812641538
C  C111  1  0.89660000  0.90460000  0.17650000  1.0 -0.189363151
C  C112  1  0.94230000  0.91610000  0.17525000  1.0 0.1625914357
C  C113  1  0.97760000  0.88840000  0.17550000  1.0 -0.0935976069
C  C114  1  0.96913000  0.83971000  0.17460000  1.0 0.0833832294
C  C115  1  0.97440000  0.81769000  0.13954000  1.0 -0.1597114878
C  C116  1  0.96580000  0.77273000  0.13719000  1.0 -0.100333968
C  C117  1  0.95190000  0.74979000  0.16991000  1.0 -0.1078849525
C  C118  1  0.94667000  0.77181000  0.20497000  1.0 -0.0631094359
C  C119  1  0.95528000  0.81677000  0.20732000  1.0 -0.138957973
C  C120  1  0.93310000  0.74670000  0.23910000  1.0 0.5825129954
C  C121  1  0.97180000  0.67420000  0.33340000  1.0 0.5336200677
C  C122  1  0.00690000  0.64790000  0.35200000  1.0 -0.0427239201
C  C123  1  0.01290000  0.60350000  0.34330000  1.0 -0.100333968
C  C124  1  0.04510000  0.57930000  0.36260000  1.0 -0.100333968
C  C125  1  0.07130000  0.59940000  0.39050000  1.0 -0.1306203288
C  C126  1  0.06530000  0.64380000  0.39920000  1.0 0.0886683702
C  C127  1  0.03310000  0.66800000  0.37998000  1.0 -0.138957973
C  C128  1  0.84250000  0.70520000  0.32810000  1.0 0.5556251489
C  C129  1  0.80140000  0.70240000  0.35070000  1.0 -0.0312732353
C  C130  1  0.77430000  0.66610000  0.34450000  1.0 -0.100333968
C  C131  1  0.73580000  0.66110000  0.36590000  1.0 -0.100333968
C  C132  1  0.72430000  0.69240000  0.39350000  1.0 -0.1306203288
C  C133  1  0.75130000  0.72880000  0.39975000  1.0 0.0833832294
C  C134  1  0.78990000  0.73374000  0.37840000  1.0 -0.138957973
C  C135  1  0.76530000  0.71000000  0.48260000  1.0 -0.1597114878
C  C136  1  0.74470000  0.75020000  0.46790000  1.0 0.1758105856
C  C137  1  0.73790000  0.76280000  0.42870000  1.0 -0.0935976069
C  C138  1  0.72100000  0.80300000  0.41740000  1.0 0.193314486
C  C139  1  0.70770000  0.81410000  0.37610000  1.0 -0.1506759559
C  C140  1  0.69020000  0.85270000  0.37690000  1.0 -0.1506759559
C  C141  1  0.68170000  0.86540000  0.41790000  1.0 0.1687858913
C  C142  1  0.66780000  0.90530000  0.42930000  1.0 -0.0723737052
C  C143  1  0.65890000  0.91980000  0.46770000  1.0 0.1625914357
C  C144  1  0.63980000  0.95840000  0.47980000  1.0 -0.1990784017
C  C145  1  0.47810000  0.40280000  0.32390000  1.0 0.1993696818
C  C146  1  0.43960000  0.37180000  0.32210000  1.0 -0.1812641538
C  C147  1  0.40460000  0.39660000  0.32350000  1.0 -0.189363151
C  C148  1  0.41610000  0.44230000  0.32475000  1.0 0.1625914357
C  C149  1  0.38840000  0.47760000  0.32450000  1.0 -0.0935976069
C  C150  1  0.33971000  0.46913000  0.32540000  1.0 0.0833832294
C  C151  1  0.31769000  0.47440000  0.36046000  1.0 -0.1597114878
C  C152  1  0.27273000  0.46580000  0.36281000  1.0 -0.100333968
C  C153  1  0.24979000  0.45190000  0.33009000  1.0 -0.1078849525
C  C154  1  0.27181000  0.44667000  0.29503000  1.0 -0.0631094359
C  C155  1  0.31677000  0.45528000  0.29268000  1.0 -0.138957973
C  C156  1  0.24670000  0.43310000  0.26090000  1.0 0.5825129954
C  C157  1  0.17420000  0.47180000  0.16660000  1.0 0.5336200677
C  C158  1  0.14790000  0.50690000  0.14800000  1.0 -0.0427239201
C  C159  1  0.10350000  0.51290000  0.15670000  1.0 -0.100333968
C  C160  1  0.07930000  0.54510000  0.13740000  1.0 -0.100333968
C  C161  1  0.09940000  0.57130000  0.10950000  1.0 -0.1306203288
C  C162  1  0.14380000  0.56530000  0.10080000  1.0 0.0886683702
C  C163  1  0.16800000  0.53310000  0.12002000  1.0 -0.138957973
C  C164  1  0.20520000  0.34250000  0.17190000  1.0 0.554760313
C  C165  1  0.20240000  0.30140000  0.14930000  1.0 -0.0312732353
C  C166  1  0.16610000  0.27430000  0.15550000  1.0 -0.100333968
C  C167  1  0.16110000  0.23580000  0.13410000  1.0 -0.100333968
C  C168  1  0.19240000  0.22430000  0.10650000  1.0 -0.1306203288
C  C169  1  0.22880000  0.25130000  0.10025000  1.0 0.0833832294
C  C170  1  0.23374000  0.28990000  0.12160000  1.0 -0.138957973
C  C171  1  0.21000000  0.26530000  0.01740000  1.0 -0.1597114878
C  C172  1  0.25020000  0.24470000  0.03210000  1.0 0.1758105856
C  C173  1  0.26280000  0.23790000  0.07130000  1.0 -0.0935976069
C  C174  1  0.30300000  0.22100000  0.08260000  1.0 0.193314486
C  C175  1  0.31410000  0.20770000  0.12390000  1.0 -0.1506759559
C  C176  1  0.35270000  0.19020000  0.12310000  1.0 -0.1506759559
C  C177  1  0.36540000  0.18170000  0.08210000  1.0 0.1687858913
C  C178  1  0.40530000  0.16780000  0.07070000  1.0 -0.0723737052
C  C179  1  0.41980000  0.15890000  0.03230000  1.0 0.1625914357
C  C180  1  0.45840000  0.13980000  0.02020000  1.0 -0.1990784017
C  C181  1  0.52190000  0.59720000  0.32390000  1.0 0.1993696818
C  C182  1  0.56040000  0.62820000  0.32210000  1.0 -0.1812641538
C  C183  1  0.59540000  0.60340000  0.32350000  1.0 -0.189363151
C  C184  1  0.58390000  0.55770000  0.32475000  1.0 0.1625914357
C  C185  1  0.61160000  0.52240000  0.32450000  1.0 -0.0935976069
C  C186  1  0.66029000  0.53087000  0.32540000  1.0 0.0833832294
C  C187  1  0.68231000  0.52560000  0.36046000  1.0 -0.1597114878
C  C188  1  0.72727000  0.53420000  0.36281000  1.0 -0.100333968
C  C189  1  0.75021000  0.54810000  0.33009000  1.0 -0.1078849525
C  C190  1  0.72819000  0.55333000  0.29503000  1.0 -0.0631094359
C  C191  1  0.68323000  0.54472000  0.29268000  1.0 -0.138957973
C  C192  1  0.75330000  0.56690000  0.26090000  1.0 0.5825129954
C  C193  1  0.82580000  0.52820000  0.16660000  1.0 0.5336200677
C  C194  1  0.85210000  0.49310000  0.14800000  1.0 -0.0456854689
C  C195  1  0.89650000  0.48710000  0.15670000  1.0 -0.100333968
C  C196  1  0.92070000  0.45490000  0.13740000  1.0 -0.100333968
C  C197  1  0.90060000  0.42870000  0.10950000  1.0 -0.1306203288
C  C198  1  0.85620000  0.43470000  0.10080000  1.0 0.0886683702
C  C199  1  0.83200000  0.46690000  0.12002000  1.0 -0.1306203288
C  C200  1  0.79480000  0.65750000  0.17190000  1.0 0.5556251489
C  C201  1  0.79760000  0.69860000  0.14930000  1.0 -0.0312732353
C  C202  1  0.83390000  0.72570000  0.15550000  1.0 -0.100333968
C  C203  1  0.83890000  0.76420000  0.13410000  1.0 -0.100333968
C  C204  1  0.80760000  0.77570000  0.10650000  1.0 -0.1306203288
C  C205  1  0.77120000  0.74870000  0.10025000  1.0 0.0833832294
C  C206  1  0.76626000  0.71010000  0.12160000  1.0 -0.138957973
C  C207  1  0.79000000  0.73470000  0.01740000  1.0 -0.1597114878
C  C208  1  0.74980000  0.75530000  0.03210000  1.0 0.1758105856
C  C209  1  0.73720000  0.76210000  0.07130000  1.0 -0.0935976069
C  C210  1  0.69700000  0.77900000  0.08260000  1.0 0.193314486
C  C211  1  0.68590000  0.79230000  0.12390000  1.0 -0.1506759559
C  C212  1  0.64730000  0.80980000  0.12310000  1.0 -0.1506759559
C  C213  1  0.63460000  0.81830000  0.08210000  1.0 0.1687858913
C  C214  1  0.59470000  0.83220000  0.07070000  1.0 -0.0723737052
C  C215  1  0.58020000  0.84110000  0.03230000  1.0 0.1625914357
C  C216  1  0.54160000  0.86020000  0.02020000  1.0 -0.1990784017
C  C217  1  0.40280000  0.52190000  0.32390000  1.0 0.1993696818
C  C218  1  0.37180000  0.56040000  0.32210000  1.0 -0.1812641538
C  C219  1  0.39660000  0.59540000  0.32350000  1.0 -0.189363151
C  C220  1  0.44230000  0.58390000  0.32475000  1.0 0.1625914357
C  C221  1  0.47760000  0.61160000  0.32450000  1.0 -0.0935976069
C  C222  1  0.46913000  0.66029000  0.32540000  1.0 0.0833832294
C  C223  1  0.47440000  0.68231000  0.36046000  1.0 -0.1597114878
C  C224  1  0.46580000  0.72727000  0.36281000  1.0 -0.100333968
C  C225  1  0.45190000  0.75021000  0.33009000  1.0 -0.1078849525
C  C226  1  0.44667000  0.72819000  0.29503000  1.0 -0.0631094359
C  C227  1  0.45528000  0.68323000  0.29268000  1.0 -0.138957973
C  C228  1  0.43310000  0.75330000  0.26090000  1.0 0.5825129954
C  C229  1  0.47180000  0.82580000  0.16660000  1.0 0.5336200677
C  C230  1  0.50690000  0.85210000  0.14800000  1.0 -0.0456854689
C  C231  1  0.51290000  0.89650000  0.15670000  1.0 -0.100333968
C  C232  1  0.54510000  0.92070000  0.13740000  1.0 -0.100333968
C  C233  1  0.57130000  0.90060000  0.10950000  1.0 -0.1306203288
C  C234  1  0.56530000  0.85620000  0.10080000  1.0 0.0886683702
C  C235  1  0.53310000  0.83200000  0.12002000  1.0 -0.1306203288
C  C236  1  0.34250000  0.79480000  0.17190000  1.0 0.554760313
C  C237  1  0.30140000  0.79760000  0.14930000  1.0 -0.0312732353
C  C238  1  0.27430000  0.83390000  0.15550000  1.0 -0.100333968
C  C239  1  0.23580000  0.83890000  0.13410000  1.0 -0.100333968
C  C240  1  0.22430000  0.80760000  0.10650000  1.0 -0.1306203288
C  C241  1  0.25130000  0.77120000  0.10025000  1.0 0.0833832294
C  C242  1  0.28990000  0.76626000  0.12160000  1.0 -0.138957973
C  C243  1  0.26530000  0.79000000  0.01740000  1.0 -0.1597114878
C  C244  1  0.24470000  0.74980000  0.03210000  1.0 0.1758105856
C  C245  1  0.23790000  0.73720000  0.07130000  1.0 -0.0935976069
C  C246  1  0.22100000  0.69700000  0.08260000  1.0 0.193314486
C  C247  1  0.20770000  0.68590000  0.12390000  1.0 -0.1506759559
C  C248  1  0.19020000  0.64730000  0.12310000  1.0 -0.1506759559
C  C249  1  0.18170000  0.63460000  0.08210000  1.0 0.1687858913
C  C250  1  0.16780000  0.59470000  0.07070000  1.0 -0.0723737052
C  C251  1  0.15890000  0.58020000  0.03230000  1.0 0.1625914357
C  C252  1  0.13980000  0.54160000  0.02020000  1.0 -0.1990784017
C  C253  1  0.59720000  0.47810000  0.32390000  1.0 0.1993696818
C  C254  1  0.62820000  0.43960000  0.32210000  1.0 -0.1812641538
C  C255  1  0.60340000  0.40460000  0.32350000  1.0 -0.189363151
C  C256  1  0.55770000  0.41610000  0.32475000  1.0 0.1625914357
C  C257  1  0.52240000  0.38840000  0.32450000  1.0 -0.0935976069
C  C258  1  0.53087000  0.33971000  0.32540000  1.0 0.0833832294
C  C259  1  0.52560000  0.31769000  0.36046000  1.0 -0.1597114878
C  C260  1  0.53420000  0.27273000  0.36281000  1.0 -0.100333968
C  C261  1  0.54810000  0.24979000  0.33009000  1.0 -0.1078849525
C  C262  1  0.55333000  0.27181000  0.29503000  1.0 -0.0631094359
C  C263  1  0.54472000  0.31677000  0.29268000  1.0 -0.138957973
C  C264  1  0.56690000  0.24670000  0.26090000  1.0 0.5825129954
C  C265  1  0.52820000  0.17420000  0.16660000  1.0 0.5336200677
C  C266  1  0.49310000  0.14790000  0.14800000  1.0 -0.0427239201
C  C267  1  0.48710000  0.10350000  0.15670000  1.0 -0.100333968
C  C268  1  0.45490000  0.07930000  0.13740000  1.0 -0.100333968
C  C269  1  0.42870000  0.09940000  0.10950000  1.0 -0.1306203288
C  C270  1  0.43470000  0.14380000  0.10080000  1.0 0.0886683702
C  C271  1  0.46690000  0.16800000  0.12002000  1.0 -0.138957973
C  C272  1  0.65750000  0.20520000  0.17190000  1.0 0.554760313
C  C273  1  0.69860000  0.20240000  0.14930000  1.0 -0.0312732353
C  C274  1  0.72570000  0.16610000  0.15550000  1.0 -0.100333968
C  C275  1  0.76420000  0.16110000  0.13410000  1.0 -0.100333968
C  C276  1  0.77570000  0.19240000  0.10650000  1.0 -0.1306203288
C  C277  1  0.74870000  0.22880000  0.10025000  1.0 0.0833832294
C  C278  1  0.71010000  0.23374000  0.12160000  1.0 -0.138957973
C  C279  1  0.73470000  0.21000000  0.01740000  1.0 -0.1597114878
C  C280  1  0.75530000  0.25020000  0.03210000  1.0 0.1758105856
C  C281  1  0.76210000  0.26280000  0.07130000  1.0 -0.0935976069
C  C282  1  0.77900000  0.30300000  0.08260000  1.0 0.193314486
C  C283  1  0.79230000  0.31410000  0.12390000  1.0 -0.1506759559
C  C284  1  0.80980000  0.35270000  0.12310000  1.0 -0.1506759559
C  C285  1  0.81830000  0.36540000  0.08210000  1.0 0.1687858913
C  C286  1  0.83220000  0.40530000  0.07070000  1.0 -0.0723737052
C  C287  1  0.84110000  0.41980000  0.03230000  1.0 0.1625914357
C  C288  1  0.86020000  0.45840000  0.02020000  1.0 -0.1990784017
C  C289  1  0.97810000  0.09720000  0.82390000  1.0 0.1993696818
C  C290  1  0.93960000  0.12820000  0.82210000  1.0 -0.1812641538
C  C291  1  0.90460000  0.10340000  0.82350000  1.0 -0.189363151
C  C292  1  0.91610000  0.05770000  0.82475000  1.0 0.1625914357
C  C293  1  0.88840000  0.02240000  0.82450000  1.0 -0.0935976069
C  C294  1  0.83971000  0.03087000  0.82540000  1.0 0.0833832294
C  C295  1  0.81769000  0.02560000  0.86046000  1.0 -0.1597114878
C  C296  1  0.77273000  0.03420000  0.86281000  1.0 -0.100333968
C  C297  1  0.74979000  0.04810000  0.83009000  1.0 -0.1078849525
C  C298  1  0.77181000  0.05333000  0.79503000  1.0 -0.0631094359
C  C299  1  0.81677000  0.04472000  0.79268000  1.0 -0.138957973
C  C300  1  0.74670000  0.06690000  0.76090000  1.0 0.5825129954
C  C301  1  0.67420000  0.02820000  0.66666667  1.0 0.5336200677
C  C302  1  0.64790000  0.99310000  0.64800000  1.0 -0.0456854689
C  C303  1  0.60350000  0.98710000  0.65670000  1.0 -0.100333968
C  C304  1  0.57930000  0.95490000  0.63740000  1.0 -0.100333968
C  C305  1  0.59940000  0.92870000  0.60950000  1.0 -0.1306203288
C  C306  1  0.64380000  0.93470000  0.60080000  1.0 0.0886683702
C  C307  1  0.66800000  0.96690000  0.62002000  1.0 -0.138957973
C  C308  1  0.70520000  0.15750000  0.67190000  1.0 0.554760313
C  C309  1  0.70240000  0.19860000  0.64930000  1.0 -0.0312732353
C  C310  1  0.66610000  0.22570000  0.65550000  1.0 -0.100333968
C  C311  1  0.66110000  0.26420000  0.63410000  1.0 -0.100333968
C  C312  1  0.69240000  0.27570000  0.60650000  1.0 -0.1306203288
C  C313  1  0.72880000  0.24870000  0.60025000  1.0 0.0833832294
C  C314  1  0.73374000  0.21010000  0.62160000  1.0 -0.138957973
C  C315  1  0.71000000  0.23470000  0.51740000  1.0 -0.1597114878
C  C316  1  0.75020000  0.25530000  0.53210000  1.0 0.1758105856
C  C317  1  0.76280000  0.26210000  0.57130000  1.0 -0.0935976069
C  C318  1  0.80300000  0.27900000  0.58260000  1.0 0.193314486
C  C319  1  0.81410000  0.29230000  0.62390000  1.0 -0.1506759559
C  C320  1  0.85270000  0.30980000  0.62310000  1.0 -0.1506759559
C  C321  1  0.86540000  0.31830000  0.58210000  1.0 0.1687858913
C  C322  1  0.90530000  0.33220000  0.57070000  1.0 -0.0723737052
C  C323  1  0.91980000  0.34110000  0.53230000  1.0 0.1625914357
C  C324  1  0.95840000  0.36020000  0.52020000  1.0 -0.1990784017
C  C325  1  0.02190000  0.90280000  0.82390000  1.0 0.1993696818
C  C326  1  0.06040000  0.87180000  0.82210000  1.0 -0.1812641538
C  C327  1  0.09540000  0.89660000  0.82350000  1.0 -0.189363151
C  C328  1  0.08390000  0.94230000  0.82475000  1.0 0.1625914357
C  C329  1  0.11160000  0.97760000  0.82450000  1.0 -0.0935976069
C  C330  1  0.16029000  0.96913000  0.82540000  1.0 0.0833832294
C  C331  1  0.18231000  0.97440000  0.86046000  1.0 -0.1597114878
C  C332  1  0.22727000  0.96580000  0.86281000  1.0 -0.100333968
C  C333  1  0.25021000  0.95190000  0.83009000  1.0 -0.1078849525
C  C334  1  0.22819000  0.94667000  0.79503000  1.0 -0.0631094359
C  C335  1  0.18323000  0.95528000  0.79268000  1.0 -0.138957973
C  C336  1  0.25330000  0.93310000  0.76090000  1.0 0.5825129954
C  C337  1  0.32580000  0.97180000  0.66666667  1.0 0.5336200677
C  C338  1  0.35210000  0.00690000  0.64800000  1.0 -0.0427239201
C  C339  1  0.39650000  0.01290000  0.65670000  1.0 -0.100333968
C  C340  1  0.42070000  0.04510000  0.63740000  1.0 -0.100333968
C  C341  1  0.40060000  0.07130000  0.60950000  1.0 -0.1306203288
C  C342  1  0.35620000  0.06530000  0.60080000  1.0 0.0833832294
C  C343  1  0.33200000  0.03310000  0.62002000  1.0 -0.138957973
C  C344  1  0.29480000  0.84250000  0.67190000  1.0 0.554760313
C  C345  1  0.29760000  0.80140000  0.64930000  1.0 -0.0312732353
C  C346  1  0.33390000  0.77430000  0.65550000  1.0 -0.100333968
C  C347  1  0.33890000  0.73580000  0.63410000  1.0 -0.100333968
C  C348  1  0.30760000  0.72430000  0.60650000  1.0 -0.1306203288
C  C349  1  0.27120000  0.75130000  0.60025000  1.0 0.0833832294
C  C350  1  0.26626000  0.78990000  0.62160000  1.0 -0.138957973
C  C351  1  0.29000000  0.76530000  0.51740000  1.0 -0.1597114878
C  C352  1  0.24980000  0.74470000  0.53210000  1.0 0.1758105856
C  C353  1  0.23720000  0.73790000  0.57130000  1.0 -0.0935976069
C  C354  1  0.19700000  0.72100000  0.58260000  1.0 0.193314486
C  C355  1  0.18590000  0.70770000  0.62390000  1.0 -0.1506759559
C  C356  1  0.14730000  0.69020000  0.62310000  1.0 -0.1506759559
C  C357  1  0.13460000  0.68170000  0.58210000  1.0 0.1687858913
C  C358  1  0.09470000  0.66780000  0.57070000  1.0 -0.0723737052
C  C359  1  0.08020000  0.65890000  0.53230000  1.0 0.1625914357
C  C360  1  0.04160000  0.63980000  0.52020000  1.0 -0.1990784017
C  C361  1  0.90280000  0.97810000  0.82390000  1.0 0.1993696818
C  C362  1  0.87180000  0.93960000  0.82210000  1.0 -0.1812641538
C  C363  1  0.89660000  0.90460000  0.82350000  1.0 -0.189363151
C  C364  1  0.94230000  0.91610000  0.82475000  1.0 0.1625914357
C  C365  1  0.97760000  0.88840000  0.82450000  1.0 -0.0935976069
C  C366  1  0.96913000  0.83971000  0.82540000  1.0 0.0833832294
C  C367  1  0.97440000  0.81769000  0.86046000  1.0 -0.1597114878
C  C368  1  0.96580000  0.77273000  0.86281000  1.0 -0.100333968
C  C369  1  0.95190000  0.74979000  0.83009000  1.0 -0.1078849525
C  C370  1  0.94667000  0.77181000  0.79503000  1.0 -0.0631094359
C  C371  1  0.95528000  0.81677000  0.79268000  1.0 -0.138957973
C  C372  1  0.93310000  0.74670000  0.76090000  1.0 0.5825129954
C  C373  1  0.97180000  0.67420000  0.66666667  1.0 0.5358890377
C  C374  1  0.00690000  0.64790000  0.64800000  1.0 -0.0456854689
C  C375  1  0.01290000  0.60350000  0.65670000  1.0 -0.100333968
C  C376  1  0.04510000  0.57930000  0.63740000  1.0 -0.100333968
C  C377  1  0.07130000  0.59940000  0.60950000  1.0 -0.1306203288
C  C378  1  0.06530000  0.64380000  0.60080000  1.0 0.0886683702
C  C379  1  0.03310000  0.66800000  0.62002000  1.0 -0.138957973
C  C380  1  0.84250000  0.70520000  0.67190000  1.0 0.554760313
C  C381  1  0.80140000  0.70240000  0.64930000  1.0 -0.0312732353
C  C382  1  0.77430000  0.66610000  0.65550000  1.0 -0.100333968
C  C383  1  0.73580000  0.66110000  0.63410000  1.0 -0.100333968
C  C384  1  0.72430000  0.69240000  0.60650000  1.0 -0.1306203288
C  C385  1  0.75130000  0.72880000  0.60025000  1.0 0.0833832294
C  C386  1  0.78990000  0.73374000  0.62160000  1.0 -0.138957973
C  C387  1  0.76530000  0.71000000  0.51740000  1.0 -0.1597114878
C  C388  1  0.74470000  0.75020000  0.53210000  1.0 0.1758105856
C  C389  1  0.73790000  0.76280000  0.57130000  1.0 -0.0935976069
C  C390  1  0.72100000  0.80300000  0.58260000  1.0 0.193314486
C  C391  1  0.70770000  0.81410000  0.62390000  1.0 -0.1506759559
C  C392  1  0.69020000  0.85270000  0.62310000  1.0 -0.1506759559
C  C393  1  0.68170000  0.86540000  0.58210000  1.0 0.1687858913
C  C394  1  0.66780000  0.90530000  0.57070000  1.0 -0.0723737052
C  C395  1  0.65890000  0.91980000  0.53230000  1.0 0.1625914357
C  C396  1  0.63980000  0.95840000  0.52020000  1.0 -0.1990784017
C  C397  1  0.09720000  0.02190000  0.82390000  1.0 0.1993696818
C  C398  1  0.12820000  0.06040000  0.82210000  1.0 -0.1812641538
C  C399  1  0.10340000  0.09540000  0.82350000  1.0 -0.189363151
C  C400  1  0.05770000  0.08390000  0.82475000  1.0 0.1625914357
C  C401  1  0.02240000  0.11160000  0.82450000  1.0 -0.0935976069
C  C402  1  0.03087000  0.16029000  0.82540000  1.0 0.0833832294
C  C403  1  0.02560000  0.18231000  0.86046000  1.0 -0.1597114878
C  C404  1  0.03420000  0.22727000  0.86281000  1.0 -0.100333968
C  C405  1  0.04810000  0.25021000  0.83009000  1.0 -0.1078849525
C  C406  1  0.05333000  0.22819000  0.79503000  1.0 -0.0631094359
C  C407  1  0.04472000  0.18323000  0.79268000  1.0 -0.138957973
C  C408  1  0.06690000  0.25330000  0.76090000  1.0 0.5825129954
C  C409  1  0.02820000  0.32580000  0.66666667  1.0 0.5336200677
C  C410  1  0.99310000  0.35210000  0.64800000  1.0 -0.0427239201
C  C411  1  0.98710000  0.39650000  0.65670000  1.0 -0.100333968
C  C412  1  0.95490000  0.42070000  0.63740000  1.0 -0.100333968
C  C413  1  0.92870000  0.40060000  0.60950000  1.0 -0.1306203288
C  C414  1  0.93470000  0.35620000  0.60080000  1.0 0.0833832294
C  C415  1  0.96690000  0.33200000  0.62002000  1.0 -0.138957973
C  C416  1  0.15750000  0.29480000  0.67190000  1.0 0.554760313
C  C417  1  0.19860000  0.29760000  0.64930000  1.0 -0.0312732353
C  C418  1  0.22570000  0.33390000  0.65550000  1.0 -0.100333968
C  C419  1  0.26420000  0.33890000  0.63410000  1.0 -0.100333968
C  C420  1  0.27570000  0.30760000  0.60650000  1.0 -0.1306203288
C  C421  1  0.24870000  0.27120000  0.60025000  1.0 0.0833832294
C  C422  1  0.21010000  0.26626000  0.62160000  1.0 -0.138957973
C  C423  1  0.23470000  0.29000000  0.51740000  1.0 -0.1597114878
C  C424  1  0.25530000  0.24980000  0.53210000  1.0 0.1758105856
C  C425  1  0.26210000  0.23720000  0.57130000  1.0 -0.0935976069
C  C426  1  0.27900000  0.19700000  0.58260000  1.0 0.193314486
C  C427  1  0.29230000  0.18590000  0.62390000  1.0 -0.1506759559
C  C428  1  0.30980000  0.14730000  0.62310000  1.0 -0.1506759559
C  C429  1  0.31830000  0.13460000  0.58210000  1.0 0.1687858913
C  C430  1  0.33220000  0.09470000  0.57070000  1.0 -0.0723737052
C  C431  1  0.34110000  0.08020000  0.53230000  1.0 0.1625914357
C  C432  1  0.36020000  0.04160000  0.52020000  1.0 -0.1990784017
C  C433  1  0.52190000  0.59720000  0.67610000  1.0 0.1993696818
C  C434  1  0.56040000  0.62820000  0.67790000  1.0 -0.1812641538
C  C435  1  0.59540000  0.60340000  0.67650000  1.0 -0.189363151
C  C436  1  0.58390000  0.55770000  0.67525000  1.0 0.1625914357
C  C437  1  0.61160000  0.52240000  0.67550000  1.0 -0.0935976069
C  C438  1  0.66029000  0.53087000  0.67460000  1.0 0.0833832294
C  C439  1  0.68231000  0.52560000  0.63954000  1.0 -0.1597114878
C  C440  1  0.72727000  0.53420000  0.63719000  1.0 -0.100333968
C  C441  1  0.75021000  0.54810000  0.66991000  1.0 -0.1078849525
C  C442  1  0.72819000  0.55333000  0.70497000  1.0 -0.0631094359
C  C443  1  0.68323000  0.54472000  0.70732000  1.0 -0.138957973
C  C444  1  0.75330000  0.56690000  0.73910000  1.0 0.5825129954
C  C445  1  0.82580000  0.52820000  0.83340000  1.0 0.5336200677
C  C446  1  0.85210000  0.49310000  0.85200000  1.0 -0.0427239201
C  C447  1  0.89650000  0.48710000  0.84330000  1.0 -0.100333968
C  C448  1  0.92070000  0.45490000  0.86260000  1.0 -0.100333968
C  C449  1  0.90060000  0.42870000  0.89050000  1.0 -0.1306203288
C  C450  1  0.85620000  0.43470000  0.89920000  1.0 0.0886683702
C  C451  1  0.83200000  0.46690000  0.87998000  1.0 -0.138957973
C  C452  1  0.79480000  0.65750000  0.82810000  1.0 0.554760313
C  C453  1  0.79760000  0.69860000  0.85070000  1.0 -0.0312732353
C  C454  1  0.83390000  0.72570000  0.84450000  1.0 -0.100333968
C  C455  1  0.83890000  0.76420000  0.86590000  1.0 -0.100333968
C  C456  1  0.80760000  0.77570000  0.89350000  1.0 -0.1306203288
C  C457  1  0.77120000  0.74870000  0.89975000  1.0 0.0886683702
C  C458  1  0.76626000  0.71010000  0.87840000  1.0 -0.138957973
C  C459  1  0.79000000  0.73470000  0.98260000  1.0 -0.1597114878
C  C460  1  0.74980000  0.75530000  0.96790000  1.0 0.1758105856
C  C461  1  0.73720000  0.76210000  0.92870000  1.0 -0.0935976069
C  C462  1  0.69700000  0.77900000  0.91740000  1.0 0.193314486
C  C463  1  0.68590000  0.79230000  0.87610000  1.0 -0.1506759559
C  C464  1  0.64730000  0.80980000  0.87690000  1.0 -0.1506759559
C  C465  1  0.63460000  0.81830000  0.91790000  1.0 0.1687858913
C  C466  1  0.59470000  0.83220000  0.92930000  1.0 -0.0723737052
C  C467  1  0.58020000  0.84110000  0.96770000  1.0 0.1625914357
C  C468  1  0.54160000  0.86020000  0.97980000  1.0 -0.1990784017
C  C469  1  0.47810000  0.40280000  0.67610000  1.0 0.1993696818
C  C470  1  0.43960000  0.37180000  0.67790000  1.0 -0.1812641538
C  C471  1  0.40460000  0.39660000  0.67650000  1.0 -0.189363151
C  C472  1  0.41610000  0.44230000  0.67525000  1.0 0.1625914357
C  C473  1  0.38840000  0.47760000  0.67550000  1.0 -0.0935976069
C  C474  1  0.33971000  0.46913000  0.67460000  1.0 0.0833832294
C  C475  1  0.31769000  0.47440000  0.63954000  1.0 -0.1597114878
C  C476  1  0.27273000  0.46580000  0.63719000  1.0 -0.100333968
C  C477  1  0.24979000  0.45190000  0.66991000  1.0 -0.1078849525
C  C478  1  0.27181000  0.44667000  0.70497000  1.0 -0.0631094359
C  C479  1  0.31677000  0.45528000  0.70732000  1.0 -0.138957973
C  C480  1  0.24670000  0.43310000  0.73910000  1.0 0.5825129954
C  C481  1  0.17420000  0.47180000  0.83340000  1.0 0.5336200677
C  C482  1  0.14790000  0.50690000  0.85200000  1.0 -0.0427239201
C  C483  1  0.10350000  0.51290000  0.84330000  1.0 -0.100333968
C  C484  1  0.07930000  0.54510000  0.86260000  1.0 -0.100333968
C  C485  1  0.09940000  0.57130000  0.89050000  1.0 -0.1306203288
C  C486  1  0.14380000  0.56530000  0.89920000  1.0 0.0886683702
C  C487  1  0.16800000  0.53310000  0.87998000  1.0 -0.138957973
C  C488  1  0.20520000  0.34250000  0.82810000  1.0 0.554760313
C  C489  1  0.20240000  0.30140000  0.85070000  1.0 -0.0312732353
C  C490  1  0.16610000  0.27430000  0.84450000  1.0 -0.100333968
C  C491  1  0.16110000  0.23580000  0.86590000  1.0 -0.100333968
C  C492  1  0.19240000  0.22430000  0.89350000  1.0 -0.1306203288
C  C493  1  0.22880000  0.25130000  0.89975000  1.0 0.0833832294
C  C494  1  0.23374000  0.28990000  0.87840000  1.0 -0.138957973
C  C495  1  0.21000000  0.26530000  0.98260000  1.0 -0.1597114878
C  C496  1  0.25020000  0.24470000  0.96790000  1.0 0.1758105856
C  C497  1  0.26280000  0.23790000  0.92870000  1.0 -0.0935976069
C  C498  1  0.30300000  0.22100000  0.91740000  1.0 0.193314486
C  C499  1  0.31410000  0.20770000  0.87610000  1.0 -0.1506759559
C  C500  1  0.35270000  0.19020000  0.87690000  1.0 -0.1506759559
C  C501  1  0.36540000  0.18170000  0.91790000  1.0 0.1687858913
C  C502  1  0.40530000  0.16780000  0.92930000  1.0 -0.0723737052
C  C503  1  0.41980000  0.15890000  0.96770000  1.0 0.1625914357
C  C504  1  0.45840000  0.13980000  0.97980000  1.0 -0.1990784017
C  C505  1  0.59720000  0.47810000  0.67610000  1.0 0.1993696818
C  C506  1  0.62820000  0.43960000  0.67790000  1.0 -0.1812641538
C  C507  1  0.60340000  0.40460000  0.67650000  1.0 -0.189363151
C  C508  1  0.55770000  0.41610000  0.67525000  1.0 0.1625914357
C  C509  1  0.52240000  0.38840000  0.67550000  1.0 -0.0935976069
C  C510  1  0.53087000  0.33971000  0.67460000  1.0 0.0833832294
C  C511  1  0.52560000  0.31769000  0.63954000  1.0 -0.1597114878
C  C512  1  0.53420000  0.27273000  0.63719000  1.0 -0.100333968
C  C513  1  0.54810000  0.24979000  0.66991000  1.0 -0.1078849525
C  C514  1  0.55333000  0.27181000  0.70497000  1.0 -0.0631094359
C  C515  1  0.54472000  0.31677000  0.70732000  1.0 -0.138957973
C  C516  1  0.56690000  0.24670000  0.73910000  1.0 0.5825129954
C  C517  1  0.52820000  0.17420000  0.83340000  1.0 0.5336200677
C  C518  1  0.49310000  0.14790000  0.85200000  1.0 -0.0427239201
C  C519  1  0.48710000  0.10350000  0.84330000  1.0 -0.100333968
C  C520  1  0.45490000  0.07930000  0.86260000  1.0 -0.100333968
C  C521  1  0.42870000  0.09940000  0.89050000  1.0 -0.1306203288
C  C522  1  0.43470000  0.14380000  0.89920000  1.0 0.0886683702
C  C523  1  0.46690000  0.16800000  0.87998000  1.0 -0.138957973
C  C524  1  0.65750000  0.20520000  0.82810000  1.0 0.554760313
C  C525  1  0.69860000  0.20240000  0.85070000  1.0 -0.0312732353
C  C526  1  0.72570000  0.16610000  0.84450000  1.0 -0.100333968
C  C527  1  0.76420000  0.16110000  0.86590000  1.0 -0.100333968
C  C528  1  0.77570000  0.19240000  0.89350000  1.0 -0.1306203288
C  C529  1  0.74870000  0.22880000  0.89975000  1.0 0.0833832294
C  C530  1  0.71010000  0.23374000  0.87840000  1.0 -0.138957973
C  C531  1  0.73470000  0.21000000  0.98260000  1.0 -0.1597114878
C  C532  1  0.75530000  0.25020000  0.96790000  1.0 0.1758105856
C  C533  1  0.76210000  0.26280000  0.92870000  1.0 -0.0935976069
C  C534  1  0.77900000  0.30300000  0.91740000  1.0 0.193314486
C  C535  1  0.79230000  0.31410000  0.87610000  1.0 -0.1506759559
C  C536  1  0.80980000  0.35270000  0.87690000  1.0 -0.1506759559
C  C537  1  0.81830000  0.36540000  0.91790000  1.0 0.1687858913
C  C538  1  0.83220000  0.40530000  0.92930000  1.0 -0.0723737052
C  C539  1  0.84110000  0.41980000  0.96770000  1.0 0.1625914357
C  C540  1  0.86020000  0.45840000  0.97980000  1.0 -0.1990784017
C  C541  1  0.40280000  0.52190000  0.67610000  1.0 0.1993696818
C  C542  1  0.37180000  0.56040000  0.67790000  1.0 -0.1812641538
C  C543  1  0.39660000  0.59540000  0.67650000  1.0 -0.189363151
C  C544  1  0.44230000  0.58390000  0.67525000  1.0 0.1625914357
C  C545  1  0.47760000  0.61160000  0.67550000  1.0 -0.0935976069
C  C546  1  0.46913000  0.66029000  0.67460000  1.0 0.0833832294
C  C547  1  0.47440000  0.68231000  0.63954000  1.0 -0.1597114878
C  C548  1  0.46580000  0.72727000  0.63719000  1.0 -0.100333968
C  C549  1  0.45190000  0.75021000  0.66991000  1.0 -0.1078849525
C  C550  1  0.44667000  0.72819000  0.70497000  1.0 -0.0631094359
C  C551  1  0.45528000  0.68323000  0.70732000  1.0 -0.138957973
C  C552  1  0.43310000  0.75330000  0.73910000  1.0 0.5825129954
C  C553  1  0.47180000  0.82580000  0.83340000  1.0 0.5336200677
C  C554  1  0.50690000  0.85210000  0.85200000  1.0 -0.0427239201
C  C555  1  0.51290000  0.89650000  0.84330000  1.0 -0.100333968
C  C556  1  0.54510000  0.92070000  0.86260000  1.0 -0.100333968
C  C557  1  0.57130000  0.90060000  0.89050000  1.0 -0.1306203288
C  C558  1  0.56530000  0.85620000  0.89920000  1.0 0.0886683702
C  C559  1  0.53310000  0.83200000  0.87998000  1.0 -0.138957973
C  C560  1  0.34250000  0.79480000  0.82810000  1.0 0.554760313
C  C561  1  0.30140000  0.79760000  0.85070000  1.0 -0.0312732353
C  C562  1  0.27430000  0.83390000  0.84450000  1.0 -0.100333968
C  C563  1  0.23580000  0.83890000  0.86590000  1.0 -0.100333968
C  C564  1  0.22430000  0.80760000  0.89350000  1.0 -0.1306203288
C  C565  1  0.25130000  0.77120000  0.89975000  1.0 0.0833832294
C  C566  1  0.28990000  0.76626000  0.87840000  1.0 -0.138957973
C  C567  1  0.26530000  0.79000000  0.98260000  1.0 -0.1597114878
C  C568  1  0.24470000  0.74980000  0.96790000  1.0 0.1758105856
C  C569  1  0.23790000  0.73720000  0.92870000  1.0 -0.0935976069
C  C570  1  0.22100000  0.69700000  0.91740000  1.0 0.193314486
C  C571  1  0.20770000  0.68590000  0.87610000  1.0 -0.1506759559
C  C572  1  0.19020000  0.64730000  0.87690000  1.0 -0.1506759559
C  C573  1  0.18170000  0.63460000  0.91790000  1.0 0.1687858913
C  C574  1  0.16780000  0.59470000  0.92930000  1.0 -0.0723737052
C  C575  1  0.15890000  0.58020000  0.96770000  1.0 0.1625914357
C  C576  1  0.13980000  0.54160000  0.97980000  1.0 -0.1990784017
C  C577  1  0.00000000  0.00000000  0.02220000  1.0 0.001140361
C  C578  1  0.50000000  0.50000000  0.47780000  1.0 0.001140361
C  C579  1  0.00000000  0.00000000  0.97780000  1.0 0.001140361
C  C580  1  0.50000000  0.50000000  0.52220000  1.0 0.001140361
C  C581  1  0.20080000  0.95710000  0.41750000  0.45 0.0886683702
C  C582  1  0.20040000  0.95630000  0.45780000  0.45 -0.1812641538
C  C583  1  0.23740000  0.94190000  0.47806000  0.45 0.1022639998
C  C584  1  0.27470000  0.92810000  0.45800000  0.45 -0.1990784017
C  C585  1  0.27510000  0.92890000  0.41770000  0.45 0.0573710066
C  C586  1  0.79920000  0.04290000  0.41750000  0.45 0.0886683702
C  C587  1  0.79960000  0.04370000  0.45780000  0.45 -0.1812641538
C  C588  1  0.76260000  0.05810000  0.47806000  0.45 0.1022639998
C  C589  1  0.72530000  0.07190000  0.45800000  0.45 -0.1990784017
C  C590  1  0.72490000  0.07110000  0.41770000  0.45 0.0573710066
C  C591  1  0.04290000  0.20080000  0.41750000  0.45 0.0886683702
C  C592  1  0.04370000  0.20040000  0.45780000  0.45 -0.1812641538
C  C593  1  0.05810000  0.23740000  0.47806000  0.45 0.1022639998
C  C594  1  0.07190000  0.27470000  0.45800000  0.45 -0.1990784017
C  C595  1  0.07110000  0.27510000  0.41770000  0.45 0.0573710066
C  C596  1  0.95710000  0.79920000  0.41750000  0.45 0.0886683702
C  C597  1  0.95630000  0.79960000  0.45780000  0.45 -0.1812641538
C  C598  1  0.94190000  0.76260000  0.47806000  0.45 0.1022639998
C  C599  1  0.92810000  0.72530000  0.45800000  0.45 -0.1990784017
C  C600  1  0.92890000  0.72490000  0.41770000  0.45 0.0573710066
C  C601  1  0.29920000  0.45710000  0.08250000  0.45 0.0886683702
C  C602  1  0.29960000  0.45630000  0.04220000  0.45 -0.1812641538
C  C603  1  0.26260000  0.44190000  0.02194000  0.45 0.1022639998
C  C604  1  0.22530000  0.42810000  0.04200000  0.45 -0.1990784017
C  C605  1  0.22490000  0.42890000  0.08230000  0.45 0.0573710066
C  C606  1  0.70080000  0.54290000  0.08250000  0.45 0.0886683702
C  C607  1  0.70040000  0.54370000  0.04220000  0.45 -0.1812641538
C  C608  1  0.73740000  0.55810000  0.02194000  0.45 0.1022639998
C  C609  1  0.77470000  0.57190000  0.04200000  0.45 -0.1990784017
C  C610  1  0.77510000  0.57110000  0.08230000  0.45 0.0573710066
C  C611  1  0.45710000  0.70080000  0.08250000  0.45 0.0886683702
C  C612  1  0.45630000  0.70040000  0.04220000  0.45 -0.1812641538
C  C613  1  0.44190000  0.73740000  0.02194000  0.45 0.1022639998
C  C614  1  0.42810000  0.77470000  0.04200000  0.45 -0.1990784017
C  C615  1  0.42890000  0.77510000  0.08230000  0.45 0.0573710066
C  C616  1  0.54290000  0.29920000  0.08250000  0.45 0.0886683702
C  C617  1  0.54370000  0.29960000  0.04220000  0.45 -0.1812641538
C  C618  1  0.55810000  0.26260000  0.02194000  0.45 0.1022639998
C  C619  1  0.57190000  0.22530000  0.04200000  0.45 -0.1990784017
C  C620  1  0.57110000  0.22490000  0.08230000  0.45 0.0573710066
C  C621  1  0.79920000  0.04290000  0.58250000  0.45 0.0886683702
C  C622  1  0.79960000  0.04370000  0.54220000  0.45 -0.1812641538
C  C623  1  0.76260000  0.05810000  0.52194000  0.45 0.1022639998
C  C624  1  0.72530000  0.07190000  0.54200000  0.45 -0.1990784017
C  C625  1  0.72490000  0.07110000  0.58230000  0.45 0.0573710066
C  C626  1  0.20080000  0.95710000  0.58250000  0.45 0.0886683702
C  C627  1  0.20040000  0.95630000  0.54220000  0.45 -0.1812641538
C  C628  1  0.23740000  0.94190000  0.52194000  0.45 0.1022639998
C  C629  1  0.27470000  0.92810000  0.54200000  0.45 -0.1990784017
C  C630  1  0.27510000  0.92890000  0.58230000  0.45 0.0573710066
C  C631  1  0.95710000  0.79920000  0.58250000  0.45 0.0886683702
C  C632  1  0.95630000  0.79960000  0.54220000  0.45 -0.1812641538
C  C633  1  0.94190000  0.76260000  0.52194000  0.45 0.1022639998
C  C634  1  0.92810000  0.72530000  0.54200000  0.45 -0.1990784017
C  C635  1  0.92890000  0.72490000  0.58230000  0.45 0.0573710066
C  C636  1  0.04290000  0.20080000  0.58250000  0.45 0.0886683702
C  C637  1  0.04370000  0.20040000  0.54220000  0.45 -0.1812641538
C  C638  1  0.05810000  0.23740000  0.52194000  0.45 0.1022639998
C  C639  1  0.07190000  0.27470000  0.54200000  0.45 -0.1990784017
C  C640  1  0.07110000  0.27510000  0.58230000  0.45 0.0573710066
C  C641  1  0.70080000  0.54290000  0.91750000  0.45 0.0886683702
C  C642  1  0.70040000  0.54370000  0.95780000  0.45 -0.1812641538
C  C643  1  0.73740000  0.55810000  0.97806000  0.45 0.1022639998
C  C644  1  0.77470000  0.57190000  0.95800000  0.45 -0.1990784017
C  C645  1  0.77510000  0.57110000  0.91770000  0.45 0.0573710066
C  C646  1  0.29920000  0.45710000  0.91750000  0.45 0.0886683702
C  C647  1  0.29960000  0.45630000  0.95780000  0.45 -0.1812641538
C  C648  1  0.26260000  0.44190000  0.97806000  0.45 0.1022639998
C  C649  1  0.22530000  0.42810000  0.95800000  0.45 -0.1990784017
C  C650  1  0.22490000  0.42890000  0.91770000  0.45 0.0573710066
C  C651  1  0.54290000  0.29920000  0.91750000  0.45 0.0886683702
C  C652  1  0.54370000  0.29960000  0.95780000  0.45 -0.1812641538
C  C653  1  0.55810000  0.26260000  0.97806000  0.45 0.1022639998
C  C654  1  0.57190000  0.22530000  0.95800000  0.45 -0.1990784017
C  C655  1  0.57110000  0.22490000  0.91770000  0.45 0.0573710066
C  C656  1  0.45710000  0.70080000  0.91750000  0.45 0.0886683702
C  C657  1  0.45630000  0.70040000  0.95780000  0.45 -0.1812641538
C  C658  1  0.44190000  0.73740000  0.97806000  0.45 0.1022639998
C  C659  1  0.42810000  0.77470000  0.95800000  0.45 -0.1990784017
C  C660  1  0.42890000  0.77510000  0.91770000  0.45 0.0573710066
C  C661  1  0.03180000  0.01270000  0.08290000  0.5 0.001140361
C  C662  1  0.03200000  0.01460000  0.04220000  0.5 -0.100333968
C  C663  1  0.96820000  0.98730000  0.08290000  0.5 0.001140361
C  C664  1  0.96800000  0.98540000  0.04220000  0.5 -0.100333968
C  C665  1  0.98730000  0.03180000  0.08290000  0.5 0.001140361
C  C666  1  0.98540000  0.03200000  0.04220000  0.5 -0.100333968
C  C667  1  0.01270000  0.96820000  0.08290000  0.5 0.001140361
C  C668  1  0.01460000  0.96800000  0.04220000  0.5 -0.100333968
C  C669  1  0.46820000  0.51270000  0.41710000  0.5 0.001140361
C  C670  1  0.46800000  0.51460000  0.45780000  0.5 -0.100333968
C  C671  1  0.53180000  0.48730000  0.41710000  0.5 0.001140361
C  C672  1  0.53200000  0.48540000  0.45780000  0.5 -0.100333968
C  C673  1  0.51270000  0.53180000  0.41710000  0.5 0.001140361
C  C674  1  0.51460000  0.53200000  0.45780000  0.5 -0.100333968
C  C675  1  0.48730000  0.46820000  0.41710000  0.5 0.001140361
C  C676  1  0.48540000  0.46800000  0.45780000  0.5 -0.100333968
C  C677  1  0.96820000  0.98730000  0.91710000  0.5 0.001140361
C  C678  1  0.96800000  0.98540000  0.95780000  0.5 -0.100333968
C  C679  1  0.03180000  0.01270000  0.91710000  0.5 0.001140361
C  C680  1  0.03200000  0.01460000  0.95780000  0.5 -0.100333968
C  C681  1  0.01270000  0.96820000  0.91710000  0.5 0.001140361
C  C682  1  0.01460000  0.96800000  0.95780000  0.5 -0.100333968
C  C683  1  0.98730000  0.03180000  0.91710000  0.5 0.001140361
C  C684  1  0.98540000  0.03200000  0.95780000  0.5 -0.100333968
C  C685  1  0.53180000  0.48730000  0.58290000  0.5 0.001140361
C  C686  1  0.53200000  0.48540000  0.54220000  0.5 -0.100333968
C  C687  1  0.46820000  0.51270000  0.58290000  0.5 0.001140361
C  C688  1  0.46800000  0.51460000  0.54220000  0.5 -0.100333968
C  C689  1  0.48730000  0.46820000  0.58290000  0.5 0.001140361
C  C690  1  0.48540000  0.46800000  0.54220000  0.5 -0.100333968
C  C691  1  0.51270000  0.53180000  0.58290000  0.5 0.001140361
C  C692  1  0.51460000  0.53200000  0.54220000  0.5 -0.100333968
N  N1  1  0.03759000  0.94409000  0.17491000  1.0 -0.3681556575
N  N2  1  0.16760000  0.70000000  0.44060000  1.0 -0.2272274604
N  N3  1  0.96241000  0.05591000  0.17491000  1.0 -0.3681556575
N  N4  1  0.83240000  0.30000000  0.44060000  1.0 -0.2272274604
N  N5  1  0.05591000  0.03759000  0.17491000  1.0 -0.3681556575
N  N6  1  0.30000000  0.16760000  0.44060000  1.0 -0.2272274604
N  N7  1  0.94409000  0.96241000  0.17491000  1.0 -0.3681556575
N  N8  1  0.70000000  0.83240000  0.44060000  1.0 -0.2246626997
N  N9  1  0.46241000  0.44409000  0.32509000  1.0 -0.3681556575
N  N10  1  0.33240000  0.20000000  0.05940000  1.0 -0.2246626997
N  N11  1  0.53759000  0.55591000  0.32509000  1.0 -0.3681556575
N  N12  1  0.66760000  0.80000000  0.05940000  1.0 -0.2246626997
N  N13  1  0.44409000  0.53759000  0.32509000  1.0 -0.3681556575
N  N14  1  0.20000000  0.66760000  0.05940000  1.0 -0.2246626997
N  N15  1  0.55591000  0.46241000  0.32509000  1.0 -0.3681556575
N  N16  1  0.80000000  0.33240000  0.05940000  1.0 -0.2246626997
N  N17  1  0.96241000  0.05591000  0.82509000  1.0 -0.3681556575
N  N18  1  0.83240000  0.30000000  0.55940000  1.0 -0.2272274604
N  N19  1  0.03759000  0.94409000  0.82509000  1.0 -0.3681556575
N  N20  1  0.16760000  0.70000000  0.55940000  1.0 -0.2272274604
N  N21  1  0.94409000  0.96241000  0.82509000  1.0 -0.3681556575
N  N22  1  0.70000000  0.83240000  0.55940000  1.0 -0.2246626997
N  N23  1  0.05591000  0.03759000  0.82509000  1.0 -0.3681556575
N  N24  1  0.30000000  0.16760000  0.55940000  1.0 -0.2272274604
N  N25  1  0.53759000  0.55591000  0.67491000  1.0 -0.3681556575
N  N26  1  0.66760000  0.80000000  0.94060000  1.0 -0.2272274604
N  N27  1  0.46241000  0.44409000  0.67491000  1.0 -0.3681556575
N  N28  1  0.33240000  0.20000000  0.94060000  1.0 -0.2246626997
N  N29  1  0.55591000  0.46241000  0.67491000  1.0 -0.3681556575
N  N30  1  0.80000000  0.33240000  0.94060000  1.0 -0.2246626997
N  N31  1  0.44409000  0.53759000  0.67491000  1.0 -0.3681556575
N  N32  1  0.20000000  0.66760000  0.94060000  1.0 -0.2246626997
N  N33  1  0.00000000  0.00000000  0.10270000  1.0 -0.0631094359
N  N34  1  0.50000000  0.50000000  0.39730000  1.0 -0.0631094359
N  N35  1  0.00000000  0.00000000  0.89730000  1.0 -0.0631094359
N  N36  1  0.50000000  0.50000000  0.60270000  1.0 -0.0631094359
N  N37  1  0.22470000  0.73460000  0.50000000  1.0 -0.2496436473
N  N38  1  0.10590000  0.67050000  0.50000000  1.0 -0.272844372
N  N39  1  0.77530000  0.26540000  0.50000000  1.0 -0.2496436473
N  N40  1  0.89410000  0.32950000  0.50000000  1.0 -0.275238774
N  N41  1  0.26540000  0.22470000  0.50000000  1.0 -0.2496436473
N  N42  1  0.32950000  0.10590000  0.50000000  1.0 -0.272844372
N  N43  1  0.73460000  0.77530000  0.50000000  1.0 -0.2496436473
N  N44  1  0.67050000  0.89410000  0.50000000  1.0 -0.272844372
N  N45  1  0.27530000  0.23460000  0.00000000  1.0 -0.2496436473
N  N46  1  0.39410000  0.17050000  0.00000000  1.0 -0.272844372
N  N47  1  0.72470000  0.76540000  0.00000000  1.0 -0.2496436473
N  N48  1  0.60590000  0.82950000  0.00000000  1.0 -0.275238774
N  N49  1  0.23460000  0.72470000  0.00000000  1.0 -0.2496436473
N  N50  1  0.17050000  0.60590000  0.00000000  1.0 -0.272844372
N  N51  1  0.76540000  0.27530000  0.00000000  1.0 -0.2496436473
N  N52  1  0.82950000  0.39410000  0.00000000  1.0 -0.275238774
N  N53  1  0.23820000  0.94340000  0.39743000  0.45 -0.1597114878
N  N54  1  0.76180000  0.05660000  0.39743000  0.45 -0.1597114878
N  N55  1  0.05660000  0.23820000  0.39743000  0.45 -0.1597114878
N  N56  1  0.94340000  0.76180000  0.39743000  0.45 -0.1597114878
N  N57  1  0.26180000  0.44340000  0.10257000  0.45 -0.1597114878
N  N58  1  0.73820000  0.55660000  0.10257000  0.45 -0.1597114878
N  N59  1  0.44340000  0.73820000  0.10257000  0.45 -0.1597114878
N  N60  1  0.55660000  0.26180000  0.10257000  0.45 -0.1597114878
N  N61  1  0.76180000  0.05660000  0.60257000  0.45 -0.1597114878
N  N62  1  0.23820000  0.94340000  0.60257000  0.45 -0.1597114878
N  N63  1  0.94340000  0.76180000  0.60257000  0.45 -0.1597114878
N  N64  1  0.05660000  0.23820000  0.60257000  0.45 -0.1597114878
N  N65  1  0.73820000  0.55660000  0.89743000  0.45 -0.1597114878
N  N66  1  0.26180000  0.44340000  0.89743000  0.45 -0.1597114878
N  N67  1  0.55660000  0.26180000  0.89743000  0.45 -0.1597114878
N  N68  1  0.44340000  0.73820000  0.89743000  0.45 -0.1597114878
O  O1  1  0.29110000  0.91890000  0.23460000  1.0 -0.5071189322
O  O2  1  0.23380000  0.93600000  0.27244000  1.0 -0.4667174308
O  O3  1  0.34700000  0.95030000  0.30670000  1.0 -0.522697828
O  O4  1  0.28540000  0.96610000  0.34130000  1.0 -0.4317701284
O  O5  1  0.32070000  0.84790000  0.30110000  1.0 -0.4836849526
O  O6  1  0.26450000  0.87020000  0.33922000  1.0 -0.4569399796
O  O7  1  0.17910000  0.91860000  0.34160000  1.0 -0.5978248857
O  O8  1  0.70890000  0.08110000  0.23460000  1.0 -0.5071189322
O  O9  1  0.76620000  0.06400000  0.27244000  1.0 -0.4667174308
O  O10  1  0.65300000  0.04970000  0.30670000  1.0 -0.522697828
O  O11  1  0.71460000  0.03390000  0.34130000  1.0 -0.4317701284
O  O12  1  0.67930000  0.15210000  0.30110000  1.0 -0.4836849526
O  O13  1  0.73550000  0.12980000  0.33922000  1.0 -0.4543056406
O  O14  1  0.82090000  0.08140000  0.34160000  1.0 -0.5978248857
O  O15  1  0.08110000  0.29110000  0.23460000  1.0 -0.5071189322
O  O16  1  0.06400000  0.23380000  0.27244000  1.0 -0.4667174308
O  O17  1  0.04970000  0.34700000  0.30670000  1.0 -0.522697828
O  O18  1  0.03390000  0.28540000  0.34130000  1.0 -0.4317701284
O  O19  1  0.15210000  0.32070000  0.30110000  1.0 -0.4836849526
O  O20  1  0.12980000  0.26450000  0.33922000  1.0 -0.4569399796
O  O21  1  0.08140000  0.17910000  0.34160000  1.0 -0.5978248857
O  O22  1  0.91890000  0.70890000  0.23460000  1.0 -0.5071189322
O  O23  1  0.93600000  0.76620000  0.27244000  1.0 -0.4667174308
O  O24  1  0.95030000  0.65300000  0.30670000  1.0 -0.522697828
O  O25  1  0.96610000  0.71460000  0.34130000  1.0 -0.4317701284
O  O26  1  0.84790000  0.67930000  0.30110000  1.0 -0.4836849526
O  O27  1  0.87020000  0.73550000  0.33922000  1.0 -0.4569399796
O  O28  1  0.91860000  0.82090000  0.34160000  1.0 -0.5978248857
O  O29  1  0.20890000  0.41890000  0.26540000  1.0 -0.5071189322
O  O30  1  0.26620000  0.43600000  0.22756000  1.0 -0.4667174308
O  O31  1  0.15300000  0.45030000  0.19330000  1.0 -0.522697828
O  O32  1  0.21460000  0.46610000  0.15870000  1.0 -0.4317701284
O  O33  1  0.17930000  0.34790000  0.19890000  1.0 -0.4836849526
O  O34  1  0.23550000  0.37020000  0.16078000  1.0 -0.4543056406
O  O35  1  0.32090000  0.41860000  0.15840000  1.0 -0.5925599031
O  O36  1  0.79110000  0.58110000  0.26540000  1.0 -0.5071189322
O  O37  1  0.73380000  0.56400000  0.22756000  1.0 -0.4667174308
O  O38  1  0.84700000  0.54970000  0.19330000  1.0 -0.522697828
O  O39  1  0.78540000  0.53390000  0.15870000  1.0 -0.4317701284
O  O40  1  0.82070000  0.65210000  0.19890000  1.0 -0.4836849526
O  O41  1  0.76450000  0.62980000  0.16078000  1.0 -0.4543056406
O  O42  1  0.67910000  0.58140000  0.15840000  1.0 -0.5925599031
O  O43  1  0.41890000  0.79110000  0.26540000  1.0 -0.5071189322
O  O44  1  0.43600000  0.73380000  0.22756000  1.0 -0.4667174308
O  O45  1  0.45030000  0.84700000  0.19330000  1.0 -0.522697828
O  O46  1  0.46610000  0.78540000  0.15870000  1.0 -0.4317701284
O  O47  1  0.34790000  0.82070000  0.19890000  1.0 -0.4836849526
O  O48  1  0.37020000  0.76450000  0.16078000  1.0 -0.4543056406
O  O49  1  0.41860000  0.67910000  0.15840000  1.0 -0.5925599031
O  O50  1  0.58110000  0.20890000  0.26540000  1.0 -0.5071189322
O  O51  1  0.56400000  0.26620000  0.22756000  1.0 -0.4667174308
O  O52  1  0.54970000  0.15300000  0.19330000  1.0 -0.522697828
O  O53  1  0.53390000  0.21460000  0.15870000  1.0 -0.4317701284
O  O54  1  0.65210000  0.17930000  0.19890000  1.0 -0.4836849526
O  O55  1  0.62980000  0.23550000  0.16078000  1.0 -0.4543056406
O  O56  1  0.58140000  0.32090000  0.15840000  1.0 -0.5925599031
O  O57  1  0.70890000  0.08110000  0.76540000  1.0 -0.5071189322
O  O58  1  0.76620000  0.06400000  0.72756000  1.0 -0.4667174308
O  O59  1  0.65300000  0.04970000  0.69330000  1.0 -0.522697828
O  O60  1  0.71460000  0.03390000  0.65870000  1.0 -0.4317701284
O  O61  1  0.67930000  0.15210000  0.69890000  1.0 -0.4836849526
O  O62  1  0.73550000  0.12980000  0.66078000  1.0 -0.4543056406
O  O63  1  0.82090000  0.08140000  0.65840000  1.0 -0.5978248857
O  O64  1  0.29110000  0.91890000  0.76540000  1.0 -0.5071189322
O  O65  1  0.23380000  0.93600000  0.72756000  1.0 -0.4667174308
O  O66  1  0.34700000  0.95030000  0.69330000  1.0 -0.522697828
O  O67  1  0.28540000  0.96610000  0.65870000  1.0 -0.4317701284
O  O68  1  0.32070000  0.84790000  0.69890000  1.0 -0.4836849526
O  O69  1  0.26450000  0.87020000  0.66078000  1.0 -0.4569399796
O  O70  1  0.17910000  0.91860000  0.65840000  1.0 -0.5978248857
O  O71  1  0.91890000  0.70890000  0.76540000  1.0 -0.5071189322
O  O72  1  0.93600000  0.76620000  0.72756000  1.0 -0.4667174308
O  O73  1  0.95030000  0.65300000  0.69330000  1.0 -0.522697828
O  O74  1  0.96610000  0.71460000  0.65870000  1.0 -0.4317701284
O  O75  1  0.84790000  0.67930000  0.69890000  1.0 -0.4836849526
O  O76  1  0.87020000  0.73550000  0.66078000  1.0 -0.4569399796
O  O77  1  0.91860000  0.82090000  0.65840000  1.0 -0.5978248857
O  O78  1  0.08110000  0.29110000  0.76540000  1.0 -0.5071189322
O  O79  1  0.06400000  0.23380000  0.72756000  1.0 -0.4667174308
O  O80  1  0.04970000  0.34700000  0.69330000  1.0 -0.522697828
O  O81  1  0.03390000  0.28540000  0.65870000  1.0 -0.4317701284
O  O82  1  0.15210000  0.32070000  0.69890000  1.0 -0.4836849526
O  O83  1  0.12980000  0.26450000  0.66078000  1.0 -0.4569399796
O  O84  1  0.08140000  0.17910000  0.65840000  1.0 -0.5978248857
O  O85  1  0.79110000  0.58110000  0.73460000  1.0 -0.5071189322
O  O86  1  0.73380000  0.56400000  0.77244000  1.0 -0.4569399796
O  O87  1  0.84700000  0.54970000  0.80670000  1.0 -0.522697828
O  O88  1  0.78540000  0.53390000  0.84130000  1.0 -0.4317701284
O  O89  1  0.82070000  0.65210000  0.80110000  1.0 -0.4836849526
O  O90  1  0.76450000  0.62980000  0.83922000  1.0 -0.4569399796
O  O91  1  0.67910000  0.58140000  0.84160000  1.0 -0.5925599031
O  O92  1  0.20890000  0.41890000  0.73460000  1.0 -0.5071189322
O  O93  1  0.26620000  0.43600000  0.77244000  1.0 -0.4667174308
O  O94  1  0.15300000  0.45030000  0.80670000  1.0 -0.522697828
O  O95  1  0.21460000  0.46610000  0.84130000  1.0 -0.4317701284
O  O96  1  0.17930000  0.34790000  0.80110000  1.0 -0.4836849526
O  O97  1  0.23550000  0.37020000  0.83922000  1.0 -0.4569399796
O  O98  1  0.32090000  0.41860000  0.84160000  1.0 -0.5925599031
O  O99  1  0.58110000  0.20890000  0.73460000  1.0 -0.5071189322
O  O100  1  0.56400000  0.26620000  0.77244000  1.0 -0.4569399796
O  O101  1  0.54970000  0.15300000  0.80670000  1.0 -0.522697828
O  O102  1  0.53390000  0.21460000  0.84130000  1.0 -0.4317701284
O  O103  1  0.65210000  0.17930000  0.80110000  1.0 -0.4836849526
O  O104  1  0.62980000  0.23550000  0.83922000  1.0 -0.4569399796
O  O105  1  0.58140000  0.32090000  0.84160000  1.0 -0.5925599031
O  O106  1  0.41890000  0.79110000  0.73460000  1.0 -0.5071189322
O  O107  1  0.43600000  0.73380000  0.77244000  1.0 -0.4667174308
O  O108  1  0.45030000  0.84700000  0.80670000  1.0 -0.522697828
O  O109  1  0.46610000  0.78540000  0.84130000  1.0 -0.4317701284
O  O110  1  0.34790000  0.82070000  0.80110000  1.0 -0.4836849526
O  O111  1  0.37020000  0.76450000  0.83922000  1.0 -0.4569399796
O  O112  1  0.41860000  0.67910000  0.84160000  1.0 -0.5925599031
O  O113  1  0.19170000  0.65370000  0.50000000  1.0 -0.5018296799
O  O114  1  0.14200000  0.75440000  0.50000000  1.0 -0.5071189322
O  O115  1  0.80830000  0.34630000  0.50000000  1.0 -0.5018296799
O  O116  1  0.85800000  0.24560000  0.50000000  1.0 -0.5071189322
O  O117  1  0.34630000  0.19170000  0.50000000  1.0 -0.5071189322
O  O118  1  0.24560000  0.14200000  0.50000000  1.0 -0.5071189322
O  O119  1  0.65370000  0.80830000  0.50000000  1.0 -0.5018296799
O  O120  1  0.75440000  0.85800000  0.50000000  1.0 -0.5071189322
O  O121  1  0.30830000  0.15370000  0.00000000  1.0 -0.5018296799
O  O122  1  0.35800000  0.25440000  0.00000000  1.0 -0.5071189322
O  O123  1  0.69170000  0.84630000  0.00000000  1.0 -0.5018296799
O  O124  1  0.64200000  0.74560000  0.00000000  1.0 -0.5071189322
O  O125  1  0.15370000  0.69170000  0.00000000  1.0 -0.5018296799
O  O126  1  0.25440000  0.64200000  0.00000000  1.0 -0.5071189322
O  O127  1  0.84630000  0.30830000  0.00000000  1.0 -0.5018296799
O  O128  1  0.74560000  0.35800000  0.00000000  1.0 -0.5071189322
O  O129  1  0.38864000  0.88864000  0.25000000  1.0 -0.8277700163
O  O130  1  0.61136000  0.11136000  0.25000000  1.0 -0.8277700163
O  O131  1  0.11136000  0.38864000  0.25000000  1.0 -0.8277700163
O  O132  1  0.88864000  0.61136000  0.25000000  1.0 -0.8277700163
O  O133  1  0.61136000  0.11136000  0.75000000  1.0 -0.8277700163
O  O134  1  0.38864000  0.88864000  0.75000000  1.0 -0.8244202651
O  O135  1  0.88864000  0.61136000  0.75000000  1.0 -0.8277700163
O  O136  1  0.11136000  0.38864000  0.75000000  1.0 -0.8244202651
O  O137  1  0.20950000  0.00160000  0.33690000  0.45 -0.019812992
O  O138  1  0.79050000  0.99840000  0.33690000  0.45 -0.019812992
O  O139  1  0.99840000  0.20950000  0.33690000  0.45 -0.019812992
O  O140  1  0.00160000  0.79050000  0.33690000  0.45 -0.019812992
O  O141  1  0.29050000  0.50160000  0.16310000  0.45 -0.0456854689
O  O142  1  0.70950000  0.49840000  0.16310000  0.45 -0.0427239201
O  O143  1  0.50160000  0.70950000  0.16310000  0.45 -0.0456854689
O  O144  1  0.49840000  0.29050000  0.16310000  0.45 -0.0456854689
O  O145  1  0.79050000  0.99840000  0.66310000  0.45 -0.019812992
O  O146  1  0.20950000  0.00160000  0.66310000  0.45 -0.019812992
O  O147  1  0.00160000  0.79050000  0.66310000  0.45 -0.0312732353
O  O148  1  0.99840000  0.20950000  0.66310000  0.45 -0.019812992
O  O149  1  0.70950000  0.49840000  0.83690000  0.45 -0.0427239201
O  O150  1  0.29050000  0.50160000  0.83690000  0.45 -0.0427239201
O  O151  1  0.49840000  0.29050000  0.83690000  0.45 -0.0427239201
O  O152  1  0.50160000  0.70950000  0.83690000  0.45 -0.0427239201
