# DDEC6 charges by PACMAN v1.1 (https://github.com/mtap-research/PACMAN-charge/)
data_d3ce00787a2_1_ASR_pacman
_symmetry_space_group_name_H-M   'P 1'
_cell_length_a   27.72610000
_cell_length_b   27.72610000
_cell_length_c   28.53840000
_cell_angle_alpha   90.00000000
_cell_angle_beta   90.00000000
_cell_angle_gamma   90.00000000
_symmetry_Int_Tables_number   1
_chemical_formula_structural   Zn2H14C22S4N3O8
_chemical_formula_sum   'Zn32 H224 C352.0 S64.0 N48 O128'
_cell_volume   21938.51319074
_cell_formula_units_Z   16
loop_
 _symmetry_equiv_pos_site_id
 _symmetry_equiv_pos_as_xyz
  1  'x, y, z'
loop_
 _atom_site_type_symbol
 _atom_site_label
 _atom_site_symmetry_multiplicity
 _atom_site_fract_x
 _atom_site_fract_y
 _atom_site_fract_z
 _atom_site_occupancy
 _atom_site_charge
Zn  Zn1  1  0.04903000  0.20097000  0.12500000  1.0 0.6325781181
Zn  Zn2  1  0.45097000  0.79903000  0.62500000  1.0 0.6325781181
Zn  Zn3  1  0.04903000  0.79903000  0.37500000  1.0 0.6325781181
Zn  Zn4  1  0.45097000  0.20097000  0.87500000  1.0 0.6325781181
Zn  Zn5  1  0.54903000  0.70097000  0.62500000  1.0 0.6325781181
Zn  Zn6  1  0.95097000  0.29903000  0.12500000  1.0 0.6325781181
Zn  Zn7  1  0.54903000  0.29903000  0.87500000  1.0 0.6325781181
Zn  Zn8  1  0.95097000  0.70097000  0.37500000  1.0 0.6325781181
Zn  Zn9  1  0.95097000  0.79903000  0.87500000  1.0 0.6325781181
Zn  Zn10  1  0.54903000  0.20097000  0.37500000  1.0 0.6325781181
Zn  Zn11  1  0.95097000  0.20097000  0.62500000  1.0 0.6325781181
Zn  Zn12  1  0.54903000  0.79903000  0.12500000  1.0 0.6325781181
Zn  Zn13  1  0.45097000  0.29903000  0.37500000  1.0 0.6325781181
Zn  Zn14  1  0.04903000  0.70097000  0.87500000  1.0 0.6325781181
Zn  Zn15  1  0.45097000  0.70097000  0.12500000  1.0 0.6325781181
Zn  Zn16  1  0.04903000  0.29903000  0.62500000  1.0 0.6325781181
Zn  Zn17  1  0.00000000  0.25000000  0.32390000  1.0 0.8260524257
Zn  Zn18  1  0.50000000  0.75000000  0.82390000  1.0 0.8260524257
Zn  Zn19  1  0.00000000  0.75000000  0.57390000  1.0 0.8260524257
Zn  Zn20  1  0.50000000  0.25000000  0.07390000  1.0 0.8260524257
Zn  Zn21  1  0.50000000  0.25000000  0.67610000  1.0 0.8260524257
Zn  Zn22  1  0.00000000  0.75000000  0.17610000  1.0 0.8260524257
Zn  Zn23  1  0.50000000  0.75000000  0.42610000  1.0 0.8260524257
Zn  Zn24  1  0.00000000  0.25000000  0.92610000  1.0 0.8260524257
Zn  Zn25  1  0.00000000  0.75000000  0.67610000  1.0 0.8260524257
Zn  Zn26  1  0.50000000  0.25000000  0.17610000  1.0 0.8260524257
Zn  Zn27  1  0.00000000  0.25000000  0.42610000  1.0 0.8260524257
Zn  Zn28  1  0.50000000  0.75000000  0.92610000  1.0 0.8260524257
Zn  Zn29  1  0.50000000  0.75000000  0.32390000  1.0 0.8260524257
Zn  Zn30  1  0.00000000  0.25000000  0.82390000  1.0 0.8260524257
Zn  Zn31  1  0.50000000  0.25000000  0.57390000  1.0 0.8260524257
Zn  Zn32  1  0.00000000  0.75000000  0.07390000  1.0 0.8260524257
H  H385  1  0.04984000  0.20068000  0.23524000  1.0 0.1203369036
H  H386  1  0.45016000  0.79932000  0.73524000  1.0 0.1203369036
H  H387  1  0.04932000  0.79984000  0.48524000  1.0 0.1203369036
H  H388  1  0.45068000  0.20016000  0.98524000  1.0 0.1203369036
H  H389  1  0.45016000  0.20068000  0.76476000  1.0 0.1203369036
H  H390  1  0.04984000  0.79932000  0.26476000  1.0 0.1203369036
H  H391  1  0.45068000  0.79984000  0.51476000  1.0 0.1203369036
H  H392  1  0.04932000  0.20016000  0.01476000  1.0 0.1203369036
H  H393  1  0.54984000  0.70068000  0.73524000  1.0 0.1203369036
H  H394  1  0.95016000  0.29932000  0.23524000  1.0 0.1203369036
H  H395  1  0.54932000  0.29984000  0.98524000  1.0 0.1203369036
H  H396  1  0.95068000  0.70016000  0.48524000  1.0 0.1203369036
H  H397  1  0.95016000  0.70068000  0.26476000  1.0 0.1203369036
H  H398  1  0.54984000  0.29932000  0.76476000  1.0 0.1203369036
H  H399  1  0.95068000  0.29984000  0.01476000  1.0 0.1203369036
H  H400  1  0.54932000  0.70016000  0.51476000  1.0 0.1203369036
H  H401  1  0.95016000  0.79932000  0.76476000  1.0 0.1203369036
H  H402  1  0.54984000  0.20068000  0.26476000  1.0 0.1203369036
H  H403  1  0.95068000  0.20016000  0.51476000  1.0 0.1203369036
H  H404  1  0.54932000  0.79984000  0.01476000  1.0 0.1203369036
H  H405  1  0.54984000  0.79932000  0.23524000  1.0 0.1203369036
H  H406  1  0.95016000  0.20068000  0.73524000  1.0 0.1203369036
H  H407  1  0.54932000  0.20016000  0.48524000  1.0 0.1203369036
H  H408  1  0.95068000  0.79984000  0.98524000  1.0 0.1203369036
H  H409  1  0.45016000  0.29932000  0.26476000  1.0 0.1203369036
H  H410  1  0.04984000  0.70068000  0.76476000  1.0 0.1203369036
H  H411  1  0.45068000  0.70016000  0.01476000  1.0 0.1203369036
H  H412  1  0.04932000  0.29984000  0.51476000  1.0 0.1203369036
H  H413  1  0.04984000  0.29932000  0.73524000  1.0 0.1203369036
H  H414  1  0.45016000  0.70068000  0.23524000  1.0 0.1203369036
H  H415  1  0.04932000  0.70016000  0.98524000  1.0 0.1203369036
H  H416  1  0.45068000  0.29984000  0.48524000  1.0 0.1203369036
H  H193  1  0.23671000  0.23897000  0.20053000  0.487 0.0873286013
H  H194  1  0.26329000  0.76104000  0.70053000  0.487 0.0873286013
H  H195  1  0.01103000  0.98671000  0.45053000  0.487 0.0873286013
H  H196  1  0.48896000  0.01329000  0.95053000  0.487 0.0873286013
H  H197  1  0.26329000  0.23897000  0.79947000  0.487 0.0873286013
H  H198  1  0.23671000  0.76104000  0.29947000  0.487 0.0873286013
H  H199  1  0.48896000  0.98671000  0.54947000  0.487 0.0873286013
H  H200  1  0.01103000  0.01329000  0.04947000  0.487 0.0845783188
H  H201  1  0.73671000  0.73896000  0.70053000  0.487 0.0873286013
H  H202  1  0.76329000  0.26104000  0.20053000  0.487 0.0873286013
H  H203  1  0.51104000  0.48671000  0.95053000  0.487 0.0873286013
H  H204  1  0.98896000  0.51329000  0.45053000  0.487 0.0873286013
H  H205  1  0.76329000  0.73896000  0.29947000  0.487 0.0873286013
H  H206  1  0.73671000  0.26104000  0.79947000  0.487 0.0873286013
H  H207  1  0.98896000  0.48671000  0.04947000  0.487 0.0873286013
H  H208  1  0.51104000  0.51329000  0.54947000  0.487 0.0873286013
H  H209  1  0.76329000  0.76104000  0.79947000  0.487 0.0873286013
H  H210  1  0.73671000  0.23897000  0.29947000  0.487 0.0873286013
H  H211  1  0.98896000  0.01329000  0.54947000  0.487 0.0873286013
H  H212  1  0.51104000  0.98671000  0.04947000  0.487 0.0873286013
H  H213  1  0.73671000  0.76104000  0.20053000  0.487 0.0873286013
H  H214  1  0.76329000  0.23897000  0.70053000  0.487 0.0873286013
H  H215  1  0.51104000  0.01329000  0.45053000  0.487 0.0873286013
H  H216  1  0.98896000  0.98671000  0.95053000  0.487 0.0873286013
H  H217  1  0.26329000  0.26104000  0.29947000  0.487 0.0873286013
H  H218  1  0.23671000  0.73896000  0.79947000  0.487 0.0873286013
H  H219  1  0.48896000  0.51329000  0.04947000  0.487 0.0873286013
H  H220  1  0.01103000  0.48671000  0.54947000  0.487 0.0873286013
H  H221  1  0.23671000  0.26104000  0.70053000  0.487 0.0873286013
H  H222  1  0.26329000  0.73896000  0.20053000  0.487 0.0873286013
H  H223  1  0.01103000  0.51329000  0.95053000  0.487 0.0873286013
H  H224  1  0.48896000  0.48671000  0.45053000  0.487 0.0873286013
H  H225  1  0.18880000  0.26291000  0.17963000  0.487 0.0999813507
H  H226  1  0.31120000  0.73709000  0.67963000  0.487 0.0999813507
H  H227  1  0.98709000  0.93880000  0.42963000  0.487 0.0999813507
H  H228  1  0.51291000  0.06120000  0.92963000  0.487 0.0999813507
H  H229  1  0.31120000  0.26291000  0.82037000  0.487 0.0999813507
H  H230  1  0.18880000  0.73709000  0.32037000  0.487 0.0999813507
H  H231  1  0.51291000  0.93880000  0.57037000  0.487 0.0999813507
H  H232  1  0.98709000  0.06120000  0.07037000  0.487 0.0999813507
H  H233  1  0.68880000  0.76291000  0.67963000  0.487 0.0999813507
H  H234  1  0.81120000  0.23709000  0.17963000  0.487 0.0999813507
H  H235  1  0.48709000  0.43880000  0.92963000  0.487 0.0999813507
H  H236  1  0.01291000  0.56120000  0.42963000  0.487 0.0999813507
H  H237  1  0.81120000  0.76291000  0.32037000  0.487 0.0999813507
H  H238  1  0.68880000  0.23709000  0.82037000  0.487 0.0999813507
H  H239  1  0.01291000  0.43880000  0.07037000  0.487 0.0999813507
H  H240  1  0.48709000  0.56120000  0.57037000  0.487 0.0999813507
H  H241  1  0.81120000  0.73709000  0.82037000  0.487 0.0999813507
H  H242  1  0.68880000  0.26291000  0.32037000  0.487 0.0999813507
H  H243  1  0.01291000  0.06120000  0.57037000  0.487 0.0999813507
H  H244  1  0.48709000  0.93880000  0.07037000  0.487 0.0999813507
H  H245  1  0.68880000  0.73709000  0.17963000  0.487 0.0999813507
H  H246  1  0.81120000  0.26291000  0.67963000  0.487 0.0999813507
H  H247  1  0.48709000  0.06120000  0.42963000  0.487 0.0999813507
H  H248  1  0.01291000  0.93880000  0.92963000  0.487 0.0999813507
H  H249  1  0.31120000  0.23709000  0.32037000  0.487 0.0999813507
H  H250  1  0.18880000  0.76291000  0.82037000  0.487 0.0999813507
H  H251  1  0.51291000  0.56120000  0.07037000  0.487 0.0999813507
H  H252  1  0.98709000  0.43880000  0.57037000  0.487 0.0999813507
H  H253  1  0.18880000  0.23709000  0.67963000  0.487 0.0999813507
H  H254  1  0.31120000  0.76291000  0.17963000  0.487 0.0999813507
H  H255  1  0.98709000  0.56120000  0.92963000  0.487 0.0999813507
H  H256  1  0.51291000  0.43880000  0.42963000  0.487 0.0999813507
H  H257  1  0.18913000  0.20705000  0.19375000  0.487 0.0873286013
H  H258  1  0.31087000  0.79295000  0.69375000  0.487 0.0873286013
H  H259  1  0.04295000  0.93913000  0.44375000  0.487 0.0873286013
H  H260  1  0.45705000  0.06087000  0.94375000  0.487 0.0873286013
H  H261  1  0.31087000  0.20705000  0.80625000  0.487 0.0873286013
H  H262  1  0.18913000  0.79295000  0.30625000  0.487 0.0873286013
H  H263  1  0.45705000  0.93913000  0.55625000  0.487 0.0873286013
H  H264  1  0.04295000  0.06087000  0.05625000  0.487 0.0873286013
H  H265  1  0.68913000  0.70705000  0.69375000  0.487 0.0873286013
H  H266  1  0.81087000  0.29295000  0.19375000  0.487 0.0873286013
H  H267  1  0.54295000  0.43913000  0.94375000  0.487 0.0873286013
H  H268  1  0.95705000  0.56087000  0.44375000  0.487 0.0873286013
H  H269  1  0.81087000  0.70705000  0.30625000  0.487 0.0873286013
H  H270  1  0.68913000  0.29295000  0.80625000  0.487 0.0873286013
H  H271  1  0.95705000  0.43913000  0.05625000  0.487 0.0873286013
H  H272  1  0.54295000  0.56087000  0.55625000  0.487 0.0873286013
H  H273  1  0.81087000  0.79295000  0.80625000  0.487 0.0873286013
H  H274  1  0.68913000  0.20705000  0.30625000  0.487 0.0873286013
H  H275  1  0.95705000  0.06087000  0.55625000  0.487 0.0873286013
H  H276  1  0.54295000  0.93913000  0.05625000  0.487 0.0873286013
H  H277  1  0.68913000  0.79295000  0.19375000  0.487 0.0873286013
H  H278  1  0.81087000  0.20705000  0.69375000  0.487 0.0873286013
H  H279  1  0.54295000  0.06087000  0.44375000  0.487 0.0873286013
H  H280  1  0.95705000  0.93913000  0.94375000  0.487 0.0873286013
H  H281  1  0.31087000  0.29295000  0.30625000  0.487 0.0873286013
H  H282  1  0.18913000  0.70705000  0.80625000  0.487 0.0873286013
H  H283  1  0.45705000  0.56087000  0.05625000  0.487 0.0873286013
H  H284  1  0.04295000  0.43913000  0.55625000  0.487 0.0873286013
H  H285  1  0.18913000  0.29295000  0.69375000  0.487 0.0873286013
H  H286  1  0.31087000  0.70705000  0.19375000  0.487 0.0873286013
H  H287  1  0.04295000  0.56087000  0.94375000  0.487 0.0873286013
H  H288  1  0.45705000  0.43913000  0.44375000  0.487 0.0873286013
H  H289  1  0.29079000  0.24812000  0.20636000  0.487 0.0707187339
H  H290  1  0.20921000  0.75188000  0.70636000  0.487 0.0707187339
H  H291  1  0.00188000  0.04079000  0.45636000  0.487 0.0707187339
H  H292  1  0.49812000  0.95921000  0.95636000  0.487 0.0707187339
H  H293  1  0.20921000  0.24812000  0.79364000  0.487 0.0707187339
H  H294  1  0.29079000  0.75188000  0.29364000  0.487 0.0707187339
H  H295  1  0.49812000  0.04079000  0.54364000  0.487 0.0707187339
H  H296  1  0.00188000  0.95921000  0.04364000  0.487 0.0707187339
H  H297  1  0.79079000  0.74812000  0.70636000  0.487 0.0707187339
H  H298  1  0.70922000  0.25188000  0.20636000  0.487 0.0707187339
H  H299  1  0.50188000  0.54079000  0.95636000  0.487 0.0707187339
H  H300  1  0.99812000  0.45921000  0.45636000  0.487 0.0707187339
H  H301  1  0.70922000  0.74812000  0.29364000  0.487 0.0707187339
H  H302  1  0.79079000  0.25188000  0.79364000  0.487 0.0707187339
H  H303  1  0.99812000  0.54079000  0.04364000  0.487 0.0707187339
H  H304  1  0.50188000  0.45921000  0.54364000  0.487 0.0707187339
H  H305  1  0.70922000  0.75188000  0.79364000  0.487 0.0707187339
H  H306  1  0.79079000  0.24812000  0.29364000  0.487 0.0707187339
H  H307  1  0.99812000  0.95921000  0.54364000  0.487 0.0707187339
H  H308  1  0.50188000  0.04079000  0.04364000  0.487 0.0707187339
H  H309  1  0.79079000  0.75188000  0.20636000  0.487 0.0707187339
H  H310  1  0.70922000  0.24812000  0.70636000  0.487 0.0707187339
H  H311  1  0.50188000  0.95921000  0.45636000  0.487 0.0707187339
H  H312  1  0.99812000  0.04079000  0.95636000  0.487 0.0707187339
H  H313  1  0.20921000  0.25188000  0.29364000  0.487 0.0707187339
H  H314  1  0.29079000  0.74812000  0.79364000  0.487 0.0707187339
H  H315  1  0.49812000  0.45921000  0.04364000  0.487 0.0707187339
H  H316  1  0.00188000  0.54079000  0.54364000  0.487 0.0707187339
H  H317  1  0.29079000  0.25188000  0.70636000  0.487 0.0707187339
H  H318  1  0.20921000  0.74812000  0.20636000  0.487 0.0707187339
H  H319  1  0.00188000  0.45921000  0.95636000  0.487 0.0707187339
H  H320  1  0.49812000  0.54079000  0.45636000  0.487 0.0707187339
H  H321  1  0.34586000  0.23129000  0.21009000  0.487 0.1095383151
H  H322  1  0.15414000  0.76871000  0.71009000  0.487 0.1095383151
H  H323  1  0.01871000  0.09586000  0.46009000  0.487 0.1095383151
H  H324  1  0.48129000  0.90414000  0.96009000  0.487 0.1095383151
H  H325  1  0.15414000  0.23129000  0.78991000  0.487 0.1095383151
H  H326  1  0.34586000  0.76871000  0.28991000  0.487 0.1095383151
H  H327  1  0.48129000  0.09586000  0.53991000  0.487 0.1095383151
H  H328  1  0.01871000  0.90414000  0.03991000  0.487 0.1095383151
H  H329  1  0.84586000  0.73129000  0.71009000  0.487 0.1095383151
H  H330  1  0.65414000  0.26871000  0.21009000  0.487 0.1095383151
H  H331  1  0.51871000  0.59586000  0.96009000  0.487 0.1095383151
H  H332  1  0.98129000  0.40414000  0.46009000  0.487 0.1095383151
H  H333  1  0.65414000  0.73129000  0.28991000  0.487 0.1095383151
H  H334  1  0.84586000  0.26871000  0.78991000  0.487 0.1095383151
H  H335  1  0.98129000  0.59586000  0.03991000  0.487 0.1095383151
H  H336  1  0.51871000  0.40414000  0.53991000  0.487 0.1095383151
H  H337  1  0.65414000  0.76871000  0.78991000  0.487 0.1095383151
H  H338  1  0.84586000  0.23129000  0.28991000  0.487 0.1095383151
H  H339  1  0.98129000  0.90414000  0.53991000  0.487 0.1095383151
H  H340  1  0.51871000  0.09586000  0.03991000  0.487 0.1095383151
H  H341  1  0.84586000  0.76871000  0.21009000  0.487 0.1095383151
H  H342  1  0.65414000  0.23129000  0.71009000  0.487 0.1095383151
H  H343  1  0.51871000  0.90414000  0.46009000  0.487 0.1095383151
H  H344  1  0.98129000  0.09586000  0.96009000  0.487 0.1095383151
H  H345  1  0.15414000  0.26871000  0.28991000  0.487 0.1095383151
H  H346  1  0.34586000  0.73129000  0.78991000  0.487 0.1095383151
H  H347  1  0.48129000  0.40414000  0.03991000  0.487 0.1095383151
H  H348  1  0.01871000  0.59586000  0.53991000  0.487 0.1095383151
H  H349  1  0.34586000  0.26871000  0.71009000  0.487 0.1095383151
H  H350  1  0.15414000  0.73129000  0.21009000  0.487 0.1095383151
H  H351  1  0.01871000  0.40414000  0.96009000  0.487 0.1095383151
H  H352  1  0.48129000  0.59586000  0.46009000  0.487 0.1095383151
H  H353  1  0.33307000  0.28377000  0.19032000  0.487 0.0999813507
H  H354  1  0.16693000  0.71623000  0.69032000  0.487 0.0999813507
H  H355  1  0.96623000  0.08307000  0.44032000  0.487 0.0999813507
H  H356  1  0.53377000  0.91693000  0.94032000  0.487 0.0999813507
H  H357  1  0.16693000  0.28377000  0.80968000  0.487 0.0999813507
H  H358  1  0.33307000  0.71623000  0.30968000  0.487 0.0999813507
H  H359  1  0.53377000  0.08307000  0.55968000  0.487 0.0999813507
H  H360  1  0.96623000  0.91693000  0.05968000  0.487 0.0999813507
H  H361  1  0.83307000  0.78377000  0.69032000  0.487 0.0999813507
H  H362  1  0.66693000  0.21623000  0.19032000  0.487 0.0999813507
H  H363  1  0.46623000  0.58307000  0.94032000  0.487 0.0999813507
H  H364  1  0.03377000  0.41693000  0.44032000  0.487 0.0999813507
H  H365  1  0.66693000  0.78377000  0.30968000  0.487 0.0999813507
H  H366  1  0.83307000  0.21623000  0.80968000  0.487 0.0999813507
H  H367  1  0.03377000  0.58307000  0.05968000  0.487 0.0999813507
H  H368  1  0.46623000  0.41693000  0.55968000  0.487 0.0999813507
H  H369  1  0.66693000  0.71623000  0.80968000  0.487 0.0999813507
H  H370  1  0.83307000  0.28377000  0.30968000  0.487 0.0999813507
H  H371  1  0.03377000  0.91693000  0.55968000  0.487 0.0999813507
H  H372  1  0.46623000  0.08307000  0.05968000  0.487 0.0999813507
H  H373  1  0.83307000  0.71623000  0.19032000  0.487 0.0999813507
H  H374  1  0.66693000  0.28377000  0.69032000  0.487 0.0999813507
H  H375  1  0.46623000  0.91693000  0.44032000  0.487 0.0999813507
H  H376  1  0.03377000  0.08307000  0.94032000  0.487 0.0999813507
H  H377  1  0.16693000  0.21623000  0.30968000  0.487 0.0999813507
H  H378  1  0.33307000  0.78377000  0.80968000  0.487 0.0999813507
H  H379  1  0.53377000  0.41693000  0.05968000  0.487 0.0999813507
H  H380  1  0.96623000  0.58307000  0.55968000  0.487 0.0999813507
H  H381  1  0.33307000  0.21623000  0.69032000  0.487 0.0999813507
H  H382  1  0.16693000  0.78377000  0.19032000  0.487 0.0999813507
H  H383  1  0.96623000  0.41693000  0.94032000  0.487 0.0999813507
H  H384  1  0.53377000  0.58307000  0.44032000  0.487 0.0999813507
H  H1  1  0.24105000  0.24014000  0.06105000  0.513 0.0707187339
H  H2  1  0.25895000  0.75986000  0.56105000  0.513 0.0707187339
H  H3  1  0.00986000  0.99105000  0.31105000  0.513 0.0707187339
H  H4  1  0.49014000  0.00895000  0.81105000  0.513 0.0707187339
H  H5  1  0.25895000  0.24014000  0.93895000  0.513 0.0707187339
H  H6  1  0.24105000  0.75986000  0.43895000  0.513 0.0707187339
H  H7  1  0.49014000  0.99105000  0.68895000  0.513 0.0707187339
H  H8  1  0.00986000  0.00895000  0.18895000  0.513 0.0707187339
H  H9  1  0.74105000  0.74014000  0.56105000  0.513 0.0707187339
H  H10  1  0.75895000  0.25986000  0.06105000  0.513 0.0707187339
H  H11  1  0.50986000  0.49105000  0.81105000  0.513 0.0707187339
H  H12  1  0.99014000  0.50895000  0.31105000  0.513 0.0707187339
H  H13  1  0.75895000  0.74014000  0.43895000  0.513 0.0707187339
H  H14  1  0.74105000  0.25986000  0.93895000  0.513 0.0707187339
H  H15  1  0.99014000  0.49105000  0.18895000  0.513 0.0707187339
H  H16  1  0.50986000  0.50895000  0.68895000  0.513 0.0707187339
H  H17  1  0.75895000  0.75986000  0.93895000  0.513 0.0707187339
H  H18  1  0.74105000  0.24014000  0.43895000  0.513 0.0707187339
H  H19  1  0.99014000  0.00895000  0.68895000  0.513 0.0707187339
H  H20  1  0.50986000  0.99105000  0.18895000  0.513 0.0707187339
H  H21  1  0.74105000  0.75986000  0.06105000  0.513 0.0707187339
H  H22  1  0.75895000  0.24014000  0.56105000  0.513 0.0707187339
H  H23  1  0.50986000  0.00895000  0.31105000  0.513 0.0707187339
H  H24  1  0.99014000  0.99105000  0.81105000  0.513 0.0707187339
H  H25  1  0.25895000  0.25986000  0.43895000  0.513 0.0707187339
H  H26  1  0.24105000  0.74014000  0.93895000  0.513 0.0707187339
H  H27  1  0.49014000  0.50895000  0.18895000  0.513 0.0707187339
H  H28  1  0.00986000  0.49105000  0.68895000  0.513 0.0707187339
H  H29  1  0.24105000  0.25986000  0.56105000  0.513 0.0707187339
H  H30  1  0.25895000  0.74014000  0.06105000  0.513 0.0707187339
H  H31  1  0.00986000  0.50895000  0.81105000  0.513 0.0707187339
H  H32  1  0.49014000  0.49105000  0.31105000  0.513 0.0707187339
H  H33  1  0.19185000  0.21050000  0.06660000  0.513 0.0873286013
H  H34  1  0.30815000  0.78950000  0.56660000  0.513 0.0873286013
H  H35  1  0.03950000  0.94185000  0.31660000  0.513 0.0873286013
H  H36  1  0.46050000  0.05815000  0.81660000  0.513 0.0873286013
H  H37  1  0.30815000  0.21050000  0.93340000  0.513 0.0873286013
H  H38  1  0.19185000  0.78950000  0.43340000  0.513 0.0873286013
H  H39  1  0.46050000  0.94185000  0.68340000  0.513 0.0873286013
H  H40  1  0.03950000  0.05815000  0.18340000  0.513 0.0873286013
H  H41  1  0.69185000  0.71050000  0.56660000  0.513 0.0873286013
H  H42  1  0.80815000  0.28950000  0.06660000  0.513 0.0873286013
H  H43  1  0.53950000  0.44185000  0.81660000  0.513 0.0873286013
H  H44  1  0.96050000  0.55815000  0.31660000  0.513 0.0873286013
H  H45  1  0.80815000  0.71050000  0.43340000  0.513 0.0873286013
H  H46  1  0.69185000  0.28950000  0.93340000  0.513 0.0873286013
H  H47  1  0.96050000  0.44185000  0.18340000  0.513 0.0873286013
H  H48  1  0.53950000  0.55815000  0.68340000  0.513 0.0873286013
H  H49  1  0.80815000  0.78950000  0.93340000  0.513 0.0873286013
H  H50  1  0.69185000  0.21050000  0.43340000  0.513 0.0873286013
H  H51  1  0.96050000  0.05815000  0.68340000  0.513 0.0873286013
H  H52  1  0.53950000  0.94185000  0.18340000  0.513 0.0873286013
H  H53  1  0.69185000  0.78950000  0.06660000  0.513 0.0873286013
H  H54  1  0.80815000  0.21050000  0.56660000  0.513 0.0873286013
H  H55  1  0.53950000  0.05815000  0.31660000  0.513 0.0873286013
H  H56  1  0.96050000  0.94185000  0.81660000  0.513 0.0873286013
H  H57  1  0.30815000  0.28950000  0.43340000  0.513 0.0873286013
H  H58  1  0.19185000  0.71050000  0.93340000  0.513 0.0873286013
H  H59  1  0.46050000  0.55815000  0.18340000  0.513 0.0873286013
H  H60  1  0.03950000  0.44185000  0.68340000  0.513 0.0873286013
H  H61  1  0.19185000  0.28950000  0.56660000  0.513 0.0873286013
H  H62  1  0.30815000  0.71050000  0.06660000  0.513 0.0873286013
H  H63  1  0.03950000  0.55815000  0.81660000  0.513 0.0873286013
H  H64  1  0.46050000  0.44185000  0.31660000  0.513 0.0873286013
H  H65  1  0.19421000  0.26588000  0.08222000  0.513 0.0999813507
H  H66  1  0.30579000  0.73412000  0.58222000  0.513 0.0999813507
H  H67  1  0.98412000  0.94421000  0.33222000  0.513 0.0999813507
H  H68  1  0.51588000  0.05579000  0.83222000  0.513 0.0999813507
H  H69  1  0.30579000  0.26588000  0.91778000  0.513 0.0999813507
H  H70  1  0.19421000  0.73412000  0.41778000  0.513 0.0999813507
H  H71  1  0.51588000  0.94421000  0.66778000  0.513 0.0999813507
H  H72  1  0.98412000  0.05579000  0.16778000  0.513 0.0999813507
H  H73  1  0.69421000  0.76588000  0.58222000  0.513 0.0999813507
H  H74  1  0.80579000  0.23412000  0.08222000  0.513 0.0999813507
H  H75  1  0.48412000  0.44421000  0.83222000  0.513 0.0999813507
H  H76  1  0.01588000  0.55579000  0.33222000  0.513 0.0999813507
H  H77  1  0.80579000  0.76588000  0.41778000  0.513 0.0999813507
H  H78  1  0.69421000  0.23412000  0.91778000  0.513 0.0999813507
H  H79  1  0.01588000  0.44421000  0.16778000  0.513 0.0999813507
H  H80  1  0.48412000  0.55579000  0.66778000  0.513 0.0999813507
H  H81  1  0.80579000  0.73412000  0.91778000  0.513 0.0999813507
H  H82  1  0.69421000  0.26588000  0.41778000  0.513 0.0999813507
H  H83  1  0.01588000  0.05579000  0.66778000  0.513 0.0999813507
H  H84  1  0.48412000  0.94421000  0.16778000  0.513 0.0999813507
H  H85  1  0.69421000  0.73412000  0.08222000  0.513 0.0999813507
H  H86  1  0.80579000  0.26588000  0.58222000  0.513 0.0999813507
H  H87  1  0.48412000  0.05579000  0.33222000  0.513 0.0999813507
H  H88  1  0.01588000  0.94421000  0.83222000  0.513 0.0999813507
H  H89  1  0.30579000  0.23412000  0.41778000  0.513 0.0999813507
H  H90  1  0.19421000  0.76588000  0.91778000  0.513 0.0999813507
H  H91  1  0.51588000  0.55579000  0.16778000  0.513 0.0999813507
H  H92  1  0.98412000  0.44421000  0.66778000  0.513 0.0999813507
H  H93  1  0.19421000  0.23412000  0.58222000  0.513 0.0999813507
H  H94  1  0.30579000  0.76588000  0.08222000  0.513 0.0999813507
H  H95  1  0.98412000  0.55579000  0.83222000  0.513 0.0999813507
H  H96  1  0.51588000  0.44421000  0.33222000  0.513 0.0999813507
H  H97  1  0.29641000  0.25291000  0.05189000  0.513 0.0643318205
H  H98  1  0.20359000  0.74709000  0.55189000  0.513 0.0643318205
H  H99  1  0.99709000  0.04641000  0.30189000  0.513 0.0643318205
H  H100  1  0.50291000  0.95359000  0.80189000  0.513 0.0643318205
H  H101  1  0.20359000  0.25291000  0.94811000  0.513 0.0643318205
H  H102  1  0.29641000  0.74709000  0.44811000  0.513 0.0643318205
H  H103  1  0.50291000  0.04641000  0.69811000  0.513 0.0643318205
H  H104  1  0.99709000  0.95359000  0.19811000  0.513 0.0643318205
H  H105  1  0.79641000  0.75291000  0.55189000  0.513 0.0643318205
H  H106  1  0.70359000  0.24709000  0.05189000  0.513 0.0643318205
H  H107  1  0.49709000  0.54641000  0.80189000  0.513 0.0643318205
H  H108  1  0.00291000  0.45359000  0.30189000  0.513 0.0643318205
H  H109  1  0.70359000  0.75291000  0.44811000  0.513 0.0643318205
H  H110  1  0.79641000  0.24709000  0.94811000  0.513 0.0643318205
H  H111  1  0.00291000  0.54641000  0.19811000  0.513 0.0643318205
H  H112  1  0.49709000  0.45359000  0.69811000  0.513 0.0643318205
H  H113  1  0.70359000  0.74709000  0.94811000  0.513 0.0643318205
H  H114  1  0.79641000  0.25291000  0.44811000  0.513 0.0643318205
H  H115  1  0.00291000  0.95359000  0.69811000  0.513 0.0643318205
H  H116  1  0.49709000  0.04641000  0.19811000  0.513 0.0643318205
H  H117  1  0.79641000  0.74709000  0.05189000  0.513 0.0643318205
H  H118  1  0.70359000  0.25291000  0.55189000  0.513 0.0643318205
H  H119  1  0.49709000  0.95359000  0.30189000  0.513 0.0643318205
H  H120  1  0.00291000  0.04641000  0.80189000  0.513 0.0643318205
H  H121  1  0.20359000  0.24709000  0.44811000  0.513 0.0643318205
H  H122  1  0.29641000  0.75291000  0.94811000  0.513 0.0643318205
H  H123  1  0.50291000  0.45359000  0.19811000  0.513 0.0643318205
H  H124  1  0.99709000  0.54641000  0.69811000  0.513 0.0643318205
H  H125  1  0.29641000  0.24709000  0.55189000  0.513 0.0643318205
H  H126  1  0.20359000  0.75291000  0.05189000  0.513 0.0643318205
H  H127  1  0.99709000  0.45359000  0.80189000  0.513 0.0643318205
H  H128  1  0.50291000  0.54641000  0.30189000  0.513 0.0643318205
H  H129  1  0.34082000  0.28225000  0.07359000  0.513 0.1095383151
H  H130  1  0.15918000  0.71775000  0.57359000  0.513 0.1095383151
H  H131  1  0.96775000  0.09082000  0.32359000  0.513 0.1095383151
H  H132  1  0.53225000  0.90918000  0.82359000  0.513 0.1095383151
H  H133  1  0.15918000  0.28225000  0.92641000  0.513 0.1095383151
H  H134  1  0.34082000  0.71775000  0.42641000  0.513 0.1095383151
H  H135  1  0.53225000  0.09082000  0.67641000  0.513 0.1095383151
H  H136  1  0.96775000  0.90918000  0.17641000  0.513 0.1095383151
H  H137  1  0.84082000  0.78225000  0.57359000  0.513 0.1095383151
H  H138  1  0.65918000  0.21775000  0.07359000  0.513 0.1095383151
H  H139  1  0.46775000  0.59082000  0.82359000  0.513 0.1095383151
H  H140  1  0.03225000  0.40918000  0.32359000  0.513 0.1095383151
H  H141  1  0.65918000  0.78225000  0.42641000  0.513 0.1095383151
H  H142  1  0.84082000  0.21775000  0.92641000  0.513 0.1095383151
H  H143  1  0.03225000  0.59082000  0.17641000  0.513 0.1095383151
H  H144  1  0.46775000  0.40918000  0.67641000  0.513 0.1095383151
H  H145  1  0.65918000  0.71775000  0.92641000  0.513 0.1095383151
H  H146  1  0.84082000  0.28225000  0.42641000  0.513 0.1095383151
H  H147  1  0.03225000  0.90918000  0.67641000  0.513 0.1095383151
H  H148  1  0.46775000  0.09082000  0.17641000  0.513 0.1095383151
H  H149  1  0.84082000  0.71775000  0.07359000  0.513 0.1095383151
H  H150  1  0.65918000  0.28225000  0.57359000  0.513 0.1095383151
H  H151  1  0.46775000  0.90918000  0.32359000  0.513 0.1095383151
H  H152  1  0.03225000  0.09082000  0.82359000  0.513 0.1095383151
H  H153  1  0.15918000  0.21775000  0.42641000  0.513 0.1095383151
H  H154  1  0.34082000  0.78225000  0.92641000  0.513 0.1095383151
H  H155  1  0.53225000  0.40918000  0.17641000  0.513 0.1095383151
H  H156  1  0.96775000  0.59082000  0.67641000  0.513 0.1095383151
H  H157  1  0.34082000  0.21775000  0.57359000  0.513 0.1095383151
H  H158  1  0.15918000  0.78225000  0.07359000  0.513 0.1095383151
H  H159  1  0.96775000  0.40918000  0.82359000  0.513 0.1095383151
H  H160  1  0.53225000  0.59082000  0.32359000  0.513 0.1095383151
H  H161  1  0.34899000  0.22914000  0.05313000  0.513 0.0999813507
H  H162  1  0.15101000  0.77086000  0.55313000  0.513 0.0999813507
H  H163  1  0.02086000  0.09899000  0.30313000  0.513 0.0999813507
H  H164  1  0.47914000  0.90101000  0.80313000  0.513 0.0999813507
H  H165  1  0.15101000  0.22914000  0.94687000  0.513 0.0999813507
H  H166  1  0.34899000  0.77086000  0.44687000  0.513 0.0999813507
H  H167  1  0.47914000  0.09899000  0.69687000  0.513 0.0999813507
H  H168  1  0.02086000  0.90101000  0.19687000  0.513 0.0999813507
H  H169  1  0.84900000  0.72914000  0.55313000  0.513 0.0999813507
H  H170  1  0.65101000  0.27086000  0.05313000  0.513 0.0999813507
H  H171  1  0.52086000  0.59900000  0.80313000  0.513 0.0999813507
H  H172  1  0.97914000  0.40101000  0.30313000  0.513 0.0999813507
H  H173  1  0.65101000  0.72914000  0.44687000  0.513 0.0999813507
H  H174  1  0.84900000  0.27086000  0.94687000  0.513 0.0999813507
H  H175  1  0.97914000  0.59900000  0.19687000  0.513 0.0999813507
H  H176  1  0.52086000  0.40101000  0.69687000  0.513 0.0999813507
H  H177  1  0.65101000  0.77086000  0.94687000  0.513 0.0999813507
H  H178  1  0.84900000  0.22914000  0.44687000  0.513 0.0999813507
H  H179  1  0.97914000  0.90101000  0.69687000  0.513 0.0999813507
H  H180  1  0.52086000  0.09899000  0.19687000  0.513 0.0999813507
H  H181  1  0.84900000  0.77086000  0.05313000  0.513 0.0999813507
H  H182  1  0.65101000  0.22914000  0.55313000  0.513 0.0999813507
H  H183  1  0.52086000  0.90101000  0.30313000  0.513 0.0999813507
H  H184  1  0.97914000  0.09899000  0.80313000  0.513 0.0999813507
H  H185  1  0.15101000  0.27086000  0.44687000  0.513 0.0999813507
H  H186  1  0.34899000  0.72914000  0.94687000  0.513 0.0999813507
H  H187  1  0.47914000  0.40101000  0.19687000  0.513 0.0999813507
H  H188  1  0.02086000  0.59900000  0.69687000  0.513 0.0999813507
H  H189  1  0.34899000  0.27086000  0.55313000  0.513 0.0999813507
H  H190  1  0.15101000  0.72914000  0.05313000  0.513 0.0999813507
H  H191  1  0.02086000  0.40101000  0.80313000  0.513 0.0999813507
H  H192  1  0.47914000  0.59900000  0.30313000  0.513 0.0999813507
C  C449  1  0.40875000  0.23762000  0.12365000  1.0 0.5096197038
C  C450  1  0.09125000  0.76238000  0.62365000  1.0 0.5096197038
C  C451  1  0.01238000  0.15875000  0.37365000  1.0 0.5096197038
C  C452  1  0.48762000  0.84125000  0.87365000  1.0 0.5096197038
C  C453  1  0.09125000  0.23762000  0.87635000  1.0 0.5096197038
C  C454  1  0.40875000  0.76238000  0.37635000  1.0 0.5096197038
C  C455  1  0.48762000  0.15875000  0.62635000  1.0 0.5096197038
C  C456  1  0.01238000  0.84125000  0.12635000  1.0 0.5096197038
C  C457  1  0.90875000  0.73762000  0.62365000  1.0 0.5096197038
C  C458  1  0.59125000  0.26238000  0.12365000  1.0 0.5096197038
C  C459  1  0.51238000  0.65875000  0.87365000  1.0 0.5096197038
C  C460  1  0.98762000  0.34125000  0.37365000  1.0 0.5096197038
C  C461  1  0.59125000  0.73762000  0.37635000  1.0 0.5096197038
C  C462  1  0.90875000  0.26238000  0.87635000  1.0 0.5096197038
C  C463  1  0.98762000  0.65875000  0.12635000  1.0 0.5096197038
C  C464  1  0.51238000  0.34125000  0.62635000  1.0 0.5096197038
C  C465  1  0.59125000  0.76238000  0.87635000  1.0 0.5096197038
C  C466  1  0.90875000  0.23762000  0.37635000  1.0 0.5096197038
C  C467  1  0.98762000  0.84125000  0.62635000  1.0 0.5096197038
C  C468  1  0.51238000  0.15875000  0.12635000  1.0 0.5096197038
C  C469  1  0.90875000  0.76238000  0.12365000  1.0 0.5096197038
C  C470  1  0.59125000  0.23762000  0.62365000  1.0 0.5096197038
C  C471  1  0.51238000  0.84125000  0.37365000  1.0 0.5096197038
C  C472  1  0.98762000  0.15875000  0.87365000  1.0 0.5096197038
C  C473  1  0.09125000  0.26238000  0.37635000  1.0 0.5096197038
C  C474  1  0.40875000  0.73762000  0.87635000  1.0 0.5096197038
C  C475  1  0.48762000  0.34125000  0.12635000  1.0 0.5096197038
C  C476  1  0.01238000  0.65875000  0.62635000  1.0 0.5096197038
C  C477  1  0.40875000  0.26238000  0.62365000  1.0 0.5096197038
C  C478  1  0.09125000  0.73762000  0.12365000  1.0 0.5096197038
C  C479  1  0.01238000  0.34125000  0.87365000  1.0 0.5096197038
C  C480  1  0.48762000  0.65875000  0.37365000  1.0 0.5096197038
C  C481  1  0.02664000  0.22365000  0.22514000  1.0 0.1347352731
C  C482  1  0.47336000  0.77635000  0.72514000  1.0 0.1347352731
C  C483  1  0.02635000  0.77664000  0.47514000  1.0 0.1347352731
C  C484  1  0.47365000  0.22336000  0.97514000  1.0 0.1347352731
C  C485  1  0.47336000  0.22365000  0.77486000  1.0 0.1347352731
C  C486  1  0.02664000  0.77635000  0.27486000  1.0 0.1347352731
C  C487  1  0.47365000  0.77664000  0.52486000  1.0 0.1347352731
C  C488  1  0.02635000  0.22336000  0.02486000  1.0 0.1347352731
C  C489  1  0.52664000  0.72365000  0.72514000  1.0 0.1347352731
C  C490  1  0.97336000  0.27635000  0.22514000  1.0 0.1347352731
C  C491  1  0.52635000  0.27664000  0.97514000  1.0 0.1347352731
C  C492  1  0.97365000  0.72336000  0.47514000  1.0 0.1347352731
C  C493  1  0.97336000  0.72365000  0.27486000  1.0 0.1347352731
C  C494  1  0.52664000  0.27635000  0.77486000  1.0 0.1347352731
C  C495  1  0.97365000  0.27664000  0.02486000  1.0 0.1347352731
C  C496  1  0.52635000  0.72336000  0.52486000  1.0 0.1347352731
C  C497  1  0.97336000  0.77635000  0.77486000  1.0 0.1347352731
C  C498  1  0.52664000  0.22365000  0.27486000  1.0 0.1347352731
C  C499  1  0.97365000  0.22336000  0.52486000  1.0 0.1347352731
C  C500  1  0.52635000  0.77664000  0.02486000  1.0 0.1347352731
C  C501  1  0.52664000  0.77635000  0.22514000  1.0 0.1347352731
C  C502  1  0.97336000  0.22365000  0.72514000  1.0 0.1347352731
C  C503  1  0.52635000  0.22336000  0.47514000  1.0 0.1347352731
C  C504  1  0.97365000  0.77664000  0.97514000  1.0 0.1347352731
C  C505  1  0.47336000  0.27635000  0.27486000  1.0 0.1347352731
C  C506  1  0.02664000  0.72365000  0.77486000  1.0 0.1347352731
C  C507  1  0.47365000  0.72336000  0.02486000  1.0 0.1347352731
C  C508  1  0.02635000  0.27664000  0.52486000  1.0 0.1347352731
C  C509  1  0.02664000  0.27635000  0.72514000  1.0 0.1347352731
C  C510  1  0.47336000  0.72365000  0.22514000  1.0 0.1347352731
C  C511  1  0.02635000  0.72336000  0.97514000  1.0 0.1347352731
C  C512  1  0.47365000  0.27664000  0.47514000  1.0 0.1347352731
C  C513  1  0.27366000  0.22620000  0.12580000  1.0 -0.0607576191
C  C514  1  0.22634000  0.77380000  0.62580000  1.0 -0.0607576191
C  C515  1  0.02380000  0.02366000  0.37580000  1.0 -0.0607576191
C  C516  1  0.47620000  0.97634000  0.87580000  1.0 -0.0607576191
C  C517  1  0.22634000  0.22620000  0.87420000  1.0 -0.0607576191
C  C518  1  0.27366000  0.77380000  0.37420000  1.0 -0.0607576191
C  C519  1  0.47620000  0.02366000  0.62420000  1.0 -0.0607576191
C  C520  1  0.02380000  0.97634000  0.12420000  1.0 -0.0607576191
C  C521  1  0.77366000  0.72620000  0.62580000  1.0 -0.0607576191
C  C522  1  0.72634000  0.27380000  0.12580000  1.0 -0.0607576191
C  C523  1  0.52380000  0.52366000  0.87580000  1.0 -0.0607576191
C  C524  1  0.97620000  0.47634000  0.37580000  1.0 -0.0607576191
C  C525  1  0.72634000  0.72620000  0.37420000  1.0 -0.0607576191
C  C526  1  0.77366000  0.27380000  0.87420000  1.0 -0.0607576191
C  C527  1  0.97620000  0.52366000  0.12420000  1.0 -0.0607576191
C  C528  1  0.52380000  0.47634000  0.62420000  1.0 -0.0607576191
C  C529  1  0.72634000  0.77380000  0.87420000  1.0 -0.0607576191
C  C530  1  0.77366000  0.22620000  0.37420000  1.0 -0.0607576191
C  C531  1  0.97620000  0.97634000  0.62420000  1.0 -0.0607576191
C  C532  1  0.52380000  0.02366000  0.12420000  1.0 -0.0607576191
C  C533  1  0.77366000  0.77380000  0.12580000  1.0 -0.0607576191
C  C534  1  0.72634000  0.22620000  0.62580000  1.0 -0.0607576191
C  C535  1  0.52380000  0.97634000  0.37580000  1.0 -0.0607576191
C  C536  1  0.97620000  0.02366000  0.87580000  1.0 -0.0607576191
C  C537  1  0.22634000  0.27380000  0.37420000  1.0 -0.0607576191
C  C538  1  0.27366000  0.72620000  0.87420000  1.0 -0.0607576191
C  C539  1  0.47620000  0.47634000  0.12420000  1.0 -0.0607576191
C  C540  1  0.02380000  0.52366000  0.62420000  1.0 -0.0607576191
C  C541  1  0.27366000  0.27380000  0.62580000  1.0 -0.0607576191
C  C542  1  0.22634000  0.72620000  0.12580000  1.0 -0.0607576191
C  C543  1  0.02380000  0.47634000  0.87580000  1.0 -0.0607576191
C  C544  1  0.47620000  0.52366000  0.37580000  1.0 -0.0607576191
C  C545  1  0.35560000  0.23180000  0.12590000  1.0 -0.10983402
C  C546  1  0.14440000  0.76820000  0.62590000  1.0 -0.10983402
C  C547  1  0.01820000  0.10560000  0.37590000  1.0 -0.10983402
C  C548  1  0.48180000  0.89440000  0.87590000  1.0 -0.10983402
C  C549  1  0.14440000  0.23180000  0.87410000  1.0 -0.10983402
C  C550  1  0.35560000  0.76820000  0.37410000  1.0 -0.10983402
C  C551  1  0.48180000  0.10560000  0.62410000  1.0 -0.10983402
C  C552  1  0.01820000  0.89440000  0.12410000  1.0 -0.10983402
C  C553  1  0.85560000  0.73180000  0.62590000  1.0 -0.10983402
C  C554  1  0.64440000  0.26820000  0.12590000  1.0 -0.10983402
C  C555  1  0.51820000  0.60560000  0.87590000  1.0 -0.10983402
C  C556  1  0.98180000  0.39440000  0.37590000  1.0 -0.10983402
C  C557  1  0.64440000  0.73180000  0.37410000  1.0 -0.10983402
C  C558  1  0.85560000  0.26820000  0.87410000  1.0 -0.10983402
C  C559  1  0.98180000  0.60560000  0.12410000  1.0 -0.10983402
C  C560  1  0.51820000  0.39440000  0.62410000  1.0 -0.10983402
C  C561  1  0.64440000  0.76820000  0.87410000  1.0 -0.10983402
C  C562  1  0.85560000  0.23180000  0.37410000  1.0 -0.10983402
C  C563  1  0.98180000  0.89440000  0.62410000  1.0 -0.10983402
C  C564  1  0.51820000  0.10560000  0.12410000  1.0 -0.10983402
C  C565  1  0.85560000  0.76820000  0.12590000  1.0 -0.10983402
C  C566  1  0.64440000  0.23180000  0.62590000  1.0 -0.10983402
C  C567  1  0.51820000  0.89440000  0.37590000  1.0 -0.10983402
C  C568  1  0.98180000  0.10560000  0.87590000  1.0 -0.10983402
C  C569  1  0.14440000  0.26820000  0.37410000  1.0 -0.10983402
C  C570  1  0.35560000  0.73180000  0.87410000  1.0 -0.10983402
C  C571  1  0.48180000  0.39440000  0.12410000  1.0 -0.10983402
C  C572  1  0.01820000  0.60560000  0.62410000  1.0 -0.10983402
C  C573  1  0.35560000  0.26820000  0.62590000  1.0 -0.10983402
C  C574  1  0.14440000  0.73180000  0.12590000  1.0 -0.10983402
C  C575  1  0.01820000  0.39440000  0.87590000  1.0 -0.10983402
C  C576  1  0.48180000  0.60560000  0.37590000  1.0 -0.10983402
C  C225  1  0.14060000  0.20690000  0.10060000  0.487 0.2566795631
C  C226  1  0.35940000  0.79310000  0.60060000  0.487 0.2566795631
C  C227  1  0.04310000  0.89060000  0.35060000  0.487 0.2566795631
C  C228  1  0.45690000  0.10940000  0.85060000  0.487 0.2566795631
C  C229  1  0.35940000  0.20690000  0.89940000  0.487 0.2566795631
C  C230  1  0.14060000  0.79310000  0.39940000  0.487 0.2566795631
C  C231  1  0.45690000  0.89060000  0.64940000  0.487 0.2566795631
C  C232  1  0.04310000  0.10940000  0.14940000  0.487 0.2566795631
C  C233  1  0.64060000  0.70690000  0.60060000  0.487 0.2566795631
C  C234  1  0.85940000  0.29310000  0.10060000  0.487 0.2566795631
C  C235  1  0.54310000  0.39060000  0.85060000  0.487 0.2566795631
C  C236  1  0.95690000  0.60940000  0.35060000  0.487 0.2566795631
C  C237  1  0.85940000  0.70690000  0.39940000  0.487 0.2566795631
C  C238  1  0.64060000  0.29310000  0.89940000  0.487 0.2566795631
C  C239  1  0.95690000  0.39060000  0.14940000  0.487 0.2566795631
C  C240  1  0.54310000  0.60940000  0.64940000  0.487 0.2566795631
C  C241  1  0.85940000  0.79310000  0.89940000  0.487 0.2566795631
C  C242  1  0.64060000  0.20690000  0.39940000  0.487 0.2566795631
C  C243  1  0.95690000  0.10940000  0.64940000  0.487 0.2566795631
C  C244  1  0.54310000  0.89060000  0.14940000  0.487 0.2566795631
C  C245  1  0.64060000  0.79310000  0.10060000  0.487 0.2566795631
C  C246  1  0.85940000  0.20690000  0.60060000  0.487 0.2566795631
C  C247  1  0.54310000  0.10940000  0.35060000  0.487 0.2566795631
C  C248  1  0.95690000  0.89060000  0.85060000  0.487 0.2566795631
C  C249  1  0.35940000  0.29310000  0.39940000  0.487 0.2566795631
C  C250  1  0.14060000  0.70690000  0.89940000  0.487 0.2566795631
C  C251  1  0.45690000  0.60940000  0.14940000  0.487 0.2566795631
C  C252  1  0.04310000  0.39060000  0.64940000  0.487 0.2566795631
C  C253  1  0.14060000  0.29310000  0.60060000  0.487 0.2566795631
C  C254  1  0.35940000  0.70690000  0.10060000  0.487 0.2566795631
C  C255  1  0.04310000  0.60940000  0.85060000  0.487 0.2566795631
C  C256  1  0.45690000  0.39060000  0.35060000  0.487 0.2566795631
C  C257  1  0.19500000  0.21270000  0.10350000  0.487 -0.0513302788
C  C258  1  0.30500000  0.78730000  0.60350000  0.487 -0.0513302788
C  C259  1  0.03730000  0.94500000  0.35350000  0.487 -0.0513302788
C  C260  1  0.46270000  0.05500000  0.85350000  0.487 -0.0513302788
C  C261  1  0.30500000  0.21270000  0.89650000  0.487 -0.0513302788
C  C262  1  0.19500000  0.78730000  0.39650000  0.487 -0.0513302788
C  C263  1  0.46270000  0.94500000  0.64650000  0.487 -0.0513302788
C  C264  1  0.03730000  0.05500000  0.14650000  0.487 -0.0513302788
C  C265  1  0.69500000  0.71270000  0.60350000  0.487 -0.0513302788
C  C266  1  0.80500000  0.28730000  0.10350000  0.487 -0.0513302788
C  C267  1  0.53730000  0.44500000  0.85350000  0.487 -0.0513302788
C  C268  1  0.96270000  0.55500000  0.35350000  0.487 -0.0513302788
C  C269  1  0.80500000  0.71270000  0.39650000  0.487 -0.0513302788
C  C270  1  0.69500000  0.28730000  0.89650000  0.487 -0.0513302788
C  C271  1  0.96270000  0.44500000  0.14650000  0.487 -0.0513302788
C  C272  1  0.53730000  0.55500000  0.64650000  0.487 -0.0513302788
C  C273  1  0.80500000  0.78730000  0.89650000  0.487 -0.0513302788
C  C274  1  0.69500000  0.21270000  0.39650000  0.487 -0.0513302788
C  C275  1  0.96270000  0.05500000  0.64650000  0.487 -0.0513302788
C  C276  1  0.53730000  0.94500000  0.14650000  0.487 -0.0513302788
C  C277  1  0.69500000  0.78730000  0.10350000  0.487 -0.0513302788
C  C278  1  0.80500000  0.21270000  0.60350000  0.487 -0.0513302788
C  C279  1  0.53730000  0.05500000  0.35350000  0.487 -0.0513302788
C  C280  1  0.96270000  0.94500000  0.85350000  0.487 -0.0513302788
C  C281  1  0.30500000  0.28730000  0.39650000  0.487 -0.0513302788
C  C282  1  0.19500000  0.71270000  0.89650000  0.487 -0.0513302788
C  C283  1  0.46270000  0.55500000  0.14650000  0.487 -0.0513302788
C  C284  1  0.03730000  0.44500000  0.64650000  0.487 -0.0513302788
C  C285  1  0.19500000  0.28730000  0.60350000  0.487 -0.0513302788
C  C286  1  0.30500000  0.71270000  0.10350000  0.487 -0.0513302788
C  C287  1  0.03730000  0.55500000  0.85350000  0.487 -0.0513302788
C  C288  1  0.46270000  0.44500000  0.35350000  0.487 -0.0513302788
C  C289  1  0.22140000  0.22300000  0.14110000  0.487 0.0414939649
C  C290  1  0.27860000  0.77700000  0.64110000  0.487 0.0414939649
C  C291  1  0.02700000  0.97140000  0.39110000  0.487 0.0414939649
C  C292  1  0.47300000  0.02860000  0.89110000  0.487 0.0414939649
C  C293  1  0.27860000  0.22300000  0.85890000  0.487 0.0414939649
C  C294  1  0.22140000  0.77700000  0.35890000  0.487 0.0414939649
C  C295  1  0.47300000  0.97140000  0.60890000  0.487 0.0414939649
C  C296  1  0.02700000  0.02860000  0.10890000  0.487 0.0414939649
C  C297  1  0.72140000  0.72300000  0.64110000  0.487 0.0414939649
C  C298  1  0.77860000  0.27700000  0.14110000  0.487 0.0414939649
C  C299  1  0.52700000  0.47140000  0.89110000  0.487 0.0414939649
C  C300  1  0.97300000  0.52860000  0.39110000  0.487 0.0414939649
C  C301  1  0.77860000  0.72300000  0.35890000  0.487 0.0414939649
C  C302  1  0.72140000  0.27700000  0.85890000  0.487 0.0414939649
C  C303  1  0.97300000  0.47140000  0.10890000  0.487 0.0414939649
C  C304  1  0.52700000  0.52860000  0.60890000  0.487 0.0414939649
C  C305  1  0.77860000  0.77700000  0.85890000  0.487 0.0414939649
C  C306  1  0.72140000  0.22300000  0.35890000  0.487 0.0414939649
C  C307  1  0.97300000  0.02860000  0.60890000  0.487 0.0414939649
C  C308  1  0.52700000  0.97140000  0.10890000  0.487 0.0414939649
C  C309  1  0.72140000  0.77700000  0.14110000  0.487 0.0414939649
C  C310  1  0.77860000  0.22300000  0.64110000  0.487 0.0414939649
C  C311  1  0.52700000  0.02860000  0.39110000  0.487 0.0414939649
C  C312  1  0.97300000  0.97140000  0.89110000  0.487 0.0414939649
C  C313  1  0.27860000  0.27700000  0.35890000  0.487 0.0414939649
C  C314  1  0.22140000  0.72300000  0.85890000  0.487 0.0414939649
C  C315  1  0.47300000  0.52860000  0.10890000  0.487 0.0414939649
C  C316  1  0.02700000  0.47140000  0.60890000  0.487 0.0414939649
C  C317  1  0.22140000  0.27700000  0.64110000  0.487 0.0414939649
C  C318  1  0.27860000  0.72300000  0.14110000  0.487 0.0414939649
C  C319  1  0.02700000  0.52860000  0.89110000  0.487 0.0414939649
C  C320  1  0.47300000  0.47140000  0.39110000  0.487 0.0414939649
C  C321  1  0.27780000  0.21530000  0.08070000  0.487 -0.0607576191
C  C322  1  0.22220000  0.78470000  0.58070000  0.487 -0.0607576191
C  C323  1  0.03470000  0.02780000  0.33070000  0.487 -0.0607576191
C  C324  1  0.46530000  0.97220000  0.83070000  0.487 -0.0607576191
C  C325  1  0.22220000  0.21530000  0.91930000  0.487 -0.0607576191
C  C326  1  0.27780000  0.78470000  0.41930000  0.487 -0.0607576191
C  C327  1  0.46530000  0.02780000  0.66930000  0.487 -0.0607576191
C  C328  1  0.03470000  0.97220000  0.16930000  0.487 -0.0607576191
C  C329  1  0.77780000  0.71530000  0.58070000  0.487 -0.0607576191
C  C330  1  0.72220000  0.28470000  0.08070000  0.487 -0.0607576191
C  C331  1  0.53470000  0.52780000  0.83070000  0.487 -0.0607576191
C  C332  1  0.96530000  0.47220000  0.33070000  0.487 -0.0607576191
C  C333  1  0.72220000  0.71530000  0.41930000  0.487 -0.0607576191
C  C334  1  0.77780000  0.28470000  0.91930000  0.487 -0.0607576191
C  C335  1  0.96530000  0.52780000  0.16930000  0.487 -0.0607576191
C  C336  1  0.53470000  0.47220000  0.66930000  0.487 -0.0607576191
C  C337  1  0.72220000  0.78470000  0.91930000  0.487 -0.0607576191
C  C338  1  0.77780000  0.21530000  0.41930000  0.487 -0.0607576191
C  C339  1  0.96530000  0.97220000  0.66930000  0.487 -0.0607576191
C  C340  1  0.53470000  0.02780000  0.16930000  0.487 -0.0607576191
C  C341  1  0.77780000  0.78470000  0.08070000  0.487 -0.0607576191
C  C342  1  0.72220000  0.21530000  0.58070000  0.487 -0.0607576191
C  C343  1  0.53470000  0.97220000  0.33070000  0.487 -0.0607576191
C  C344  1  0.96530000  0.02780000  0.83070000  0.487 -0.0607576191
C  C345  1  0.22220000  0.28470000  0.41930000  0.487 -0.0607576191
C  C346  1  0.27780000  0.71530000  0.91930000  0.487 -0.0607576191
C  C347  1  0.46530000  0.47220000  0.16930000  0.487 -0.0607576191
C  C348  1  0.03470000  0.52780000  0.66930000  0.487 -0.0607576191
C  C349  1  0.27780000  0.28470000  0.58070000  0.487 -0.0607576191
C  C350  1  0.22220000  0.71530000  0.08070000  0.487 -0.0607576191
C  C351  1  0.03470000  0.47220000  0.83070000  0.487 -0.0607576191
C  C352  1  0.46530000  0.52780000  0.33070000  0.487 -0.0607576191
C  C353  1  0.32060000  0.23410000  0.15300000  0.487 -0.0304310403
C  C354  1  0.17940000  0.76590000  0.65300000  0.487 -0.0304310403
C  C355  1  0.01590000  0.07060000  0.40300000  0.487 -0.0304310403
C  C356  1  0.48410000  0.92940000  0.90300000  0.487 -0.0304310403
C  C357  1  0.17940000  0.23410000  0.84700000  0.487 -0.0304310403
C  C358  1  0.32060000  0.76590000  0.34700000  0.487 -0.0304310403
C  C359  1  0.48410000  0.07060000  0.59700000  0.487 -0.0304310403
C  C360  1  0.01590000  0.92940000  0.09700000  0.487 -0.0304310403
C  C361  1  0.82060000  0.73410000  0.65300000  0.487 -0.0304310403
C  C362  1  0.67940000  0.26590000  0.15300000  0.487 -0.0304310403
C  C363  1  0.51590000  0.57060000  0.90300000  0.487 -0.0304310403
C  C364  1  0.98410000  0.42940000  0.40300000  0.487 -0.0304310403
C  C365  1  0.67940000  0.73410000  0.34700000  0.487 -0.0304310403
C  C366  1  0.82060000  0.26590000  0.84700000  0.487 -0.0304310403
C  C367  1  0.98410000  0.57060000  0.09700000  0.487 -0.0304310403
C  C368  1  0.51590000  0.42940000  0.59700000  0.487 -0.0304310403
C  C369  1  0.67940000  0.76590000  0.84700000  0.487 -0.0304310403
C  C370  1  0.82060000  0.23410000  0.34700000  0.487 -0.0304310403
C  C371  1  0.98410000  0.92940000  0.59700000  0.487 -0.0304310403
C  C372  1  0.51590000  0.07060000  0.09700000  0.487 -0.0304310403
C  C373  1  0.82060000  0.76590000  0.15300000  0.487 -0.0304310403
C  C374  1  0.67940000  0.23410000  0.65300000  0.487 -0.0304310403
C  C375  1  0.51590000  0.92940000  0.40300000  0.487 -0.0304310403
C  C376  1  0.98410000  0.07060000  0.90300000  0.487 -0.0304310403
C  C377  1  0.17940000  0.26590000  0.34700000  0.487 -0.0304310403
C  C378  1  0.32060000  0.73410000  0.84700000  0.487 -0.0304310403
C  C379  1  0.48410000  0.42940000  0.09700000  0.487 -0.0304310403
C  C380  1  0.01590000  0.57060000  0.59700000  0.487 -0.0304310403
C  C381  1  0.32060000  0.26590000  0.65300000  0.487 -0.0304310403
C  C382  1  0.17940000  0.73410000  0.15300000  0.487 -0.0304310403
C  C383  1  0.01590000  0.42940000  0.90300000  0.487 -0.0304310403
C  C384  1  0.48410000  0.57060000  0.40300000  0.487 -0.0304310403
C  C385  1  0.20840000  0.23350000  0.18070000  0.487 -0.1478822536
C  C386  1  0.29160000  0.76650000  0.68070000  0.487 -0.1478822536
C  C387  1  0.01650000  0.95840000  0.43070000  0.487 -0.1478822536
C  C388  1  0.48350000  0.04160000  0.93070000  0.487 -0.1478822536
C  C389  1  0.29160000  0.23350000  0.81930000  0.487 -0.1478822536
C  C390  1  0.20840000  0.76650000  0.31930000  0.487 -0.1478822536
C  C391  1  0.48350000  0.95840000  0.56930000  0.487 -0.1478822536
C  C392  1  0.01650000  0.04160000  0.06930000  0.487 -0.1478822536
C  C393  1  0.70840000  0.73350000  0.68070000  0.487 -0.1478822536
C  C394  1  0.79160000  0.26650000  0.18070000  0.487 -0.1478822536
C  C395  1  0.51650000  0.45840000  0.93070000  0.487 -0.1478822536
C  C396  1  0.98350000  0.54160000  0.43070000  0.487 -0.1478822536
C  C397  1  0.79160000  0.73350000  0.31930000  0.487 -0.1478822536
C  C398  1  0.70840000  0.26650000  0.81930000  0.487 -0.1478822536
C  C399  1  0.98350000  0.45840000  0.06930000  0.487 -0.1478822536
C  C400  1  0.51650000  0.54160000  0.56930000  0.487 -0.1478822536
C  C401  1  0.79160000  0.76650000  0.81930000  0.487 -0.1478822536
C  C402  1  0.70840000  0.23350000  0.31930000  0.487 -0.1478822536
C  C403  1  0.98350000  0.04160000  0.56930000  0.487 -0.1478822536
C  C404  1  0.51650000  0.95840000  0.06930000  0.487 -0.1478822536
C  C405  1  0.70840000  0.76650000  0.18070000  0.487 -0.1478822536
C  C406  1  0.79160000  0.23350000  0.68070000  0.487 -0.1478822536
C  C407  1  0.51650000  0.04160000  0.43070000  0.487 -0.1478822536
C  C408  1  0.98350000  0.95840000  0.93070000  0.487 -0.1478822536
C  C409  1  0.29160000  0.26650000  0.31930000  0.487 -0.1478822536
C  C410  1  0.20840000  0.73350000  0.81930000  0.487 -0.1478822536
C  C411  1  0.48350000  0.54160000  0.06930000  0.487 -0.1478822536
C  C412  1  0.01650000  0.45840000  0.56930000  0.487 -0.1478822536
C  C413  1  0.20840000  0.26650000  0.68070000  0.487 -0.1478822536
C  C414  1  0.29160000  0.73350000  0.18070000  0.487 -0.1478822536
C  C415  1  0.01650000  0.54160000  0.93070000  0.487 -0.1478822536
C  C416  1  0.48350000  0.45840000  0.43070000  0.487 -0.1478822536
C  C417  1  0.32270000  0.25000000  0.19160000  0.487 -0.1660054099
C  C418  1  0.17730000  0.75000000  0.69160000  0.487 -0.1660054099
C  C419  1  0.00000000  0.07270000  0.44160000  0.487 -0.1660054099
C  C420  1  0.50000000  0.92730000  0.94160000  0.487 -0.1660054099
C  C421  1  0.17730000  0.25000000  0.80840000  0.487 -0.1660054099
C  C422  1  0.32270000  0.75000000  0.30840000  0.487 -0.1660054099
C  C423  1  0.50000000  0.07270000  0.55840000  0.487 -0.1660054099
C  C424  1  0.00000000  0.92730000  0.05840000  0.487 -0.1660054099
C  C425  1  0.82270000  0.75000000  0.69160000  0.487 -0.1660054099
C  C426  1  0.67730000  0.25000000  0.19160000  0.487 -0.1660054099
C  C427  1  0.50000000  0.57270000  0.94160000  0.487 -0.1660054099
C  C428  1  0.00000000  0.42730000  0.44160000  0.487 -0.1660054099
C  C429  1  0.67730000  0.75000000  0.30840000  0.487 -0.1660054099
C  C430  1  0.82270000  0.25000000  0.80840000  0.487 -0.1660054099
C  C431  1  0.00000000  0.57270000  0.05840000  0.487 -0.1660054099
C  C432  1  0.50000000  0.42730000  0.55840000  0.487 -0.1660054099
C  C433  1  0.67730000  0.75000000  0.80840000  0.487 -0.1660054099
C  C434  1  0.82270000  0.25000000  0.30840000  0.487 -0.1660054099
C  C435  1  0.00000000  0.92730000  0.55840000  0.487 -0.1660054099
C  C436  1  0.50000000  0.07270000  0.05840000  0.487 -0.1660054099
C  C437  1  0.82270000  0.75000000  0.19160000  0.487 -0.1660054099
C  C438  1  0.67730000  0.25000000  0.69160000  0.487 -0.1660054099
C  C439  1  0.50000000  0.92730000  0.44160000  0.487 -0.1660054099
C  C440  1  0.00000000  0.07270000  0.94160000  0.487 -0.1660054099
C  C441  1  0.17730000  0.25000000  0.30840000  0.487 -0.1660054099
C  C442  1  0.32270000  0.75000000  0.80840000  0.487 -0.1660054099
C  C443  1  0.50000000  0.42730000  0.05840000  0.487 -0.1660054099
C  C444  1  0.00000000  0.57270000  0.55840000  0.487 -0.1660054099
C  C445  1  0.32270000  0.25000000  0.69160000  0.487 -0.1660054099
C  C446  1  0.17730000  0.75000000  0.19160000  0.487 -0.1660054099
C  C447  1  0.00000000  0.42730000  0.94160000  0.487 -0.1660054099
C  C448  1  0.50000000  0.57270000  0.44160000  0.487 -0.1660054099
C  C1  1  0.14190000  0.20620000  0.15070000  0.513 0.2495928214
C  C2  1  0.35810000  0.79380000  0.65070000  0.513 0.2495928214
C  C3  1  0.04380000  0.89190000  0.40070000  0.513 0.2495928214
C  C4  1  0.45620000  0.10810000  0.90070000  0.513 0.2495928214
C  C5  1  0.35810000  0.20620000  0.84930000  0.513 0.2495928214
C  C6  1  0.14190000  0.79380000  0.34930000  0.513 0.2495928214
C  C7  1  0.45620000  0.89190000  0.59930000  0.513 0.2495928214
C  C8  1  0.04380000  0.10810000  0.09930000  0.513 0.2495928214
C  C9  1  0.64190000  0.70620000  0.65070000  0.513 0.2495928214
C  C10  1  0.85810000  0.29380000  0.15070000  0.513 0.2495928214
C  C11  1  0.54380000  0.39190000  0.90070000  0.513 0.2495928214
C  C12  1  0.95620000  0.60810000  0.40070000  0.513 0.2495928214
C  C13  1  0.85810000  0.70620000  0.34930000  0.513 0.2495928214
C  C14  1  0.64190000  0.29380000  0.84930000  0.513 0.2495928214
C  C15  1  0.95620000  0.39190000  0.09930000  0.513 0.2495928214
C  C16  1  0.54380000  0.60810000  0.59930000  0.513 0.2495928214
C  C17  1  0.85810000  0.79380000  0.84930000  0.513 0.2495928214
C  C18  1  0.64190000  0.20620000  0.34930000  0.513 0.2495928214
C  C19  1  0.95620000  0.10810000  0.59930000  0.513 0.2495928214
C  C20  1  0.54380000  0.89190000  0.09930000  0.513 0.2495928214
C  C21  1  0.64190000  0.79380000  0.15070000  0.513 0.2495928214
C  C22  1  0.85810000  0.20620000  0.65070000  0.513 0.2495928214
C  C23  1  0.54380000  0.10810000  0.40070000  0.513 0.2495928214
C  C24  1  0.95620000  0.89190000  0.90070000  0.513 0.2495928214
C  C25  1  0.35810000  0.29380000  0.34930000  0.513 0.2495928214
C  C26  1  0.14190000  0.70620000  0.84930000  0.513 0.2495928214
C  C27  1  0.45620000  0.60810000  0.09930000  0.513 0.2495928214
C  C28  1  0.04380000  0.39190000  0.59930000  0.513 0.2495928214
C  C29  1  0.14190000  0.29380000  0.65070000  0.513 0.2495928214
C  C30  1  0.35810000  0.70620000  0.15070000  0.513 0.2495928214
C  C31  1  0.04380000  0.60810000  0.90070000  0.513 0.2495928214
C  C32  1  0.45620000  0.39190000  0.40070000  0.513 0.2495928214
C  C33  1  0.19520000  0.21600000  0.14850000  0.513 -0.0440930808
C  C34  1  0.30480000  0.78400000  0.64850000  0.513 -0.0440930808
C  C35  1  0.03400000  0.94520000  0.39850000  0.513 -0.0440930808
C  C36  1  0.46600000  0.05480000  0.89850000  0.513 -0.0440930808
C  C37  1  0.30480000  0.21600000  0.85150000  0.513 -0.0440930808
C  C38  1  0.19520000  0.78400000  0.35150000  0.513 -0.0440930808
C  C39  1  0.46600000  0.94520000  0.60150000  0.513 -0.0440930808
C  C40  1  0.03400000  0.05480000  0.10150000  0.513 -0.0440930808
C  C41  1  0.69520000  0.71600000  0.64850000  0.513 -0.0440930808
C  C42  1  0.80480000  0.28400000  0.14850000  0.513 -0.0440930808
C  C43  1  0.53400000  0.44520000  0.89850000  0.513 -0.0440930808
C  C44  1  0.96600000  0.55480000  0.39850000  0.513 -0.0440930808
C  C45  1  0.80480000  0.71600000  0.35150000  0.513 -0.0440930808
C  C46  1  0.69520000  0.28400000  0.85150000  0.513 -0.0440930808
C  C47  1  0.96600000  0.44520000  0.10150000  0.513 -0.0440930808
C  C48  1  0.53400000  0.55480000  0.60150000  0.513 -0.0440930808
C  C49  1  0.80480000  0.78400000  0.85150000  0.513 -0.0440930808
C  C50  1  0.69520000  0.21600000  0.35150000  0.513 -0.0440930808
C  C51  1  0.96600000  0.05480000  0.60150000  0.513 -0.0440930808
C  C52  1  0.53400000  0.94520000  0.10150000  0.513 -0.0440930808
C  C53  1  0.69520000  0.78400000  0.14850000  0.513 -0.0440930808
C  C54  1  0.80480000  0.21600000  0.64850000  0.513 -0.0440930808
C  C55  1  0.53400000  0.05480000  0.39850000  0.513 -0.0440930808
C  C56  1  0.96600000  0.94520000  0.89850000  0.513 -0.0440930808
C  C57  1  0.30480000  0.28400000  0.35150000  0.513 -0.0440930808
C  C58  1  0.19520000  0.71600000  0.85150000  0.513 -0.0440930808
C  C59  1  0.46600000  0.55480000  0.10150000  0.513 -0.0440930808
C  C60  1  0.03400000  0.44520000  0.60150000  0.513 -0.0440930808
C  C61  1  0.19520000  0.28400000  0.64850000  0.513 -0.0440930808
C  C62  1  0.30480000  0.71600000  0.14850000  0.513 -0.0440930808
C  C63  1  0.03400000  0.55480000  0.89850000  0.513 -0.0440930808
C  C64  1  0.46600000  0.44520000  0.39850000  0.513 -0.0440930808
C  C65  1  0.22300000  0.22470000  0.11530000  0.513 0.0238976692
C  C66  1  0.27700000  0.77530000  0.61530000  0.513 0.0238976692
C  C67  1  0.02530000  0.97300000  0.36530000  0.513 0.0238976692
C  C68  1  0.47470000  0.02700000  0.86530000  0.513 0.0238976692
C  C69  1  0.27700000  0.22470000  0.88470000  0.513 0.0238976692
C  C70  1  0.22300000  0.77530000  0.38470000  0.513 0.0238976692
C  C71  1  0.47470000  0.97300000  0.63470000  0.513 0.0238976692
C  C72  1  0.02530000  0.02700000  0.13470000  0.513 0.0238976692
C  C73  1  0.72300000  0.72470000  0.61530000  0.513 0.0238976692
C  C74  1  0.77700000  0.27530000  0.11530000  0.513 0.0238976692
C  C75  1  0.52530000  0.47300000  0.86530000  0.513 0.0238976692
C  C76  1  0.97470000  0.52700000  0.36530000  0.513 0.0238976692
C  C77  1  0.77700000  0.72470000  0.38470000  0.513 0.0238976692
C  C78  1  0.72300000  0.27530000  0.88470000  0.513 0.0238976692
C  C79  1  0.97470000  0.47300000  0.13470000  0.513 0.0238976692
C  C80  1  0.52530000  0.52700000  0.63470000  0.513 0.0238976692
C  C81  1  0.77700000  0.77530000  0.88470000  0.513 0.0238976692
C  C82  1  0.72300000  0.22470000  0.38470000  0.513 0.0238976692
C  C83  1  0.97470000  0.02700000  0.63470000  0.513 0.0238976692
C  C84  1  0.52530000  0.97300000  0.13470000  0.513 0.0238976692
C  C85  1  0.72300000  0.77530000  0.11530000  0.513 0.0238976692
C  C86  1  0.77700000  0.22470000  0.61530000  0.513 0.0238976692
C  C87  1  0.52530000  0.02700000  0.36530000  0.513 0.0238976692
C  C88  1  0.97470000  0.97300000  0.86530000  0.513 0.0238976692
C  C89  1  0.27700000  0.27530000  0.38470000  0.513 0.0238976692
C  C90  1  0.22300000  0.72470000  0.88470000  0.513 0.0238976692
C  C91  1  0.47470000  0.52700000  0.13470000  0.513 0.0238976692
C  C92  1  0.02530000  0.47300000  0.63470000  0.513 0.0238976692
C  C93  1  0.22300000  0.27530000  0.61530000  0.513 0.0238976692
C  C94  1  0.27700000  0.72470000  0.11530000  0.513 0.0238976692
C  C95  1  0.02530000  0.52700000  0.86530000  0.513 0.0238976692
C  C96  1  0.47470000  0.47300000  0.36530000  0.513 0.0238976692
C  C97  1  0.27830000  0.22070000  0.16890000  0.513 -0.0513302788
C  C98  1  0.22170000  0.77930000  0.66890000  0.513 -0.0513302788
C  C99  1  0.02930000  0.02830000  0.41890000  0.513 -0.0513302788
C  C100  1  0.47070000  0.97170000  0.91890000  0.513 -0.0513302788
C  C101  1  0.22170000  0.22070000  0.83110000  0.513 -0.0513302788
C  C102  1  0.27830000  0.77930000  0.33110000  0.513 -0.0513302788
C  C103  1  0.47070000  0.02830000  0.58110000  0.513 -0.0513302788
C  C104  1  0.02930000  0.97170000  0.08110000  0.513 -0.0513302788
C  C105  1  0.77830000  0.72070000  0.66890000  0.513 -0.0513302788
C  C106  1  0.72170000  0.27930000  0.16890000  0.513 -0.0513302788
C  C107  1  0.52930000  0.52830000  0.91890000  0.513 -0.0513302788
C  C108  1  0.97070000  0.47170000  0.41890000  0.513 -0.0513302788
C  C109  1  0.72170000  0.72070000  0.33110000  0.513 -0.0513302788
C  C110  1  0.77830000  0.27930000  0.83110000  0.513 -0.0513302788
C  C111  1  0.97070000  0.52830000  0.08110000  0.513 -0.0513302788
C  C112  1  0.52930000  0.47170000  0.58110000  0.513 -0.0513302788
C  C113  1  0.72170000  0.77930000  0.83110000  0.513 -0.0513302788
C  C114  1  0.77830000  0.22070000  0.33110000  0.513 -0.0513302788
C  C115  1  0.97070000  0.97170000  0.58110000  0.513 -0.0513302788
C  C116  1  0.52930000  0.02830000  0.08110000  0.513 -0.0513302788
C  C117  1  0.77830000  0.77930000  0.16890000  0.513 -0.0513302788
C  C118  1  0.72170000  0.22070000  0.66890000  0.513 -0.0513302788
C  C119  1  0.52930000  0.97170000  0.41890000  0.513 -0.0513302788
C  C120  1  0.97070000  0.02830000  0.91890000  0.513 -0.0513302788
C  C121  1  0.22170000  0.27930000  0.33110000  0.513 -0.0513302788
C  C122  1  0.27830000  0.72070000  0.83110000  0.513 -0.0513302788
C  C123  1  0.47070000  0.47170000  0.08110000  0.513 -0.0513302788
C  C124  1  0.02930000  0.52830000  0.58110000  0.513 -0.0513302788
C  C125  1  0.27830000  0.27930000  0.66890000  0.513 -0.0513302788
C  C126  1  0.22170000  0.72070000  0.16890000  0.513 -0.0513302788
C  C127  1  0.02930000  0.47170000  0.91890000  0.513 -0.0513302788
C  C128  1  0.47070000  0.52830000  0.41890000  0.513 -0.0513302788
C  C129  1  0.31880000  0.23520000  0.10380000  0.513 -0.0057124212
C  C130  1  0.18120000  0.76480000  0.60380000  0.513 -0.0057124212
C  C131  1  0.01480000  0.06880000  0.35380000  0.513 -0.0057124212
C  C132  1  0.48520000  0.93120000  0.85380000  0.513 -0.0057124212
C  C133  1  0.18120000  0.23520000  0.89620000  0.513 -0.0057124212
C  C134  1  0.31880000  0.76480000  0.39620000  0.513 -0.0057124212
C  C135  1  0.48520000  0.06880000  0.64620000  0.513 -0.0057124212
C  C136  1  0.01480000  0.93120000  0.14620000  0.513 -0.0057124212
C  C137  1  0.81880000  0.73520000  0.60380000  0.513 -0.0057124212
C  C138  1  0.68120000  0.26480000  0.10380000  0.513 -0.0057124212
C  C139  1  0.51480000  0.56880000  0.85380000  0.513 -0.0057124212
C  C140  1  0.98520000  0.43120000  0.35380000  0.513 -0.0057124212
C  C141  1  0.68120000  0.73520000  0.39620000  0.513 -0.0057124212
C  C142  1  0.81880000  0.26480000  0.89620000  0.513 -0.0057124212
C  C143  1  0.98520000  0.56880000  0.14620000  0.513 -0.0057124212
C  C144  1  0.51480000  0.43120000  0.64620000  0.513 -0.0057124212
C  C145  1  0.68120000  0.76480000  0.89620000  0.513 -0.0057124212
C  C146  1  0.81880000  0.23520000  0.39620000  0.513 -0.0057124212
C  C147  1  0.98520000  0.93120000  0.64620000  0.513 -0.0057124212
C  C148  1  0.51480000  0.06880000  0.14620000  0.513 -0.0057124212
C  C149  1  0.81880000  0.76480000  0.10380000  0.513 -0.0057124212
C  C150  1  0.68120000  0.23520000  0.60380000  0.513 -0.0057124212
C  C151  1  0.51480000  0.93120000  0.35380000  0.513 -0.0057124212
C  C152  1  0.98520000  0.06880000  0.85380000  0.513 -0.0057124212
C  C153  1  0.18120000  0.26480000  0.39620000  0.513 -0.0057124212
C  C154  1  0.31880000  0.73520000  0.89620000  0.513 -0.0057124212
C  C155  1  0.48520000  0.43120000  0.14620000  0.513 -0.0057124212
C  C156  1  0.01480000  0.56880000  0.64620000  0.513 -0.0057124212
C  C157  1  0.31880000  0.26480000  0.60380000  0.513 -0.0057124212
C  C158  1  0.18120000  0.73520000  0.10380000  0.513 -0.0057124212
C  C159  1  0.01480000  0.43120000  0.85380000  0.513 -0.0057124212
C  C160  1  0.48520000  0.56880000  0.35380000  0.513 -0.0057124212
C  C161  1  0.21230000  0.23560000  0.08050000  0.513 -0.1186150947
C  C162  1  0.28770000  0.76440000  0.58050000  0.513 -0.1186150947
C  C163  1  0.01440000  0.96230000  0.33050000  0.513 -0.1186150947
C  C164  1  0.48560000  0.03770000  0.83050000  0.513 -0.1186150947
C  C165  1  0.28770000  0.23560000  0.91950000  0.513 -0.1186150947
C  C166  1  0.21230000  0.76440000  0.41950000  0.513 -0.1186150947
C  C167  1  0.48560000  0.96230000  0.66950000  0.513 -0.1186150947
C  C168  1  0.01440000  0.03770000  0.16950000  0.513 -0.1186150947
C  C169  1  0.71230000  0.73560000  0.58050000  0.513 -0.1186150947
C  C170  1  0.78770000  0.26440000  0.08050000  0.513 -0.1186150947
C  C171  1  0.51440000  0.46230000  0.83050000  0.513 -0.1186150947
C  C172  1  0.98560000  0.53770000  0.33050000  0.513 -0.1186150947
C  C173  1  0.78770000  0.73560000  0.41950000  0.513 -0.1186150947
C  C174  1  0.71230000  0.26440000  0.91950000  0.513 -0.1186150947
C  C175  1  0.98560000  0.46230000  0.16950000  0.513 -0.1186150947
C  C176  1  0.51440000  0.53770000  0.66950000  0.513 -0.1186150947
C  C177  1  0.78770000  0.76440000  0.91950000  0.513 -0.1186150947
C  C178  1  0.71230000  0.23560000  0.41950000  0.513 -0.1186150947
C  C179  1  0.98560000  0.03770000  0.66950000  0.513 -0.1186150947
C  C180  1  0.51440000  0.96230000  0.16950000  0.513 -0.1186150947
C  C181  1  0.71230000  0.76440000  0.08050000  0.513 -0.1186150947
C  C182  1  0.78770000  0.23560000  0.58050000  0.513 -0.1186150947
C  C183  1  0.51440000  0.03770000  0.33050000  0.513 -0.1186150947
C  C184  1  0.98560000  0.96230000  0.83050000  0.513 -0.1186150947
C  C185  1  0.28770000  0.26440000  0.41950000  0.513 -0.1186150947
C  C186  1  0.21230000  0.73560000  0.91950000  0.513 -0.1186150947
C  C187  1  0.48560000  0.53770000  0.16950000  0.513 -0.1186150947
C  C188  1  0.01440000  0.46230000  0.66950000  0.513 -0.1186150947
C  C189  1  0.21230000  0.26440000  0.58050000  0.513 -0.1186150947
C  C190  1  0.28770000  0.73560000  0.08050000  0.513 -0.1186150947
C  C191  1  0.01440000  0.53770000  0.83050000  0.513 -0.1186150947
C  C192  1  0.48560000  0.46230000  0.33050000  0.513 -0.1186150947
C  C193  1  0.32640000  0.25020000  0.06980000  0.513 -0.1293110839
C  C194  1  0.17360000  0.74980000  0.56980000  0.513 -0.1293110839
C  C195  1  0.99980000  0.07640000  0.31980000  0.513 -0.1293110839
C  C196  1  0.50020000  0.92360000  0.81980000  0.513 -0.1293110839
C  C197  1  0.17360000  0.25020000  0.93020000  0.513 -0.1293110839
C  C198  1  0.32640000  0.74980000  0.43020000  0.513 -0.1293110839
C  C199  1  0.50020000  0.07640000  0.68020000  0.513 -0.1293110839
C  C200  1  0.99980000  0.92360000  0.18020000  0.513 -0.1293110839
C  C201  1  0.82640000  0.75020000  0.56980000  0.513 -0.1293110839
C  C202  1  0.67360000  0.24980000  0.06980000  0.513 -0.1293110839
C  C203  1  0.49980000  0.57640000  0.81980000  0.513 -0.1293110839
C  C204  1  0.00020000  0.42360000  0.31980000  0.513 -0.1293110839
C  C205  1  0.67360000  0.75020000  0.43020000  0.513 -0.1293110839
C  C206  1  0.82640000  0.24980000  0.93020000  0.513 -0.1293110839
C  C207  1  0.00020000  0.57640000  0.18020000  0.513 -0.1293110839
C  C208  1  0.49980000  0.42360000  0.68020000  0.513 -0.1293110839
C  C209  1  0.67360000  0.74980000  0.93020000  0.513 -0.1293110839
C  C210  1  0.82640000  0.25020000  0.43020000  0.513 -0.1293110839
C  C211  1  0.00020000  0.92360000  0.68020000  0.513 -0.1293110839
C  C212  1  0.49980000  0.07640000  0.18020000  0.513 -0.1293110839
C  C213  1  0.82640000  0.74980000  0.06980000  0.513 -0.1293110839
C  C214  1  0.67360000  0.25020000  0.56980000  0.513 -0.1293110839
C  C215  1  0.49980000  0.92360000  0.31980000  0.513 -0.1293110839
C  C216  1  0.00020000  0.07640000  0.81980000  0.513 -0.1293110839
C  C217  1  0.17360000  0.24980000  0.43020000  0.513 -0.1293110839
C  C218  1  0.32640000  0.75020000  0.93020000  0.513 -0.1293110839
C  C219  1  0.50020000  0.42360000  0.18020000  0.513 -0.1293110839
C  C220  1  0.99980000  0.57640000  0.68020000  0.513 -0.1293110839
C  C221  1  0.32640000  0.24980000  0.56980000  0.513 -0.1293110839
C  C222  1  0.17360000  0.75020000  0.06980000  0.513 -0.1293110839
C  C223  1  0.99980000  0.42360000  0.81980000  0.513 -0.1293110839
C  C224  1  0.50020000  0.57640000  0.31980000  0.513 -0.1293110839
S  S65  1  0.22365000  0.20328000  0.05082000  0.487 -0.0723175739
S  S66  1  0.27635000  0.79672000  0.55082000  0.487 -0.0723175739
S  S67  1  0.04672000  0.97365000  0.30082000  0.487 -0.0723175739
S  S68  1  0.45328000  0.02635000  0.80082000  0.487 -0.0723175739
S  S69  1  0.27635000  0.20328000  0.94918000  0.487 -0.0723175739
S  S70  1  0.22365000  0.79672000  0.44918000  0.487 -0.0723175739
S  S71  1  0.45328000  0.97365000  0.69918000  0.487 -0.0723175739
S  S72  1  0.04672000  0.02635000  0.19918000  0.487 -0.0723175739
S  S73  1  0.72365000  0.70328000  0.55082000  0.487 -0.0723175739
S  S74  1  0.77635000  0.29672000  0.05082000  0.487 -0.0723175739
S  S75  1  0.54672000  0.47365000  0.80082000  0.487 -0.0723175739
S  S76  1  0.95328000  0.52635000  0.30082000  0.487 -0.0723175739
S  S77  1  0.77635000  0.70328000  0.44918000  0.487 -0.0723175739
S  S78  1  0.72365000  0.29672000  0.94918000  0.487 -0.0723175739
S  S79  1  0.95328000  0.47365000  0.19918000  0.487 -0.0723175739
S  S80  1  0.54672000  0.52635000  0.69918000  0.487 -0.0723175739
S  S81  1  0.77635000  0.79672000  0.94918000  0.487 -0.0723175739
S  S82  1  0.72365000  0.20328000  0.44918000  0.487 -0.0723175739
S  S83  1  0.95328000  0.02635000  0.69918000  0.487 -0.0723175739
S  S84  1  0.54672000  0.97365000  0.19918000  0.487 -0.0723175739
S  S85  1  0.72365000  0.79672000  0.05082000  0.487 -0.0723175739
S  S86  1  0.77635000  0.20328000  0.55082000  0.487 -0.0723175739
S  S87  1  0.54672000  0.02635000  0.30082000  0.487 -0.0723175739
S  S88  1  0.95328000  0.97365000  0.80082000  0.487 -0.0723175739
S  S89  1  0.27635000  0.29672000  0.44918000  0.487 -0.0723175739
S  S90  1  0.22365000  0.70328000  0.94918000  0.487 -0.0723175739
S  S91  1  0.45328000  0.52635000  0.19918000  0.487 -0.0723175739
S  S92  1  0.04672000  0.47365000  0.69918000  0.487 -0.0723175739
S  S93  1  0.22365000  0.29672000  0.55082000  0.487 -0.0723175739
S  S94  1  0.27635000  0.70328000  0.05082000  0.487 -0.0723175739
S  S95  1  0.04672000  0.52635000  0.80082000  0.487 -0.0723175739
S  S96  1  0.45328000  0.47365000  0.30082000  0.487 -0.0723175739
S  S97  1  0.33528000  0.21649000  0.05801000  0.487 0.0047360124
S  S98  1  0.16472000  0.78351000  0.55801000  0.487 0.0047360124
S  S99  1  0.03351000  0.08528000  0.30801000  0.487 0.0047360124
S  S100  1  0.46649000  0.91472000  0.80801000  0.487 0.0047360124
S  S101  1  0.16472000  0.21649000  0.94199000  0.487 0.0047360124
S  S102  1  0.33528000  0.78351000  0.44199000  0.487 0.0047360124
S  S103  1  0.46649000  0.08528000  0.69199000  0.487 0.0047360124
S  S104  1  0.03351000  0.91472000  0.19199000  0.487 0.0047360124
S  S105  1  0.83528000  0.71649000  0.55801000  0.487 0.0047360124
S  S106  1  0.66472000  0.28351000  0.05801000  0.487 0.0047360124
S  S107  1  0.53351000  0.58528000  0.80801000  0.487 0.0047360124
S  S108  1  0.96649000  0.41472000  0.30801000  0.487 0.0047360124
S  S109  1  0.66472000  0.71649000  0.44199000  0.487 0.0047360124
S  S110  1  0.83528000  0.28351000  0.94199000  0.487 0.0047360124
S  S111  1  0.96649000  0.58528000  0.19199000  0.487 0.0047360124
S  S112  1  0.53351000  0.41472000  0.69199000  0.487 0.0047360124
S  S113  1  0.66472000  0.78351000  0.94199000  0.487 0.0047360124
S  S114  1  0.83528000  0.21649000  0.44199000  0.487 0.0047360124
S  S115  1  0.96649000  0.91472000  0.69199000  0.487 0.0047360124
S  S116  1  0.53351000  0.08528000  0.19199000  0.487 0.0047360124
S  S117  1  0.83528000  0.78351000  0.05801000  0.487 0.0047360124
S  S118  1  0.66472000  0.21649000  0.55801000  0.487 0.0047360124
S  S119  1  0.53351000  0.91472000  0.30801000  0.487 0.0047360124
S  S120  1  0.96649000  0.08528000  0.80801000  0.487 0.0047360124
S  S121  1  0.16472000  0.28351000  0.44199000  0.487 0.0047360124
S  S122  1  0.33528000  0.71649000  0.94199000  0.487 0.0047360124
S  S123  1  0.46649000  0.41472000  0.19199000  0.487 0.0047360124
S  S124  1  0.03351000  0.58528000  0.69199000  0.487 0.0047360124
S  S125  1  0.33528000  0.28351000  0.55801000  0.487 0.0047360124
S  S126  1  0.16472000  0.71649000  0.05801000  0.487 0.0047360124
S  S127  1  0.03351000  0.41472000  0.80801000  0.487 0.0047360124
S  S128  1  0.46649000  0.58528000  0.30801000  0.487 0.0047360124
S  S1  1  0.22466000  0.20750000  0.20186000  0.513 -0.0304310403
S  S2  1  0.27534000  0.79250000  0.70186000  0.513 -0.0304310403
S  S3  1  0.04250000  0.97466000  0.45186000  0.513 -0.0304310403
S  S4  1  0.45750000  0.02534000  0.95186000  0.513 -0.0304310403
S  S5  1  0.27534000  0.20750000  0.79814000  0.513 -0.0304310403
S  S6  1  0.22466000  0.79250000  0.29814000  0.513 -0.0304310403
S  S7  1  0.45750000  0.97466000  0.54814000  0.513 -0.0304310403
S  S8  1  0.04250000  0.02534000  0.04814000  0.513 -0.0304310403
S  S9  1  0.72466000  0.70750000  0.70186000  0.513 -0.0304310403
S  S10  1  0.77534000  0.29250000  0.20186000  0.513 -0.0304310403
S  S11  1  0.54250000  0.47466000  0.95186000  0.513 -0.0304310403
S  S12  1  0.95750000  0.52534000  0.45186000  0.513 -0.0304310403
S  S13  1  0.77534000  0.70750000  0.29814000  0.513 -0.0304310403
S  S14  1  0.72466000  0.29250000  0.79814000  0.513 -0.0304310403
S  S15  1  0.95750000  0.47466000  0.04814000  0.513 -0.0304310403
S  S16  1  0.54250000  0.52534000  0.54814000  0.513 -0.0304310403
S  S17  1  0.77534000  0.79250000  0.79814000  0.513 -0.0304310403
S  S18  1  0.72466000  0.20750000  0.29814000  0.513 -0.0304310403
S  S19  1  0.95750000  0.02534000  0.54814000  0.513 -0.0304310403
S  S20  1  0.54250000  0.97466000  0.04814000  0.513 -0.0304310403
S  S21  1  0.72466000  0.79250000  0.20186000  0.513 -0.0304310403
S  S22  1  0.77534000  0.20750000  0.70186000  0.513 -0.0304310403
S  S23  1  0.54250000  0.02534000  0.45186000  0.513 -0.0304310403
S  S24  1  0.95750000  0.97466000  0.95186000  0.513 -0.0304310403
S  S25  1  0.27534000  0.29250000  0.29814000  0.513 -0.0304310403
S  S26  1  0.22466000  0.70750000  0.79814000  0.513 -0.0304310403
S  S27  1  0.45750000  0.52534000  0.04814000  0.513 -0.0304310403
S  S28  1  0.04250000  0.47466000  0.54814000  0.513 -0.0304310403
S  S29  1  0.22466000  0.29250000  0.70186000  0.513 -0.0304310403
S  S30  1  0.27534000  0.70750000  0.20186000  0.513 -0.0304310403
S  S31  1  0.04250000  0.52534000  0.95186000  0.513 -0.0304310403
S  S32  1  0.45750000  0.47466000  0.45186000  0.513 -0.0304310403
S  S33  1  0.33618000  0.22060000  0.19245000  0.513 0.0129593197
S  S34  1  0.16382000  0.77940000  0.69245000  0.513 0.0129593197
S  S35  1  0.02940000  0.08618000  0.44245000  0.513 0.0129593197
S  S36  1  0.47060000  0.91382000  0.94245000  0.513 0.0129593197
S  S37  1  0.16382000  0.22060000  0.80755000  0.513 0.0129593197
S  S38  1  0.33618000  0.77940000  0.30755000  0.513 0.0129593197
S  S39  1  0.47060000  0.08618000  0.55755000  0.513 0.0129593197
S  S40  1  0.02940000  0.91382000  0.05755000  0.513 0.0129593197
S  S41  1  0.83618000  0.72060000  0.69245000  0.513 0.0129593197
S  S42  1  0.66382000  0.27940000  0.19245000  0.513 0.0129593197
S  S43  1  0.52940000  0.58618000  0.94245000  0.513 0.0129593197
S  S44  1  0.97060000  0.41382000  0.44245000  0.513 0.0129593197
S  S45  1  0.66382000  0.72060000  0.30755000  0.513 0.0129593197
S  S46  1  0.83618000  0.27940000  0.80755000  0.513 0.0129593197
S  S47  1  0.97060000  0.58618000  0.05755000  0.513 0.0129593197
S  S48  1  0.52940000  0.41382000  0.55755000  0.513 0.0129593197
S  S49  1  0.66382000  0.77940000  0.80755000  0.513 0.0129593197
S  S50  1  0.83618000  0.22060000  0.30755000  0.513 0.0129593197
S  S51  1  0.97060000  0.91382000  0.55755000  0.513 0.0129593197
S  S52  1  0.52940000  0.08618000  0.05755000  0.513 0.0129593197
S  S53  1  0.83618000  0.77940000  0.19245000  0.513 0.0129593197
S  S54  1  0.66382000  0.22060000  0.69245000  0.513 0.0129593197
S  S55  1  0.52940000  0.91382000  0.44245000  0.513 0.0129593197
S  S56  1  0.97060000  0.08618000  0.94245000  0.513 0.0129593197
S  S57  1  0.16382000  0.27940000  0.30755000  0.513 0.0129593197
S  S58  1  0.33618000  0.72060000  0.80755000  0.513 0.0129593197
S  S59  1  0.47060000  0.41382000  0.05755000  0.513 0.0129593197
S  S60  1  0.02940000  0.58618000  0.55755000  0.513 0.0129593197
S  S61  1  0.33618000  0.27940000  0.69245000  0.513 0.0129593197
S  S62  1  0.16382000  0.72060000  0.19245000  0.513 0.0129593197
S  S63  1  0.02940000  0.41382000  0.94245000  0.513 0.0129593197
S  S64  1  0.47060000  0.58618000  0.44245000  0.513 0.0129593197
N  N1  1  0.01735000  0.23289000  0.18101000  1.0 -0.1930825358
N  N2  1  0.48265000  0.76711000  0.68101000  1.0 -0.1930825358
N  N3  1  0.01711000  0.76735000  0.43101000  1.0 -0.1930825358
N  N4  1  0.48289000  0.23265000  0.93101000  1.0 -0.1930825358
N  N5  1  0.48265000  0.23289000  0.81899000  1.0 -0.1930825358
N  N6  1  0.01735000  0.76711000  0.31899000  1.0 -0.1930825358
N  N7  1  0.48289000  0.76735000  0.56899000  1.0 -0.1930825358
N  N8  1  0.01711000  0.23265000  0.06899000  1.0 -0.1930825358
N  N9  1  0.51735000  0.73289000  0.68101000  1.0 -0.1930825358
N  N10  1  0.98265000  0.26711000  0.18101000  1.0 -0.1930825358
N  N11  1  0.51711000  0.26735000  0.93101000  1.0 -0.1930825358
N  N12  1  0.98289000  0.73265000  0.43101000  1.0 -0.1930825358
N  N13  1  0.98265000  0.73289000  0.31899000  1.0 -0.1930825358
N  N14  1  0.51735000  0.26711000  0.81899000  1.0 -0.1930825358
N  N15  1  0.98289000  0.26735000  0.06899000  1.0 -0.1930825358
N  N16  1  0.51711000  0.73265000  0.56899000  1.0 -0.1930825358
N  N17  1  0.98265000  0.76711000  0.81899000  1.0 -0.1930825358
N  N18  1  0.51735000  0.23289000  0.31899000  1.0 -0.1930825358
N  N19  1  0.98289000  0.23265000  0.56899000  1.0 -0.1930825358
N  N20  1  0.51711000  0.76735000  0.06899000  1.0 -0.1930825358
N  N21  1  0.51735000  0.76711000  0.18101000  1.0 -0.1930825358
N  N22  1  0.98265000  0.23289000  0.68101000  1.0 -0.1930825358
N  N23  1  0.51711000  0.23265000  0.43101000  1.0 -0.1930825358
N  N24  1  0.98289000  0.76735000  0.93101000  1.0 -0.1930825358
N  N25  1  0.48265000  0.26711000  0.31899000  1.0 -0.1930825358
N  N26  1  0.01735000  0.73289000  0.81899000  1.0 -0.1930825358
N  N27  1  0.48289000  0.73265000  0.06899000  1.0 -0.1930825358
N  N28  1  0.01711000  0.26735000  0.56899000  1.0 -0.1930825358
N  N29  1  0.01735000  0.26711000  0.68101000  1.0 -0.1930825358
N  N30  1  0.48265000  0.73289000  0.18101000  1.0 -0.1930825358
N  N31  1  0.01711000  0.73265000  0.93101000  1.0 -0.1930825358
N  N32  1  0.48289000  0.26735000  0.43101000  1.0 -0.1930825358
N  N33  1  0.00000000  0.25000000  0.25417000  1.0 -0.2972568811
N  N34  1  0.50000000  0.75000000  0.75417000  1.0 -0.2972568811
N  N35  1  0.00000000  0.75000000  0.50417000  1.0 -0.2972568811
N  N36  1  0.50000000  0.25000000  0.00417000  1.0 -0.2972568811
N  N37  1  0.50000000  0.25000000  0.74583000  1.0 -0.2972568811
N  N38  1  0.00000000  0.75000000  0.24583000  1.0 -0.2972568811
N  N39  1  0.50000000  0.75000000  0.49583000  1.0 -0.2972568811
N  N40  1  0.00000000  0.25000000  0.99583000  1.0 -0.2972568811
N  N41  1  0.00000000  0.75000000  0.74583000  1.0 -0.2972568811
N  N42  1  0.50000000  0.25000000  0.24583000  1.0 -0.2972568811
N  N43  1  0.00000000  0.25000000  0.49583000  1.0 -0.2972568811
N  N44  1  0.50000000  0.75000000  0.99583000  1.0 -0.2972568811
N  N45  1  0.50000000  0.75000000  0.25417000  1.0 -0.2972568811
N  N46  1  0.00000000  0.25000000  0.75417000  1.0 -0.2972568811
N  N47  1  0.50000000  0.25000000  0.50417000  1.0 -0.2972568811
N  N48  1  0.00000000  0.75000000  0.00417000  1.0 -0.2972568811
O  O1  1  0.11592000  0.21810000  0.12570000  1.0 -0.1567668181
O  O2  1  0.38408000  0.78190000  0.62570000  1.0 -0.1567668181
O  O3  1  0.03190000  0.86592000  0.37570000  1.0 -0.1567668181
O  O4  1  0.46810000  0.13408000  0.87570000  1.0 -0.1567668181
O  O5  1  0.38408000  0.21810000  0.87430000  1.0 -0.1567668181
O  O6  1  0.11592000  0.78190000  0.37430000  1.0 -0.1567668181
O  O7  1  0.46810000  0.86592000  0.62430000  1.0 -0.1567668181
O  O8  1  0.03190000  0.13408000  0.12430000  1.0 -0.1567668181
O  O9  1  0.61592000  0.71810000  0.62570000  1.0 -0.1567668181
O  O10  1  0.88408000  0.28190000  0.12570000  1.0 -0.1567668181
O  O11  1  0.53190000  0.36592000  0.87570000  1.0 -0.1567668181
O  O12  1  0.96810000  0.63408000  0.37570000  1.0 -0.1567668181
O  O13  1  0.88408000  0.71810000  0.37430000  1.0 -0.1567668181
O  O14  1  0.61592000  0.28190000  0.87430000  1.0 -0.1567668181
O  O15  1  0.96810000  0.36592000  0.12430000  1.0 -0.1567668181
O  O16  1  0.53190000  0.63408000  0.62430000  1.0 -0.1567668181
O  O17  1  0.88408000  0.78190000  0.87430000  1.0 -0.1567668181
O  O18  1  0.61592000  0.21810000  0.37430000  1.0 -0.1567668181
O  O19  1  0.96810000  0.13408000  0.62430000  1.0 -0.1567668181
O  O20  1  0.53190000  0.86592000  0.12430000  1.0 -0.1567668181
O  O21  1  0.61592000  0.78190000  0.12570000  1.0 -0.1567668181
O  O22  1  0.88408000  0.21810000  0.62570000  1.0 -0.1567668181
O  O23  1  0.53190000  0.13408000  0.37570000  1.0 -0.1567668181
O  O24  1  0.96810000  0.86592000  0.87570000  1.0 -0.1567668181
O  O25  1  0.38408000  0.28190000  0.37430000  1.0 -0.1567668181
O  O26  1  0.11592000  0.71810000  0.87430000  1.0 -0.1567668181
O  O27  1  0.46810000  0.63408000  0.12430000  1.0 -0.1567668181
O  O28  1  0.03190000  0.36592000  0.62430000  1.0 -0.1567668181
O  O29  1  0.11592000  0.28190000  0.62570000  1.0 -0.1567668181
O  O30  1  0.38408000  0.71810000  0.12570000  1.0 -0.1567668181
O  O31  1  0.03190000  0.63408000  0.87570000  1.0 -0.1567668181
O  O32  1  0.46810000  0.36592000  0.37570000  1.0 -0.1567668181
O  O97  1  0.42887000  0.24052000  0.08579000  1.0 -0.4543249855
O  O98  1  0.07113000  0.75948000  0.58579000  1.0 -0.4543249855
O  O99  1  0.00948000  0.17887000  0.33579000  1.0 -0.4543249855
O  O100  1  0.49052000  0.82113000  0.83579000  1.0 -0.4543249855
O  O101  1  0.07113000  0.24052000  0.91421000  1.0 -0.4543249855
O  O102  1  0.42887000  0.75948000  0.41421000  1.0 -0.4543249855
O  O103  1  0.49052000  0.17887000  0.66421000  1.0 -0.4543249855
O  O104  1  0.00948000  0.82113000  0.16421000  1.0 -0.4543249855
O  O105  1  0.92887000  0.74052000  0.58579000  1.0 -0.4543249855
O  O106  1  0.57113000  0.25948000  0.08579000  1.0 -0.4543249855
O  O107  1  0.50948000  0.67887000  0.83579000  1.0 -0.4543249855
O  O108  1  0.99052000  0.32113000  0.33579000  1.0 -0.4543249855
O  O109  1  0.57113000  0.74052000  0.41421000  1.0 -0.4543249855
O  O110  1  0.92887000  0.25948000  0.91421000  1.0 -0.4543249855
O  O111  1  0.99052000  0.67887000  0.16421000  1.0 -0.4543249855
O  O112  1  0.50948000  0.32113000  0.66421000  1.0 -0.4543249855
O  O113  1  0.57113000  0.75948000  0.91421000  1.0 -0.4543249855
O  O114  1  0.92887000  0.24052000  0.41421000  1.0 -0.4543249855
O  O115  1  0.99052000  0.82113000  0.66421000  1.0 -0.4543249855
O  O116  1  0.50948000  0.17887000  0.16421000  1.0 -0.4543249855
O  O117  1  0.92887000  0.75948000  0.08579000  1.0 -0.4543249855
O  O118  1  0.57113000  0.24052000  0.58579000  1.0 -0.4543249855
O  O119  1  0.50948000  0.82113000  0.33579000  1.0 -0.4543249855
O  O120  1  0.99052000  0.17887000  0.83579000  1.0 -0.4543249855
O  O121  1  0.07113000  0.25948000  0.41421000  1.0 -0.4543249855
O  O122  1  0.42887000  0.74052000  0.91421000  1.0 -0.4543249855
O  O123  1  0.49052000  0.32113000  0.16421000  1.0 -0.4543249855
O  O124  1  0.00948000  0.67887000  0.66421000  1.0 -0.4543249855
O  O125  1  0.42887000  0.25948000  0.58579000  1.0 -0.4543249855
O  O126  1  0.07113000  0.74052000  0.08579000  1.0 -0.4543249855
O  O127  1  0.00948000  0.32113000  0.83579000  1.0 -0.4543249855
O  O128  1  0.49052000  0.67887000  0.33579000  1.0 -0.4543249855
O  O129  1  0.42882000  0.24032000  0.16130000  1.0 -0.4432356401
O  O130  1  0.07118000  0.75968000  0.66130000  1.0 -0.4432356401
O  O131  1  0.00968000  0.17882000  0.41130000  1.0 -0.4432356401
O  O132  1  0.49032000  0.82118000  0.91130000  1.0 -0.4432356401
O  O133  1  0.07118000  0.24032000  0.83870000  1.0 -0.4432356401
O  O134  1  0.42882000  0.75968000  0.33870000  1.0 -0.4432356401
O  O135  1  0.49032000  0.17882000  0.58870000  1.0 -0.4432356401
O  O136  1  0.00968000  0.82118000  0.08870000  1.0 -0.4432356401
O  O137  1  0.92882000  0.74032000  0.66130000  1.0 -0.4432356401
O  O138  1  0.57118000  0.25968000  0.16130000  1.0 -0.4432356401
O  O139  1  0.50968000  0.67882000  0.91130000  1.0 -0.4432356401
O  O140  1  0.99032000  0.32118000  0.41130000  1.0 -0.4432356401
O  O141  1  0.57118000  0.74032000  0.33870000  1.0 -0.4432356401
O  O142  1  0.92882000  0.25968000  0.83870000  1.0 -0.4432356401
O  O143  1  0.99032000  0.67882000  0.08870000  1.0 -0.4432356401
O  O144  1  0.50968000  0.32118000  0.58870000  1.0 -0.4432356401
O  O145  1  0.57118000  0.75968000  0.83870000  1.0 -0.4432356401
O  O146  1  0.92882000  0.24032000  0.33870000  1.0 -0.4432356401
O  O147  1  0.99032000  0.82118000  0.58870000  1.0 -0.4432356401
O  O148  1  0.50968000  0.17882000  0.08870000  1.0 -0.4432356401
O  O149  1  0.92882000  0.75968000  0.16130000  1.0 -0.4432356401
O  O150  1  0.57118000  0.24032000  0.66130000  1.0 -0.4432356401
O  O151  1  0.50968000  0.82118000  0.41130000  1.0 -0.4432356401
O  O152  1  0.99032000  0.17882000  0.91130000  1.0 -0.4432356401
O  O153  1  0.07118000  0.25968000  0.33870000  1.0 -0.4432356401
O  O154  1  0.42882000  0.74032000  0.83870000  1.0 -0.4432356401
O  O155  1  0.49032000  0.32118000  0.08870000  1.0 -0.4432356401
O  O156  1  0.00968000  0.67882000  0.58870000  1.0 -0.4432356401
O  O157  1  0.42882000  0.25968000  0.66130000  1.0 -0.4432356401
O  O158  1  0.07118000  0.74032000  0.16130000  1.0 -0.4432356401
O  O159  1  0.00968000  0.32118000  0.91130000  1.0 -0.4432356401
O  O160  1  0.49032000  0.67882000  0.41130000  1.0 -0.4432356401
O  O65  1  0.12410000  0.18960000  0.06430000  0.487 -0.3692981244
O  O66  1  0.37590000  0.81040000  0.56430000  0.487 -0.3692981244
O  O67  1  0.06040000  0.87410000  0.31430000  0.487 -0.3692981244
O  O68  1  0.43960000  0.12590000  0.81430000  0.487 -0.3692981244
O  O69  1  0.37590000  0.18960000  0.93570000  0.487 -0.3692981244
O  O70  1  0.12410000  0.81040000  0.43570000  0.487 -0.3692981244
O  O71  1  0.43960000  0.87410000  0.68570000  0.487 -0.3692981244
O  O72  1  0.06040000  0.12590000  0.18570000  0.487 -0.3692981244
O  O73  1  0.62410000  0.68960000  0.56430000  0.487 -0.3692981244
O  O74  1  0.87590000  0.31040000  0.06430000  0.487 -0.3692981244
O  O75  1  0.56040000  0.37410000  0.81430000  0.487 -0.3692981244
O  O76  1  0.93960000  0.62590000  0.31430000  0.487 -0.3692981244
O  O77  1  0.87590000  0.68960000  0.43570000  0.487 -0.3692981244
O  O78  1  0.62410000  0.31040000  0.93570000  0.487 -0.3692981244
O  O79  1  0.93960000  0.37410000  0.18570000  0.487 -0.3692981244
O  O80  1  0.56040000  0.62590000  0.68570000  0.487 -0.3692981244
O  O81  1  0.87590000  0.81040000  0.93570000  0.487 -0.3692981244
O  O82  1  0.62410000  0.18960000  0.43570000  0.487 -0.3692981244
O  O83  1  0.93960000  0.12590000  0.68570000  0.487 -0.3692981244
O  O84  1  0.56040000  0.87410000  0.18570000  0.487 -0.3692981244
O  O85  1  0.62410000  0.81040000  0.06430000  0.487 -0.3692981244
O  O86  1  0.87590000  0.18960000  0.56430000  0.487 -0.3692981244
O  O87  1  0.56040000  0.12590000  0.31430000  0.487 -0.3692981244
O  O88  1  0.93960000  0.87410000  0.81430000  0.487 -0.3692981244
O  O89  1  0.37590000  0.31040000  0.43570000  0.487 -0.3692981244
O  O90  1  0.12410000  0.68960000  0.93570000  0.487 -0.3692981244
O  O91  1  0.43960000  0.62590000  0.18570000  0.487 -0.3692981244
O  O92  1  0.06040000  0.37410000  0.68570000  0.487 -0.3692981244
O  O93  1  0.12410000  0.31040000  0.56430000  0.487 -0.3692981244
O  O94  1  0.37590000  0.68960000  0.06430000  0.487 -0.3692981244
O  O95  1  0.06040000  0.62590000  0.81430000  0.487 -0.3692981244
O  O96  1  0.43960000  0.37410000  0.31430000  0.487 -0.3692981244
O  O33  1  0.12440000  0.19050000  0.18630000  0.513 -0.3258923233
O  O34  1  0.37560000  0.80950000  0.68630000  0.513 -0.3258923233
O  O35  1  0.05950000  0.87440000  0.43630000  0.513 -0.3258923233
O  O36  1  0.44050000  0.12560000  0.93630000  0.513 -0.3258923233
O  O37  1  0.37560000  0.19050000  0.81370000  0.513 -0.3258923233
O  O38  1  0.12440000  0.80950000  0.31370000  0.513 -0.3258923233
O  O39  1  0.44050000  0.87440000  0.56370000  0.513 -0.3258923233
O  O40  1  0.05950000  0.12560000  0.06370000  0.513 -0.3258923233
O  O41  1  0.62440000  0.69050000  0.68630000  0.513 -0.3258923233
O  O42  1  0.87560000  0.30950000  0.18630000  0.513 -0.3258923233
O  O43  1  0.55950000  0.37440000  0.93630000  0.513 -0.3258923233
O  O44  1  0.94050000  0.62560000  0.43630000  0.513 -0.3258923233
O  O45  1  0.87560000  0.69050000  0.31370000  0.513 -0.3258923233
O  O46  1  0.62440000  0.30950000  0.81370000  0.513 -0.3258923233
O  O47  1  0.94050000  0.37440000  0.06370000  0.513 -0.3258923233
O  O48  1  0.55950000  0.62560000  0.56370000  0.513 -0.3258923233
O  O49  1  0.87560000  0.80950000  0.81370000  0.513 -0.3258923233
O  O50  1  0.62440000  0.19050000  0.31370000  0.513 -0.3258923233
O  O51  1  0.94050000  0.12560000  0.56370000  0.513 -0.3258923233
O  O52  1  0.55950000  0.87440000  0.06370000  0.513 -0.3258923233
O  O53  1  0.62440000  0.80950000  0.18630000  0.513 -0.3258923233
O  O54  1  0.87560000  0.19050000  0.68630000  0.513 -0.3258923233
O  O55  1  0.55950000  0.12560000  0.43630000  0.513 -0.3258923233
O  O56  1  0.94050000  0.87440000  0.93630000  0.513 -0.3258923233
O  O57  1  0.37560000  0.30950000  0.31370000  0.513 -0.3258923233
O  O58  1  0.12440000  0.69050000  0.81370000  0.513 -0.3258923233
O  O59  1  0.44050000  0.62560000  0.06370000  0.513 -0.3258923233
O  O60  1  0.05950000  0.37440000  0.56370000  0.513 -0.3258923233
O  O61  1  0.12440000  0.30950000  0.68630000  0.513 -0.3258923233
O  O62  1  0.37560000  0.69050000  0.18630000  0.513 -0.3258923233
O  O63  1  0.05950000  0.62560000  0.93630000  0.513 -0.3258923233
O  O64  1  0.44050000  0.37440000  0.43630000  0.513 -0.3258923233
