# DDEC6 charges by PACMAN v1.1 (https://github.com/mtap-research/PACMAN-charge/)
data_c9cc02861g2_ASR_pacman
_symmetry_space_group_name_H-M   'P 1'
_cell_length_a   10.30340000
_cell_length_b   11.76520000
_cell_length_c   20.35700000
_cell_angle_alpha   90.00000000
_cell_angle_beta   90.00000000
_cell_angle_gamma   90.00000000
_symmetry_Int_Tables_number   1
_chemical_formula_structural   Zn2H8C11O7
_chemical_formula_sum   'Zn8 H32 C44 O28'
_cell_volume   2467.70733112
_cell_formula_units_Z   4
loop_
 _symmetry_equiv_pos_site_id
 _symmetry_equiv_pos_as_xyz
  1  'x, y, z'
loop_
 _atom_site_type_symbol
 _atom_site_label
 _atom_site_symmetry_multiplicity
 _atom_site_fract_x
 _atom_site_fract_y
 _atom_site_fract_z
 _atom_site_occupancy
 _atom_site_charge
Zn  Zn1  1  0.15034000  0.32413000  0.50865000  1.0 0.9425863119
Zn  Zn2  1  0.46297000  0.42053000  0.50973000  1.0 0.9567195269
Zn  Zn3  1  0.34966000  0.67587000  0.00865000  1.0 0.9425863119
Zn  Zn4  1  0.03703000  0.57947000  0.00973000  1.0 0.9567195269
Zn  Zn5  1  0.84966000  0.82413000  0.99135000  1.0 0.9425863119
Zn  Zn6  1  0.53703000  0.92053000  0.99027000  1.0 0.9567195269
Zn  Zn7  1  0.65034000  0.17587000  0.49135000  1.0 0.9425863119
Zn  Zn8  1  0.96297000  0.07947000  0.49027000  1.0 0.9567195269
H  H1  1  0.24127000  0.02658000  0.48809000  1.0 0.0737651927
H  H2  1  0.14647000  0.08226000  0.37761000  1.0 0.1306383701
H  H3  1  0.28550000  0.02182000  0.38049000  1.0 0.1306383701
H  H4  1  0.27594000  0.15682000  0.37222000  1.0 0.1367641667
H  H5  1  0.25873000  0.97342000  0.98809000  1.0 0.0737651927
H  H6  1  0.35353000  0.91774000  0.87761000  1.0 0.1306383701
H  H7  1  0.21450000  0.97818000  0.88049000  1.0 0.1306383701
H  H8  1  0.22406000  0.84318000  0.87222000  1.0 0.1367641667
H  H9  1  0.75873000  0.52658000  0.01191000  1.0 0.0737651927
H  H10  1  0.85353000  0.58226000  0.12239000  1.0 0.1306383701
H  H11  1  0.71450000  0.52182000  0.11951000  1.0 0.1306383701
H  H12  1  0.72406000  0.65682000  0.12778000  1.0 0.1367641667
H  H13  1  0.74127000  0.47342000  0.51191000  1.0 0.0737651927
H  H14  1  0.64647000  0.41774000  0.62239000  1.0 0.1306383701
H  H15  1  0.78550000  0.47818000  0.61951000  1.0 0.1306383701
H  H16  1  0.77594000  0.34318000  0.62778000  1.0 0.1367641667
H  H17  1  0.07331000  0.48332000  0.69234000  0.41 0.0737651927
H  H18  1  0.04942000  0.53243000  0.80307000  0.41 0.079634522
H  H19  1  0.43860000  0.50761000  0.82825000  0.41 0.0903882606
H  H20  1  0.46248000  0.45850000  0.71752000  0.41 0.079634522
H  H21  1  0.42669000  0.51668000  0.19234000  0.41 0.0737651927
H  H22  1  0.45058000  0.46757000  0.30307000  0.41 0.079634522
H  H23  1  0.06140000  0.49239000  0.32825000  0.41 0.0903882606
H  H24  1  0.03752000  0.54150000  0.21752000  0.41 0.079634522
H  H25  1  0.92669000  0.98332000  0.80766000  0.41 0.0737651927
H  H26  1  0.95058000  0.03243000  0.69693000  0.41 0.079634522
H  H27  1  0.56140000  0.00761000  0.67175000  0.41 0.0903882606
H  H28  1  0.53752000  0.95850000  0.78248000  0.41 0.079634522
H  H29  1  0.57331000  0.01668000  0.30766000  0.41 0.0737651927
H  H30  1  0.54942000  0.96757000  0.19693000  0.41 0.079634522
H  H31  1  0.93860000  0.99239000  0.17175000  0.41 0.0903882606
H  H32  1  0.96248000  0.04150000  0.28248000  0.41 0.079634522
H  H33  1  0.08827000  0.38953000  0.70632000  0.59 0.079634522
H  H34  1  0.06212000  0.43792000  0.81702000  0.59 0.0737651927
H  H35  1  0.41992000  0.58106000  0.81777000  0.59 0.0903882606
H  H36  1  0.44608000  0.53266000  0.70707000  0.59 0.079634522
H  H37  1  0.41173000  0.61047000  0.20632000  0.59 0.079634522
H  H38  1  0.43788000  0.56208000  0.31702000  0.59 0.0737651927
H  H39  1  0.08008000  0.41894000  0.31777000  0.59 0.0903882606
H  H40  1  0.05392000  0.46734000  0.20707000  0.59 0.079634522
H  H41  1  0.91173000  0.88953000  0.79368000  0.59 0.079634522
H  H42  1  0.93788000  0.93792000  0.68298000  0.59 0.0737651927
H  H43  1  0.58008000  0.08106000  0.68223000  0.59 0.0903882606
H  H44  1  0.55392000  0.03266000  0.79293000  0.59 0.079634522
H  H45  1  0.58827000  0.11047000  0.29368000  0.59 0.079634522
H  H46  1  0.56212000  0.06208000  0.18298000  0.59 0.0737651927
H  H47  1  0.91992000  0.91894000  0.18223000  0.59 0.0903882606
H  H48  1  0.94608000  0.96734000  0.29293000  0.59 0.079634522
C  C1  1  0.28310000  0.43120000  0.62350000  1.0 0.4481992143
C  C2  1  0.22320000  0.54880000  0.89880000  1.0 0.4481992143
C  C3  1  0.36350000  0.16950000  0.48660000  1.0 0.5818790289
C  C4  1  0.23810000  0.10370000  0.46750000  1.0 0.1306383701
C  C5  1  0.23630000  0.08990000  0.39270000  1.0 -0.551342955
C  C6  1  0.21690000  0.56880000  0.12350000  1.0 0.4481992143
C  C7  1  0.27680000  0.45120000  0.39880000  1.0 0.4481992143
C  C8  1  0.13650000  0.83050000  0.98660000  1.0 0.5818790289
C  C9  1  0.26190000  0.89630000  0.96750000  1.0 0.1306383701
C  C10  1  0.26370000  0.91010000  0.89270000  1.0 -0.551342955
C  C11  1  0.71690000  0.93120000  0.87650000  1.0 0.4481992143
C  C12  1  0.77680000  0.04880000  0.60120000  1.0 0.4481992143
C  C13  1  0.63650000  0.66950000  0.01340000  1.0 0.5818790289
C  C14  1  0.76190000  0.60370000  0.03250000  1.0 0.1306383701
C  C15  1  0.76370000  0.58990000  0.10730000  1.0 -0.551342955
C  C16  1  0.78310000  0.06880000  0.37650000  1.0 0.4481992143
C  C17  1  0.72320000  0.95120000  0.10120000  1.0 0.4481992143
C  C18  1  0.86350000  0.33050000  0.51340000  1.0 0.5818790289
C  C19  1  0.73810000  0.39630000  0.53250000  1.0 0.1306383701
C  C20  1  0.73630000  0.41010000  0.60730000  1.0 -0.551342955
C  C21  1  0.27010000  0.46630000  0.69450000  0.41 -0.0901058206
C  C22  1  0.14750000  0.48830000  0.71990000  0.41 -0.001219948
C  C23  1  0.13330000  0.51740000  0.78570000  0.41 -0.0165581319
C  C24  1  0.24180000  0.52460000  0.82610000  0.41 -0.0901058206
C  C25  1  0.36440000  0.50270000  0.80070000  0.41 -0.0088193547
C  C26  1  0.37860000  0.47350000  0.73490000  0.41 -0.001219948
C  C27  1  0.22990000  0.53370000  0.19450000  0.41 -0.0901058206
C  C28  1  0.35250000  0.51170000  0.21990000  0.41 0.0016073194
C  C29  1  0.36670000  0.48260000  0.28570000  0.41 -0.0165581319
C  C30  1  0.25820000  0.47540000  0.32610000  0.41 -0.0901058206
C  C31  1  0.13560000  0.49730000  0.30070000  0.41 -0.0088193547
C  C32  1  0.12140000  0.52650000  0.23490000  0.41 -0.001219948
C  C33  1  0.72990000  0.96630000  0.80550000  0.41 -0.0901058206
C  C34  1  0.85250000  0.98830000  0.78010000  0.41 0.0016073194
C  C35  1  0.86670000  0.01740000  0.71430000  0.41 -0.0165581319
C  C36  1  0.75820000  0.02460000  0.67390000  0.41 -0.0901058206
C  C37  1  0.63560000  0.00270000  0.69930000  0.41 -0.0088193547
C  C38  1  0.62140000  0.97350000  0.76510000  0.41 0.0016073194
C  C39  1  0.77010000  0.03370000  0.30550000  0.41 -0.0901058206
C  C40  1  0.64750000  0.01170000  0.28010000  0.41 0.0016073194
C  C41  1  0.63330000  0.98260000  0.21430000  0.41 -0.0165581319
C  C42  1  0.74180000  0.97540000  0.17390000  0.41 -0.0901058206
C  C43  1  0.86440000  0.99730000  0.19930000  0.41 -0.0088193547
C  C44  1  0.87860000  0.02650000  0.26510000  0.41 -0.001219948
C  C45  1  0.26960000  0.45650000  0.69630000  0.59 -0.097453451
C  C46  1  0.15560000  0.42840000  0.72890000  0.59 0.0092788909
C  C47  1  0.14010000  0.45720000  0.79470000  0.59 0.0092788909
C  C48  1  0.23860000  0.51400000  0.82780000  0.59 -0.0815878605
C  C49  1  0.35260000  0.54220000  0.79510000  0.59 -0.03250229
C  C50  1  0.36810000  0.51340000  0.72940000  0.59 -0.0088193547
C  C51  1  0.23040000  0.54350000  0.19630000  0.59 -0.097453451
C  C52  1  0.34440000  0.57160000  0.22890000  0.59 0.0092788909
C  C53  1  0.35990000  0.54280000  0.29470000  0.59 0.0092788909
C  C54  1  0.26140000  0.48600000  0.32780000  0.59 -0.0815878605
C  C55  1  0.14740000  0.45780000  0.29510000  0.59 -0.03250229
C  C56  1  0.13190000  0.48660000  0.22940000  0.59 -0.0088193547
C  C57  1  0.73040000  0.95650000  0.80370000  0.59 -0.097453451
C  C58  1  0.84440000  0.92840000  0.77110000  0.59 0.0092788909
C  C59  1  0.85990000  0.95720000  0.70530000  0.59 0.0092788909
C  C60  1  0.76140000  0.01400000  0.67220000  0.59 -0.0815878605
C  C61  1  0.64740000  0.04220000  0.70490000  0.59 -0.03250229
C  C62  1  0.63190000  0.01340000  0.77060000  0.59 -0.0088193547
C  C63  1  0.76960000  0.04350000  0.30370000  0.59 -0.097453451
C  C64  1  0.65560000  0.07160000  0.27110000  0.59 0.0092788909
C  C65  1  0.64010000  0.04280000  0.20530000  0.59 0.0092788909
C  C66  1  0.73860000  0.98600000  0.17220000  0.59 -0.0815878605
C  C67  1  0.85260000  0.95780000  0.20490000  0.59 -0.03250229
C  C68  1  0.86810000  0.98660000  0.27060000  0.59 -0.0088193547
O  O1  1  0.18650000  0.38850000  0.59680000  1.0 -0.4820616862
O  O2  1  0.39150000  0.45370000  0.59770000  1.0 -0.5336714593
O  O3  1  0.11330000  0.54010000  0.92260000  1.0 -0.5045177323
O  O4  1  0.32450000  0.58100000  0.92880000  1.0 -0.5111062733
O  O5  1  0.34840000  0.27010000  0.50560000  1.0 -0.5749769417
O  O6  1  0.46770000  0.11960000  0.47980000  1.0 -0.4820616862
O  O7  1  0.12700000  0.16100000  0.49080000  1.0 -0.5790970651
O  O8  1  0.31350000  0.61150000  0.09680000  1.0 -0.4820616862
O  O9  1  0.10850000  0.54630000  0.09770000  1.0 -0.5336714593
O  O10  1  0.38670000  0.45990000  0.42260000  1.0 -0.5045177323
O  O11  1  0.17550000  0.41900000  0.42880000  1.0 -0.5111062733
O  O12  1  0.15160000  0.72990000  0.00560000  1.0 -0.5790970651
O  O13  1  0.03230000  0.88040000  0.97980000  1.0 -0.4820616862
O  O14  1  0.37300000  0.83900000  0.99080000  1.0 -0.5790970651
O  O15  1  0.81350000  0.88850000  0.90320000  1.0 -0.4820616862
O  O16  1  0.60850000  0.95370000  0.90230000  1.0 -0.5336714593
O  O17  1  0.88670000  0.04010000  0.57740000  1.0 -0.5045177323
O  O18  1  0.67550000  0.08100000  0.57120000  1.0 -0.5111062733
O  O19  1  0.65160000  0.77010000  0.99440000  1.0 -0.5749769417
O  O20  1  0.53230000  0.61960000  0.02020000  1.0 -0.4820616862
O  O21  1  0.87300000  0.66100000  0.00920000  1.0 -0.5790970651
O  O22  1  0.68650000  0.11150000  0.40320000  1.0 -0.4820616862
O  O23  1  0.89150000  0.04630000  0.40230000  1.0 -0.5336714593
O  O24  1  0.61330000  0.95990000  0.07740000  1.0 -0.5045177323
O  O25  1  0.82450000  0.91900000  0.07120000  1.0 -0.5111062733
O  O26  1  0.84840000  0.22990000  0.49440000  1.0 -0.5749769417
O  O27  1  0.96770000  0.38040000  0.52020000  1.0 -0.4820616862
O  O28  1  0.62700000  0.33900000  0.50920000  1.0 -0.5790970651
