# DDEC6 charges by PACMAN v1.1 (https://github.com/mtap-research/PACMAN-charge/)
data_2017[Zn][dia]3[FSR]3
_chemical_formula_sum              "Zn4 H96 C156 S8 N8 O16 F24"
_cell_length_a       7.106
_cell_length_b       24.681
_cell_length_c       29.181
_cell_angle_alpha    90
_cell_angle_beta     90
_cell_angle_gamma    90

_symmetry_space_group_name_H-M    "P 1"
_symmetry_Int_Tables_number       1

loop_
  _symmetry_equiv_pos_as_xyz
  'x, y, z'

loop_
  _atom_site_type_symbol
  _atom_site_label
  _atom_site_symmetry_multiplicity
  _atom_site_fract_x
  _atom_site_fract_y
  _atom_site_fract_z
  _atom_site_occupancy
  _atom_site_charge
Zn  Zn1       1.0  0.41477  0.03884  0.73372  1.0000 0.7383280774
Zn  Zn2       1.0  0.08523  0.96116  0.23372  1.0000 0.7383280774
Zn  Zn3       1.0  0.91477  0.46116  0.26628  1.0000 0.7383280774
Zn  Zn4       1.0  0.58523  0.53884  0.76628  1.0000 0.7383280774
H   H1        1.0  0.26649  0.93519  0.77037  1.0000 0.1187558469
H   H2        1.0  0.23351  0.06481  0.27037  1.0000 0.1187558469
H   H3        1.0  0.76649  0.56481  0.22963  1.0000 0.1187558469
H   H4        1.0  0.73351  0.43519  0.72963  1.0000 0.1187558469
H   H5        1.0  0.37753  0.81210  0.69598  1.0000 0.1108679567
H   H6        1.0  0.12247  0.18790  0.19598  1.0000 0.1108679567
H   H7        1.0  0.87753  0.68790  0.30402  1.0000 0.1108679567
H   H8        1.0  0.62247  0.31210  0.80402  1.0000 0.1108679567
H   H9        1.0  0.23549  0.84301  0.01532  1.0000 0.132121081
H   H10       1.0  0.26451  0.15699  0.51532  1.0000 0.132121081
H   H11       1.0  0.73549  0.65699  0.98468  1.0000 0.132121081
H   H12       1.0  0.76451  0.34301  0.48468  1.0000 0.132121081
H   H13       1.0  0.46546  0.95797  0.18777  1.0000 0.1108679567
H   H14       1.0  0.03454  0.04203  0.68777  1.0000 0.1108679567
H   H15       1.0  0.96546  0.54203  0.81223  1.0000 0.1108679567
H   H16       1.0  0.53454  0.45797  0.31223  1.0000 0.1108679567
H   H17       1.0  0.62771  0.87574  0.74900  1.0000 0.1108679567
H   H18       1.0  0.87229  0.12426  0.24900  1.0000 0.1108679567
H   H19       1.0  0.12771  0.62426  0.25100  1.0000 0.1108679567
H   H20       1.0  0.37229  0.37574  0.75100  1.0000 0.1108679567
H   H21       1.0  0.81734  0.05289  0.82073  1.0000 0.1390986516
H   H22       1.0  0.68266  0.94711  0.32073  1.0000 0.1390986516
H   H23       1.0  0.31734  0.44711  0.17927  1.0000 0.1390986516
H   H24       1.0  0.18266  0.55289  0.67927  1.0000 0.1390986516
H   H25       1.0  0.13696  0.65075  0.75017  1.0000 0.1187558469
H   H26       1.0  0.36304  0.34925  0.25017  1.0000 0.1187558469
H   H27       1.0  0.63696  0.84925  0.24983  1.0000 0.1187558469
H   H28       1.0  0.86304  0.15075  0.74983  1.0000 0.1187558469
H   H29       1.0  0.81310  0.80082  0.75402  1.0000 0.1187558469
H   H30       1.0  0.68690  0.19918  0.25402  1.0000 0.1187558469
H   H31       1.0  0.31310  0.69918  0.24598  1.0000 0.1187558469
H   H32       1.0  0.18690  0.30082  0.74598  1.0000 0.1187558469
H   H33       1.0  0.94100  0.72183  0.73569  1.0000 0.1187558469
H   H34       1.0  0.55900  0.27817  0.23569  1.0000 0.1187558469
H   H35       1.0  0.44100  0.77817  0.26431  1.0000 0.1187558469
H   H36       1.0  0.05900  0.22183  0.76431  1.0000 0.1187558469
H   H37       1.0  0.97600  0.93807  0.65523  1.0000 0.1187558469
H   H38       1.0  0.52400  0.06193  0.15523  1.0000 0.1187558469
H   H39       1.0  0.47600  0.56193  0.34477  1.0000 0.1187558469
H   H40       1.0  0.02400  0.43807  0.84477  1.0000 0.1187558469
H   H41       1.0  0.01858  0.90244  0.81037  1.0000 0.132121081
H   H42       1.0  0.48142  0.09756  0.31037  1.0000 0.132121081
H   H43       1.0  0.51858  0.59756  0.18963  1.0000 0.132121081
H   H44       1.0  0.98142  0.40244  0.68963  1.0000 0.132121081
H   H45       1.0  0.08025  0.08306  0.78443  1.0000 0.1187558469
H   H46       1.0  0.41975  0.91694  0.28443  1.0000 0.1187558469
H   H47       1.0  0.58025  0.41694  0.21557  1.0000 0.1187558469
H   H48       1.0  0.91975  0.58306  0.71557  1.0000 0.1187558469
H   H49       1.0  0.59637  0.93022  0.12054  1.0000 0.1390986516
H   H50       1.0  0.90363  0.06978  0.62054  1.0000 0.1390986516
H   H51       1.0  0.09637  0.56978  0.87946  1.0000 0.1390986516
H   H52       1.0  0.40363  0.43022  0.37946  1.0000 0.1390986516
H   H53       1.0  0.73691  0.87067  0.83749  1.0000 0.132121081
H   H54       1.0  0.76309  0.12933  0.33749  1.0000 0.132121081
H   H55       1.0  0.23691  0.62933  0.16251  1.0000 0.132121081
H   H56       1.0  0.26309  0.37067  0.66251  1.0000 0.132121081
H   H57       1.0  0.97823  0.90215  0.14972  1.0000 0.1187558469
H   H58       1.0  0.52177  0.09785  0.64972  1.0000 0.1187558469
H   H59       1.0  0.47823  0.59785  0.85028  1.0000 0.1187558469
H   H60       1.0  0.02177  0.40215  0.35028  1.0000 0.1187558469
H   H61       1.0  0.16090  0.86216  0.66192  1.0000 0.1187558469
H   H62       1.0  0.33910  0.13784  0.16192  1.0000 0.1187558469
H   H63       1.0  0.66090  0.63784  0.33808  1.0000 0.1187558469
H   H64       1.0  0.83910  0.36216  0.83808  1.0000 0.1187558469
H   H65       1.0  0.57091  0.73954  0.70973  1.0000 0.1187558469
H   H66       1.0  0.92909  0.26046  0.20973  1.0000 0.1187558469
H   H67       1.0  0.07091  0.76046  0.29027  1.0000 0.1187558469
H   H68       1.0  0.42909  0.23954  0.79027  1.0000 0.1187558469
H   H69       1.0  0.17636  0.92409  0.91480  1.0000 0.132121081
H   H70       1.0  0.32364  0.07591  0.41480  1.0000 0.132121081
H   H71       1.0  0.67636  0.57591  0.08520  1.0000 0.132121081
H   H72       1.0  0.82364  0.42409  0.58520  1.0000 0.132121081
H   H73       1.0  0.21365  0.98659  0.91183  1.0000 0.1390986516
H   H74       1.0  0.28635  0.01341  0.41183  1.0000 0.1390986516
H   H75       1.0  0.71365  0.51341  0.08817  1.0000 0.1390986516
H   H76       1.0  0.78635  0.48659  0.58817  1.0000 0.1390986516
H   H77       1.0  0.30233  0.95258  0.95173  1.0000 0.1390986516
H   H78       1.0  0.19767  0.04742  0.45173  1.0000 0.1390986516
H   H79       1.0  0.80233  0.54742  0.04827  1.0000 0.1390986516
H   H80       1.0  0.69767  0.45258  0.54827  1.0000 0.1390986516
H   H81       1.0  0.10145  0.87284  0.08377  1.0000 0.132121081
H   H82       1.0  0.39855  0.12716  0.58377  1.0000 0.132121081
H   H83       1.0  0.60145  0.62716  0.91623  1.0000 0.132121081
H   H84       1.0  0.89855  0.37284  0.41623  1.0000 0.132121081
H   H85       1.0  0.81076  0.82638  0.93598  1.0000 0.1390986516
H   H86       1.0  0.68924  0.17362  0.43598  1.0000 0.1390986516
H   H87       1.0  0.31076  0.67362  0.06402  1.0000 0.1390986516
H   H88       1.0  0.18924  0.32638  0.56402  1.0000 0.1390986516
H   H89       1.0  0.93465  0.85385  0.97387  1.0000 0.1390986516
H   H90       1.0  0.56535  0.14615  0.47387  1.0000 0.1390986516
H   H91       1.0  0.43465  0.64615  0.02613  1.0000 0.1390986516
H   H92       1.0  0.06535  0.35385  0.52613  1.0000 0.1390986516
H   H93       1.0  0.83901  0.88937  0.93591  1.0000 0.1390986516
H   H94       1.0  0.66099  0.11063  0.43591  1.0000 0.1390986516
H   H95       1.0  0.33901  0.61063  0.06409  1.0000 0.1390986516
H   H96       1.0  0.16099  0.38937  0.56409  1.0000 0.1390986516
C   C1        1.0  0.78210  0.91555  0.70150  1.0000 -0.0260642709
C   C2        1.0  0.71790  0.08445  0.20150  1.0000 -0.0260642709
C   C3        1.0  0.28210  0.58445  0.29850  1.0000 -0.0260642709
C   C4        1.0  0.21790  0.41555  0.79850  1.0000 -0.0260642709
C   C5        1.0  0.44410  0.87945  0.05054  1.0000 -0.0260642709
C   C6        1.0  0.05590  0.12055  0.55054  1.0000 -0.0260642709
C   C7        1.0  0.94410  0.62055  0.94946  1.0000 -0.0260642709
C   C8        1.0  0.55590  0.37945  0.44946  1.0000 -0.0260642709
C   C9        1.0  0.50200  0.63940  0.73710  1.0000 0.5407759414
C   C10       1.0  0.99800  0.36060  0.23710  1.0000 0.5407759414
C   C11       1.0  0.00200  0.86060  0.26290  1.0000 0.5407759414
C   C12       1.0  0.49800  0.13940  0.76290  1.0000 0.5453430791
C   C13       1.0  0.17580  0.95908  0.78130  1.0000 0.0537597393
C   C14       1.0  0.32420  0.04092  0.28130  1.0000 0.0537597393
C   C15       1.0  0.67580  0.54092  0.21870  1.0000 0.0537597393
C   C16       1.0  0.82420  0.45908  0.71870  1.0000 0.0537597393
C   C17       1.0  0.42080  0.81993  0.93425  1.0000 -0.0740944068
C   C18       1.0  0.07920  0.18007  0.43425  1.0000 -0.0740944068
C   C19       1.0  0.92080  0.68007  0.06575  1.0000 -0.0740944068
C   C20       1.0  0.57920  0.31993  0.56575  1.0000 -0.0740944068
C   C21       1.0  0.51030  0.89349  0.87762  1.0000 0.0122979339
C   C22       1.0  0.98970  0.10651  0.37762  1.0000 0.0122979339
C   C23       1.0  0.01030  0.60651  0.12238  1.0000 0.0122979339
C   C24       1.0  0.48970  0.39349  0.62238  1.0000 0.0122979339
C   C25       1.0  0.43990  0.84013  0.89168  1.0000 -0.0789446118
C   C26       1.0  0.06010  0.15987  0.39168  1.0000 -0.0789446118
C   C27       1.0  0.93990  0.65987  0.10832  1.0000 -0.0789446118
C   C28       1.0  0.56010  0.34013  0.60832  1.0000 -0.0789446118
C   C29       1.0  0.32710  0.77990  0.70700  1.0000 -0.1492228087
C   C30       1.0  0.17290  0.22010  0.20700  1.0000 -0.1492228087
C   C31       1.0  0.82710  0.72010  0.29300  1.0000 -0.1492228087
C   C32       1.0  0.67290  0.27990  0.79300  1.0000 -0.1492228087
C   C33       1.0  0.72010  0.95212  0.84355  1.0000 -0.0354790096
C   C34       1.0  0.77990  0.04788  0.34355  1.0000 -0.0354790096
C   C35       1.0  0.22010  0.54788  0.15645  1.0000 -0.0354790096
C   C36       1.0  0.27990  0.45212  0.65645  1.0000 -0.0354790096
C   C37       1.0  0.43810  0.94185  0.89113  1.0000 0.0368424013
C   C38       1.0  0.06190  0.05815  0.39113  1.0000 0.0368424013
C   C39       1.0  0.93810  0.55815  0.10887  1.0000 0.0368424013
C   C40       1.0  0.56190  0.44185  0.60887  1.0000 0.0368424013
C   C41       1.0  0.33600  0.76411  0.93299  1.0000 0.339793839
C   C42       1.0  0.16400  0.23589  0.43299  1.0000 0.339793839
C   C43       1.0  0.83600  0.73589  0.06701  1.0000 0.339793839
C   C44       1.0  0.66400  0.26411  0.56701  1.0000 0.339793839
C   C45       1.0  0.37380  0.68704  0.72895  1.0000 -0.0225854046
C   C46       1.0  0.12620  0.31296  0.22895  1.0000 -0.0225854046
C   C47       1.0  0.87380  0.81296  0.27105  1.0000 -0.0225854046
C   C48       1.0  0.62620  0.18704  0.77105  1.0000 -0.0225854046
C   C49       1.0  0.36070  0.85394  0.01476  1.0000 -0.2077802732
C   C50       1.0  0.13930  0.14606  0.51476  1.0000 -0.2077802732
C   C51       1.0  0.86070  0.64606  0.98524  1.0000 -0.2077802732
C   C52       1.0  0.63930  0.35394  0.48524  1.0000 -0.2077802732
C   C53       1.0  0.47880  0.84528  0.97662  1.0000 0.0204005716
C   C54       1.0  0.02120  0.15472  0.47662  1.0000 0.0204005716
C   C55       1.0  0.97880  0.65472  0.02338  1.0000 0.0204005716
C   C56       1.0  0.52120  0.34528  0.52338  1.0000 0.0204005716
C   C57       1.0  0.66960  0.96726  0.70058  1.0000 0.5407759414
C   C58       1.0  0.83040  0.03274  0.20058  1.0000 0.5407759414
C   C59       1.0  0.16960  0.53274  0.29942  1.0000 0.5407759414
C   C60       1.0  0.33040  0.46726  0.79942  1.0000 0.5407759414
C   C61       1.0  0.38930  0.94110  0.16611  1.0000 0.0985570275
C   C62       1.0  0.11070  0.05890  0.66611  1.0000 0.0985570275
C   C63       1.0  0.88930  0.55890  0.83389  1.0000 0.0985570275
C   C64       1.0  0.61070  0.44110  0.33389  1.0000 0.0985570275
C   C65       1.0  0.73610  0.87346  0.73124  1.0000 -0.1082232553
C   C66       1.0  0.76390  0.12654  0.23124  1.0000 -0.1082232553
C   C67       1.0  0.23610  0.62654  0.26876  1.0000 -0.1082232553
C   C68       1.0  0.26390  0.37346  0.76876  1.0000 -0.1082232553
C   C69       1.0  0.88480  0.97403  0.81931  1.0000 0.132121081
C   C70       1.0  0.61520  0.02597  0.31931  1.0000 0.132121081
C   C71       1.0  0.38480  0.52597  0.18069  1.0000 0.132121081
C   C72       1.0  0.11520  0.47403  0.68069  1.0000 0.132121081
C   C73       1.0  0.90820  0.02827  0.81115  1.0000 -0.18668846
C   C74       1.0  0.59180  0.97173  0.31115  1.0000 -0.18668846
C   C75       1.0  0.40820  0.47173  0.18885  1.0000 -0.18668846
C   C76       1.0  0.09180  0.52827  0.68885  1.0000 -0.18668846
C   C77       1.0  0.18560  0.68290  0.73850  1.0000 -0.1015101918
C   C78       1.0  0.31440  0.31710  0.23850  1.0000 -0.1015101918
C   C79       1.0  0.68560  0.81710  0.26150  1.0000 -0.1015101918
C   C80       1.0  0.81440  0.18290  0.76150  1.0000 -0.1015101918
C   C81       1.0  0.01350  0.82338  0.71044  1.0000 0.0713713695
C   C82       1.0  0.48650  0.17662  0.21044  1.0000 0.0713713695
C   C83       1.0  0.51350  0.67662  0.28956  1.0000 0.0713713695
C   C84       1.0  0.98650  0.32338  0.78956  1.0000 0.0713713695
C   C85       1.0  0.84930  0.82876  0.73454  1.0000 -0.1612736248
C   C86       1.0  0.65070  0.17124  0.23454  1.0000 -0.1612736248
C   C87       1.0  0.34930  0.67124  0.26546  1.0000 -0.1612736248
C   C88       1.0  0.15070  0.32876  0.76546  1.0000 -0.1612736248
C   C89       1.0  0.65520  0.86430  0.98458  1.0000 0.0335890171
C   C90       1.0  0.84480  0.13570  0.48458  1.0000 0.0335890171
C   C91       1.0  0.15520  0.63570  0.01542  1.0000 0.0368424013
C   C92       1.0  0.34480  0.36430  0.51542  1.0000 0.0368424013
C   C93       1.0  0.13360  0.77597  0.71603  1.0000 0.0713713695
C   C94       1.0  0.36640  0.22403  0.21603  1.0000 0.0713713695
C   C95       1.0  0.63360  0.72403  0.28397  1.0000 0.0713713695
C   C96       1.0  0.86640  0.27597  0.78397  1.0000 0.0713713695
C   C97       1.0  0.36500  0.89668  0.09371  1.0000 0.1187558469
C   C98       1.0  0.13500  0.10332  0.59371  1.0000 0.1187558469
C   C99       1.0  0.86500  0.60332  0.90629  1.0000 0.1187558469
C   C100      1.0  0.63500  0.39668  0.40629  1.0000 0.1187558469
C   C101      1.0  0.06940  0.72619  0.73080  1.0000 -0.1323880921
C   C102      1.0  0.43060  0.27381  0.23080  1.0000 -0.1323880921
C   C103      1.0  0.56940  0.77381  0.26920  1.0000 -0.1323880921
C   C104      1.0  0.93060  0.22619  0.76920  1.0000 -0.1323880921
C   C105      1.0  0.94240  0.91080  0.67563  1.0000 -0.1082232553
C   C106      1.0  0.55760  0.08920  0.17563  1.0000 -0.1082232553
C   C107      1.0  0.44240  0.58920  0.32437  1.0000 -0.1082232553
C   C108      1.0  0.05760  0.41080  0.82437  1.0000 -0.1082232553
C   C109      1.0  0.02680  0.93937  0.80437  1.0000 -0.1612736248
C   C110      1.0  0.47320  0.06063  0.30437  1.0000 -0.1693362634
C   C111      1.0  0.52680  0.56063  0.19563  1.0000 -0.1612736248
C   C112      1.0  0.97320  0.43937  0.69563  1.0000 -0.1612736248
C   C113      1.0  0.06540  0.04600  0.78894  1.0000 0.0985570275
C   C114      1.0  0.43460  0.95400  0.28894  1.0000 0.0985570275
C   C115      1.0  0.56540  0.45400  0.21106  1.0000 0.0985570275
C   C116      1.0  0.93460  0.54600  0.71106  1.0000 0.0985570275
C   C117      1.0  0.46940  0.92370  0.12596  1.0000 -0.1973797153
C   C118      1.0  0.03060  0.07630  0.62596  1.0000 -0.1973797153
C   C119      1.0  0.96940  0.57630  0.87404  1.0000 -0.1973797153
C   C120      1.0  0.53060  0.42370  0.37404  1.0000 -0.1973797153
C   C121      1.0  0.67100  0.89966  0.85002  1.0000 -0.2077802732
C   C122      1.0  0.82900  0.10034  0.35002  1.0000 -0.2077802732
C   C123      1.0  0.17100  0.60034  0.14998  1.0000 -0.2077802732
C   C124      1.0  0.32900  0.39966  0.64998  1.0000 -0.2077802732
C   C125      1.0  0.37690  0.79900  0.85654  1.0000 0.348007821
C   C126      1.0  0.12310  0.20100  0.35654  1.0000 0.348007821
C   C127      1.0  0.87690  0.70100  0.14346  1.0000 0.348007821
C   C128      1.0  0.62310  0.29900  0.64346  1.0000 0.348007821
C   C129      1.0  0.10510  0.90830  0.14391  1.0000 0.0775357192
C   C130      1.0  0.39490  0.09170  0.64391  1.0000 0.0775357192
C   C131      1.0  0.60510  0.59170  0.85609  1.0000 0.0775357192
C   C132      1.0  0.89490  0.40830  0.35609  1.0000 0.0775357192
C   C133      1.0  0.05390  0.86510  0.68011  1.0000 -0.1492228087
C   C134      1.0  0.44610  0.13490  0.18011  1.0000 -0.1492228087
C   C135      1.0  0.55390  0.63490  0.31989  1.0000 -0.1492228087
C   C136      1.0  0.94610  0.36510  0.81989  1.0000 -0.1492228087
C   C137      1.0  0.44220  0.73587  0.71460  1.0000 -0.1015101918
C   C138      1.0  0.05780  0.26413  0.21460  1.0000 -0.1015101918
C   C139      1.0  0.94220  0.76413  0.28540  1.0000 -0.1015101918
C   C140      1.0  0.55780  0.23587  0.78540  1.0000 -0.1015101918
C   C141      1.0  0.26720  0.95220  0.92000  1.0000 -0.4281065981
C   C142      1.0  0.23280  0.04780  0.42000  1.0000 -0.4281065981
C   C143      1.0  0.76720  0.54780  0.08000  1.0000 -0.4281065981
C   C144      1.0  0.73280  0.45220  0.58000  1.0000 -0.4281065981
C   C145      1.0  0.17960  0.89040  0.10459  1.0000 -0.1767591532
C   C146      1.0  0.32040  0.10960  0.60459  1.0000 -0.1767591532
C   C147      1.0  0.67960  0.60960  0.89541  1.0000 -0.1767591532
C   C148      1.0  0.82040  0.39040  0.39541  1.0000 -0.1767591532
C   C149      1.0  0.28150  0.75470  0.88335  1.0000 0.2445128006
C   C150      1.0  0.21850  0.24530  0.38335  1.0000 0.2445128006
C   C151      1.0  0.78150  0.74530  0.11665  1.0000 0.2445128006
C   C152      1.0  0.71850  0.25470  0.61665  1.0000 0.2445128006
C   C153      1.0  0.82510  0.85790  0.95494  1.0000 -0.464235119
C   C154      1.0  0.67490  0.14210  0.45494  1.0000 -0.464235119
C   C155      1.0  0.32510  0.64210  0.04506  1.0000 -0.464235119
C   C156      1.0  0.17490  0.35790  0.54506  1.0000 -0.464235119
S   S1        1.0  0.67424  0.89187  0.03765  1.0000 0.0873221629
S   S2        1.0  0.82576  0.10813  0.53765  1.0000 0.0873221629
S   S3        1.0  0.17424  0.60813  0.96235  1.0000 0.0873221629
S   S4        1.0  0.32576  0.39187  0.46235  1.0000 0.0873221629
S   S5        1.0  0.56408  0.99470  0.86997  1.0000 0.1108679567
S   S6        1.0  0.93592  0.00530  0.36997  1.0000 0.1108679567
S   S7        1.0  0.06408  0.50530  0.13003  1.0000 0.1108679567
S   S8        1.0  0.43592  0.49470  0.63003  1.0000 0.1108679567
N   N1        1.0  0.19710  0.01321  0.77356  1.0000 -0.2450787644
N   N2        1.0  0.30290  0.98679  0.27356  1.0000 -0.2450787644
N   N3        1.0  0.69710  0.48679  0.22644  1.0000 -0.2450787644
N   N4        1.0  0.80290  0.51321  0.72644  1.0000 -0.2450787644
N   N5        1.0  0.20840  0.93501  0.17527  1.0000 -0.2338049631
N   N6        1.0  0.29160  0.06499  0.67527  1.0000 -0.2338049631
N   N7        1.0  0.70840  0.56499  0.82473  1.0000 -0.2338049631
N   N8        1.0  0.79160  0.43501  0.32473  1.0000 -0.2338049631
O   O1        1.0  0.53600  0.96941  0.72818  1.0000 -0.5294276248
O   O2        1.0  0.96400  0.03059  0.22818  1.0000 -0.5294276248
O   O3        1.0  0.03600  0.53059  0.27182  1.0000 -0.5294276248
O   O4        1.0  0.46400  0.46941  0.77182  1.0000 -0.5294276248
O   O5        1.0  0.42090  0.59455  0.74507  1.0000 -0.541407309
O   O6        1.0  0.07910  0.40545  0.24507  1.0000 -0.541407309
O   O7        1.0  0.92090  0.90545  0.25493  1.0000 -0.541407309
O   O8        1.0  0.57910  0.09455  0.75493  1.0000 -0.541407309
O   O9        1.0  0.71100  0.00364  0.67434  1.0000 -0.5294276248
O   O10       1.0  0.78900  0.99636  0.17434  1.0000 -0.5294276248
O   O11       1.0  0.21100  0.49636  0.32566  1.0000 -0.5294276248
O   O12       1.0  0.28900  0.50364  0.82566  1.0000 -0.5294276248
O   O13       1.0  0.67080  0.64500  0.73646  1.0000 -0.5294276248
O   O14       1.0  0.82920  0.35500  0.23646  1.0000 -0.5294276248
O   O15       1.0  0.17080  0.85500  0.26354  1.0000 -0.5294276248
O   O16       1.0  0.32920  0.14500  0.76354  1.0000 -0.5294276248
F   F1        1.0  0.46250  0.72638  0.94646  1.0000 -0.1693362634
F   F2        1.0  0.03750  0.27362  0.44646  1.0000 -0.1693362634
F   F3        1.0  0.96250  0.77362  0.05354  1.0000 -0.1693362634
F   F4        1.0  0.53750  0.22638  0.55354  1.0000 -0.1693362634
F   F5        1.0  0.18920  0.75857  0.96050  1.0000 -0.1492228087
F   F6        1.0  0.31080  0.24143  0.46050  1.0000 -0.1492228087
F   F7        1.0  0.68920  0.74143  0.03950  1.0000 -0.1492228087
F   F8        1.0  0.81080  0.25857  0.53950  1.0000 -0.1492228087
F   F9        1.0  0.52340  0.77826  0.83422  1.0000 -0.1492228087
F   F10       1.0  0.97660  0.22174  0.33422  1.0000 -0.1492228087
F   F11       1.0  0.02340  0.72174  0.16578  1.0000 -0.1492228087
F   F12       1.0  0.47660  0.27826  0.66578  1.0000 -0.1492228087
F   F13       1.0  0.27250  0.82015  0.82446  1.0000 -0.1492228087
F   F14       1.0  0.22750  0.17985  0.32446  1.0000 -0.1492228087
F   F15       1.0  0.77250  0.67985  0.17554  1.0000 -0.1492228087
F   F16       1.0  0.72750  0.32015  0.67554  1.0000 -0.1492228087
F   F17       1.0  0.29740  0.70637  0.86934  1.0000 -0.1323880921
F   F18       1.0  0.20260  0.29363  0.36934  1.0000 -0.1323880921
F   F19       1.0  0.79740  0.79363  0.13066  1.0000 -0.1323880921
F   F20       1.0  0.70260  0.20637  0.63066  1.0000 -0.1323880921
F   F21       1.0  0.09330  0.76450  0.88015  1.0000 -0.1492228087
F   F22       1.0  0.40670  0.23550  0.38015  1.0000 -0.1492228087
F   F23       1.0  0.59330  0.73550  0.11985  1.0000 -0.1492228087
F   F24       1.0  0.90670  0.26450  0.61985  1.0000 -0.1492228087
