# DDEC6 charges by PACMAN v1.1 (https://github.com/mtap-research/PACMAN-charge/)
data_c8ce00653a2_4_ASR_pacman
_symmetry_space_group_name_H-M   'P 1'
_cell_length_a   16.99300000
_cell_length_b   42.00600000
_cell_length_c   42.42600000
_cell_angle_alpha   90.00000000
_cell_angle_beta   90.00000000
_cell_angle_gamma   90.00000000
_symmetry_Int_Tables_number   1
_chemical_formula_structural   Fe25H400C531S31N100O102.5F93
_chemical_formula_sum   'Fe25 H400 C531 S31 N100 O102.5 F93'
_cell_volume   30284.01642611
_cell_formula_units_Z   1
loop_
 _symmetry_equiv_pos_site_id
 _symmetry_equiv_pos_as_xyz
  1  'x, y, z'
loop_
 _atom_site_type_symbol
 _atom_site_label
 _atom_site_symmetry_multiplicity
 _atom_site_fract_x
 _atom_site_fract_y
 _atom_site_fract_z
 _atom_site_occupancy
 _atom_site_charge
Fe  Fe1  1  0.50454000  0.99835000  0.23613000  1.0 0.6984267299
Fe  Fe2  1  0.24546000  0.75165000  0.23613000  1.0 0.2693317923
Fe  Fe3  1  0.50454000  0.75165000  0.01387000  1.0 0.7179565196
Fe  Fe4  1  0.24546000  0.99835000  0.01387000  1.0 0.6984267299
Fe  Fe5  1  0.50454000  0.49835000  0.73613000  1.0 0.7059349859
Fe  Fe6  1  0.24546000  0.25165000  0.73613000  1.0 0.7059349859
Fe  Fe7  1  0.50454000  0.25165000  0.51387000  1.0 0.7179565196
Fe  Fe8  1  0.24546000  0.49835000  0.51387000  1.0 0.2577831611
Fe  Fe9  1  0.00454000  0.99835000  0.73613000  1.0 0.6908007944
Fe  Fe10  1  0.74546000  0.75165000  0.73613000  1.0 0.7059349859
Fe  Fe11  1  0.00454000  0.75165000  0.51387000  1.0 0.3087181182
Fe  Fe12  1  0.74546000  0.99835000  0.51387000  1.0 0.6984267299
Fe  Fe13  1  0.00454000  0.49835000  0.23613000  1.0 0.6984267299
Fe  Fe14  1  0.74546000  0.25165000  0.23613000  1.0 0.7059349859
Fe  Fe15  1  0.74546000  0.49835000  0.01387000  1.0 0.7059349859
Fe  Fe16  1  0.49546000  0.00165000  0.76387000  1.0 0.6908007944
Fe  Fe17  1  0.25454000  0.74835000  0.76387000  1.0 0.6908007944
Fe  Fe18  1  0.49546000  0.74835000  0.48613000  1.0 0.7484041894
Fe  Fe19  1  0.25454000  0.00165000  0.48613000  1.0 0.6984267299
Fe  Fe20  1  0.49546000  0.50165000  0.26387000  1.0 0.6984267299
Fe  Fe21  1  0.25454000  0.74835000  0.26387000  1.0 0.2798941646
Fe  Fe22  1  0.25454000  0.50165000  0.48613000  1.0 0.2693317923
Fe  Fe23  1  0.99546000  0.00165000  0.26387000  1.0 0.6908007944
Fe  Fe24  1  0.99546000  0.74835000  0.48613000  1.0 0.3087181182
Fe  Fe25  1  0.99546000  0.50165000  0.76387000  1.0 0.6908007944
H  H1  1  0.50680000  0.93080000  0.20660000  1.0 0.0898626377
H  H2  1  0.24320000  0.81920000  0.20660000  1.0 0.0595857854
H  H3  1  0.50680000  0.81920000  0.04340000  1.0 0.1000199824
H  H4  1  0.24320000  0.93080000  0.04340000  1.0 0.0898626377
H  H5  1  0.50680000  0.43080000  0.70660000  1.0 0.0794699318
H  H6  1  0.24320000  0.31920000  0.70660000  1.0 0.0794699318
H  H7  1  0.50680000  0.31920000  0.54340000  1.0 0.0898626377
H  H8  1  0.24320000  0.43080000  0.54340000  1.0 0.0502700582
H  H9  1  0.00680000  0.93080000  0.70660000  1.0 0.0794699318
H  H10  1  0.74320000  0.81920000  0.70660000  1.0 0.0898626377
H  H11  1  0.00680000  0.81920000  0.54340000  1.0 0.0502700582
H  H12  1  0.74320000  0.93080000  0.54340000  1.0 0.0898626377
H  H13  1  0.00680000  0.43080000  0.20660000  1.0 0.0702200655
H  H14  1  0.74320000  0.31920000  0.20660000  1.0 0.0794699318
H  H15  1  0.74320000  0.43080000  0.04340000  1.0 0.1000199824
H  H16  1  0.49320000  0.06920000  0.79340000  1.0 0.0794699318
H  H17  1  0.25680000  0.68080000  0.79340000  1.0 0.0794699318
H  H18  1  0.49320000  0.68080000  0.45660000  1.0 0.0794699318
H  H19  1  0.25680000  0.06920000  0.45660000  1.0 0.0794699318
H  H20  1  0.49320000  0.56920000  0.29340000  1.0 0.0794699318
H  H21  1  0.25680000  0.68080000  0.29340000  1.0 0.0502700582
H  H22  1  0.25680000  0.56920000  0.45660000  1.0 0.0502700582
H  H23  1  0.99320000  0.06920000  0.29340000  1.0 0.0794699318
H  H24  1  0.99320000  0.68080000  0.45660000  1.0 0.0411299227
H  H25  1  0.99320000  0.56920000  0.79340000  1.0 0.0794699318
H  H26  1  0.54900000  0.87990000  0.21570000  1.0 0.1206544388
H  H27  1  0.20100000  0.87010000  0.21570000  1.0 0.0898626377
H  H28  1  0.54900000  0.87010000  0.03430000  1.0 0.1389102964
H  H29  1  0.20100000  0.87990000  0.03430000  1.0 0.1206544388
H  H30  1  0.54900000  0.37990000  0.71570000  1.0 0.1206544388
H  H31  1  0.20100000  0.37010000  0.71570000  1.0 0.1099327996
H  H32  1  0.54900000  0.37010000  0.53430000  1.0 0.1206544388
H  H33  1  0.20100000  0.37990000  0.53430000  1.0 0.1000199824
H  H34  1  0.04900000  0.87990000  0.71570000  1.0 0.1099327996
H  H35  1  0.70100000  0.87010000  0.71570000  1.0 0.1099327996
H  H36  1  0.04900000  0.87010000  0.53430000  1.0 0.0898626377
H  H37  1  0.70100000  0.87990000  0.53430000  1.0 0.1000199824
H  H38  1  0.04900000  0.37990000  0.21570000  1.0 0.1206544388
H  H39  1  0.70100000  0.37010000  0.21570000  1.0 0.1099327996
H  H40  1  0.70100000  0.37990000  0.03430000  1.0 0.1206544388
H  H41  1  0.45100000  0.12010000  0.78430000  1.0 0.1099327996
H  H42  1  0.29900000  0.62990000  0.78430000  1.0 0.1099327996
H  H43  1  0.45100000  0.62990000  0.46570000  1.0 0.0794699318
H  H44  1  0.29900000  0.12010000  0.46570000  1.0 0.1099327996
H  H45  1  0.45100000  0.62010000  0.28430000  1.0 0.0898626377
H  H46  1  0.29900000  0.62990000  0.28430000  1.0 0.0898626377
H  H47  1  0.29900000  0.62010000  0.46570000  1.0 0.0794699318
H  H48  1  0.95100000  0.12010000  0.28430000  1.0 0.1099327996
H  H49  1  0.95100000  0.62990000  0.46570000  1.0 0.0898626377
H  H50  1  0.95100000  0.62010000  0.78430000  1.0 0.1099327996
H  H51  1  0.66820000  0.91150000  0.29180000  1.0 0.1206544388
H  H52  1  0.08180000  0.83850000  0.29180000  1.0 0.1099327996
H  H53  1  0.66820000  0.83850000  0.95820000  1.0 0.1389102964
H  H54  1  0.08180000  0.91150000  0.95820000  1.0 0.1389102964
H  H55  1  0.66820000  0.41150000  0.79180000  1.0 0.1305161317
H  H56  1  0.08180000  0.33850000  0.79180000  1.0 0.1206544388
H  H57  1  0.66820000  0.33850000  0.45820000  1.0 0.1389102964
H  H58  1  0.08180000  0.41150000  0.45820000  1.0 0.1099327996
H  H59  1  0.16820000  0.91150000  0.79180000  1.0 0.1099327996
H  H60  1  0.58180000  0.83850000  0.79180000  1.0 0.1099327996
H  H61  1  0.16820000  0.83850000  0.45820000  1.0 0.1099327996
H  H62  1  0.58180000  0.91150000  0.45820000  1.0 0.1099327996
H  H63  1  0.16820000  0.41150000  0.29180000  1.0 0.1305161317
H  H64  1  0.58180000  0.33850000  0.29180000  1.0 0.1206544388
H  H65  1  0.58180000  0.41150000  0.95820000  1.0 0.1389102964
H  H66  1  0.33180000  0.08850000  0.70820000  1.0 0.1099327996
H  H67  1  0.41820000  0.66150000  0.70820000  1.0 0.1099327996
H  H68  1  0.33180000  0.66150000  0.54180000  1.0 0.1000199824
H  H69  1  0.41820000  0.08850000  0.54180000  1.0 0.1099327996
H  H70  1  0.33180000  0.58850000  0.20820000  1.0 0.1099327996
H  H71  1  0.41820000  0.66150000  0.20820000  1.0 0.1099327996
H  H72  1  0.41820000  0.58850000  0.54180000  1.0 0.1099327996
H  H73  1  0.83180000  0.08850000  0.20820000  1.0 0.1099327996
H  H74  1  0.83180000  0.66150000  0.54180000  1.0 0.1099327996
H  H75  1  0.83180000  0.58850000  0.70820000  1.0 0.1099327996
H  H76  1  0.61400000  0.96180000  0.28240000  1.0 0.0898626377
H  H77  1  0.13600000  0.78820000  0.28240000  1.0 0.0502700582
H  H78  1  0.61400000  0.78820000  0.96760000  1.0 0.1099327996
H  H79  1  0.13600000  0.96180000  0.96760000  1.0 0.1099327996
H  H80  1  0.61400000  0.46180000  0.78240000  1.0 0.0898626377
H  H81  1  0.13600000  0.28820000  0.78240000  1.0 0.1099327996
H  H82  1  0.61400000  0.28820000  0.46760000  1.0 0.1000199824
H  H83  1  0.13600000  0.46180000  0.46760000  1.0 0.0502700582
H  H84  1  0.11400000  0.96180000  0.78240000  1.0 0.1000199824
H  H85  1  0.63600000  0.78820000  0.78240000  1.0 0.0898626377
H  H86  1  0.11400000  0.78820000  0.46760000  1.0 0.0502700582
H  H87  1  0.63600000  0.96180000  0.46760000  1.0 0.0898626377
H  H88  1  0.11400000  0.46180000  0.28240000  1.0 0.1000199824
H  H89  1  0.63600000  0.28820000  0.28240000  1.0 0.1099327996
H  H90  1  0.63600000  0.46180000  0.96760000  1.0 0.1099327996
H  H91  1  0.38600000  0.03820000  0.71760000  1.0 0.0898626377
H  H92  1  0.36400000  0.71180000  0.71760000  1.0 0.0898626377
H  H93  1  0.38600000  0.71180000  0.53240000  1.0 0.1000199824
H  H94  1  0.36400000  0.03820000  0.53240000  1.0 0.0898626377
H  H95  1  0.38600000  0.53820000  0.21760000  1.0 0.1000199824
H  H96  1  0.36400000  0.71180000  0.21760000  1.0 0.0502700582
H  H97  1  0.36400000  0.53820000  0.53240000  1.0 0.0502700582
H  H98  1  0.88600000  0.03820000  0.21760000  1.0 0.1000199824
H  H99  1  0.88600000  0.71180000  0.53240000  1.0 0.0502700582
H  H100  1  0.88600000  0.53820000  0.71760000  1.0 0.1000199824
H  H101  1  0.54980000  0.06880000  0.21720000  1.0 0.0898626377
H  H102  1  0.20020000  0.68120000  0.21720000  1.0 0.0794699318
H  H103  1  0.54980000  0.68120000  0.03280000  1.0 0.1000199824
H  H104  1  0.20020000  0.06880000  0.03280000  1.0 0.1000199824
H  H105  1  0.54980000  0.56880000  0.71720000  1.0 0.0898626377
H  H106  1  0.20020000  0.18120000  0.71720000  1.0 0.1000199824
H  H107  1  0.54980000  0.18120000  0.53280000  1.0 0.1000199824
H  H108  1  0.20020000  0.56880000  0.53280000  1.0 0.0794699318
H  H109  1  0.04980000  0.06880000  0.71720000  1.0 0.0898626377
H  H110  1  0.70020000  0.68120000  0.71720000  1.0 0.0898626377
H  H111  1  0.04980000  0.68120000  0.53280000  1.0 0.0794699318
H  H112  1  0.70020000  0.06880000  0.53280000  1.0 0.0898626377
H  H113  1  0.04980000  0.56880000  0.21720000  1.0 0.0898626377
H  H114  1  0.70020000  0.18120000  0.21720000  1.0 0.1000199824
H  H115  1  0.70020000  0.56880000  0.03280000  1.0 0.0898626377
H  H116  1  0.45020000  0.93120000  0.78280000  1.0 0.0898626377
H  H117  1  0.29980000  0.81880000  0.78280000  1.0 0.0898626377
H  H118  1  0.45020000  0.81880000  0.46720000  1.0 0.0794699318
H  H119  1  0.29980000  0.93120000  0.46720000  1.0 0.0898626377
H  H120  1  0.45020000  0.43120000  0.28280000  1.0 0.1000199824
H  H121  1  0.29980000  0.81880000  0.28280000  1.0 0.0898626377
H  H122  1  0.29980000  0.43120000  0.46720000  1.0 0.0898626377
H  H123  1  0.95020000  0.93120000  0.28280000  1.0 0.1000199824
H  H124  1  0.95020000  0.81880000  0.46720000  1.0 0.0794699318
H  H125  1  0.95020000  0.43120000  0.78280000  1.0 0.1000199824
H  H126  1  0.50440000  0.11980000  0.22350000  1.0 0.1305161317
H  H127  1  0.24560000  0.63020000  0.22350000  1.0 0.0898626377
H  H128  1  0.50440000  0.63020000  0.02650000  1.0 0.1305161317
H  H129  1  0.24560000  0.11980000  0.02650000  1.0 0.1389102964
H  H130  1  0.50440000  0.61980000  0.72350000  1.0 0.1000199824
H  H131  1  0.24560000  0.13020000  0.72350000  1.0 0.1099327996
H  H132  1  0.50440000  0.13020000  0.52650000  1.0 0.1000199824
H  H133  1  0.24560000  0.61980000  0.52650000  1.0 0.0898626377
H  H134  1  0.00440000  0.11980000  0.72350000  1.0 0.1305161317
H  H135  1  0.74560000  0.63020000  0.72350000  1.0 0.1000199824
H  H136  1  0.00440000  0.63020000  0.52650000  1.0 0.0898626377
H  H137  1  0.74560000  0.11980000  0.52650000  1.0 0.1305161317
H  H138  1  0.00440000  0.61980000  0.22350000  1.0 0.1206544388
H  H139  1  0.74560000  0.13020000  0.22350000  1.0 0.1000199824
H  H140  1  0.74560000  0.61980000  0.02650000  1.0 0.1305161317
H  H141  1  0.49560000  0.88020000  0.77650000  1.0 0.1099327996
H  H142  1  0.25440000  0.86980000  0.77650000  1.0 0.1099327996
H  H143  1  0.49560000  0.86980000  0.47350000  1.0 0.0898626377
H  H144  1  0.25440000  0.88020000  0.47350000  1.0 0.0898626377
H  H145  1  0.49560000  0.38020000  0.27650000  1.0 0.1206544388
H  H146  1  0.25440000  0.86980000  0.27650000  1.0 0.0898626377
H  H147  1  0.25440000  0.38020000  0.47350000  1.0 0.0898626377
H  H148  1  0.99560000  0.88020000  0.27650000  1.0 0.1000199824
H  H149  1  0.99560000  0.86980000  0.47350000  1.0 0.0898626377
H  H150  1  0.99560000  0.38020000  0.77650000  1.0 0.1206544388
H  H151  1  0.29620000  0.08290000  0.25290000  1.0 0.1206544388
H  H152  1  0.45380000  0.66710000  0.25290000  1.0 0.1099327996
H  H153  1  0.29620000  0.66710000  0.99710000  1.0 0.1305161317
H  H154  1  0.45380000  0.08290000  0.99710000  1.0 0.1206544388
H  H155  1  0.29620000  0.58290000  0.75290000  1.0 0.1099327996
H  H156  1  0.45380000  0.16710000  0.75290000  1.0 0.1099327996
H  H157  1  0.29620000  0.16710000  0.49710000  1.0 0.1099327996
H  H158  1  0.45380000  0.58290000  0.49710000  1.0 0.1099327996
H  H159  1  0.79620000  0.08290000  0.75290000  1.0 0.1206544388
H  H160  1  0.95380000  0.66710000  0.75290000  1.0 0.1099327996
H  H161  1  0.79620000  0.66710000  0.49710000  1.0 0.1099327996
H  H162  1  0.95380000  0.08290000  0.49710000  1.0 0.1206544388
H  H163  1  0.79620000  0.58290000  0.25290000  1.0 0.1206544388
H  H164  1  0.95380000  0.16710000  0.25290000  1.0 0.1099327996
H  H165  1  0.95380000  0.58290000  0.99710000  1.0 0.1305161317
H  H166  1  0.70380000  0.91710000  0.74710000  1.0 0.1099327996
H  H167  1  0.04620000  0.83290000  0.74710000  1.0 0.1099327996
H  H168  1  0.70380000  0.83290000  0.50290000  1.0 0.1000199824
H  H169  1  0.04620000  0.91710000  0.50290000  1.0 0.1000199824
H  H170  1  0.70380000  0.41710000  0.24710000  1.0 0.1099327996
H  H171  1  0.04620000  0.83290000  0.24710000  1.0 0.1099327996
H  H172  1  0.04620000  0.41710000  0.50290000  1.0 0.1099327996
H  H173  1  0.20380000  0.91710000  0.24710000  1.0 0.1099327996
H  H174  1  0.20380000  0.83290000  0.50290000  1.0 0.1000199824
H  H175  1  0.20380000  0.41710000  0.74710000  1.0 0.1099327996
H  H176  1  0.34680000  0.03290000  0.24370000  1.0 0.0794699318
H  H177  1  0.40320000  0.71710000  0.24370000  1.0 0.0595857854
H  H178  1  0.34680000  0.71710000  0.00630000  1.0 0.0794699318
H  H179  1  0.40320000  0.03290000  0.00630000  1.0 0.0794699318
H  H180  1  0.34680000  0.53290000  0.74370000  1.0 0.0794699318
H  H181  1  0.40320000  0.21710000  0.74370000  1.0 0.0794699318
H  H182  1  0.34680000  0.21710000  0.50630000  1.0 0.0794699318
H  H183  1  0.40320000  0.53290000  0.50630000  1.0 0.0595857854
H  H184  1  0.84680000  0.03290000  0.74370000  1.0 0.0702200655
H  H185  1  0.90320000  0.71710000  0.74370000  1.0 0.0794699318
H  H186  1  0.84680000  0.71710000  0.50630000  1.0 0.0595857854
H  H187  1  0.90320000  0.03290000  0.50630000  1.0 0.0702200655
H  H188  1  0.84680000  0.53290000  0.24370000  1.0 0.0794699318
H  H189  1  0.90320000  0.21710000  0.24370000  1.0 0.0794699318
H  H190  1  0.90320000  0.53290000  0.00630000  1.0 0.0794699318
H  H191  1  0.65320000  0.96710000  0.75630000  1.0 0.0794699318
H  H192  1  0.09680000  0.78290000  0.75630000  1.0 0.0794699318
H  H193  1  0.65320000  0.78290000  0.49370000  1.0 0.0898626377
H  H194  1  0.09680000  0.96710000  0.49370000  1.0 0.0702200655
H  H195  1  0.65320000  0.46710000  0.25630000  1.0 0.0794699318
H  H196  1  0.09680000  0.78290000  0.25630000  1.0 0.0502700582
H  H197  1  0.09680000  0.46710000  0.49370000  1.0 0.0502700582
H  H198  1  0.15320000  0.96710000  0.25630000  1.0 0.0702200655
H  H199  1  0.15320000  0.78290000  0.49370000  1.0 0.0411299227
H  H200  1  0.15320000  0.46710000  0.75630000  1.0 0.0794699318
H  H201  1  0.45960000  0.01990000  0.16960000  1.0 0.0898626377
H  H202  1  0.29040000  0.73010000  0.16960000  1.0 0.1099327996
H  H203  1  0.45960000  0.73010000  0.08040000  1.0 0.0898626377
H  H204  1  0.29040000  0.01990000  0.08040000  1.0 0.0794699318
H  H205  1  0.45960000  0.51990000  0.66960000  1.0 0.0794699318
H  H206  1  0.29040000  0.23010000  0.66960000  1.0 0.0898626377
H  H207  1  0.45960000  0.23010000  0.58040000  1.0 0.0898626377
H  H208  1  0.29040000  0.51990000  0.58040000  1.0 0.1206544388
H  H209  1  0.95960000  0.01990000  0.66960000  1.0 0.0794699318
H  H210  1  0.79040000  0.73010000  0.66960000  1.0 0.0794699318
H  H211  1  0.95960000  0.73010000  0.58040000  1.0 0.1000199824
H  H212  1  0.79040000  0.01990000  0.58040000  1.0 0.0794699318
H  H213  1  0.95960000  0.51990000  0.16960000  1.0 0.0898626377
H  H214  1  0.79040000  0.23010000  0.16960000  1.0 0.0898626377
H  H215  1  0.79040000  0.51990000  0.08040000  1.0 0.0794699318
H  H216  1  0.54040000  0.98010000  0.83040000  1.0 0.0794699318
H  H217  1  0.20960000  0.76990000  0.83040000  1.0 0.0794699318
H  H218  1  0.54040000  0.76990000  0.41960000  1.0 0.0794699318
H  H219  1  0.20960000  0.98010000  0.41960000  1.0 0.0794699318
H  H220  1  0.54040000  0.48010000  0.33040000  1.0 0.0794699318
H  H221  1  0.20960000  0.76990000  0.33040000  1.0 0.1099327996
H  H222  1  0.20960000  0.48010000  0.41960000  1.0 0.1099327996
H  H223  1  0.04040000  0.98010000  0.33040000  1.0 0.0794699318
H  H224  1  0.04040000  0.76990000  0.41960000  1.0 0.1000199824
H  H225  1  0.04040000  0.48010000  0.83040000  1.0 0.0794699318
H  H226  1  0.50470000  0.02260000  0.11810000  1.0 0.1099327996
H  H227  1  0.24530000  0.72740000  0.11810000  1.0 0.1000199824
H  H228  1  0.50470000  0.72740000  0.13190000  1.0 0.1206544388
H  H229  1  0.24530000  0.02260000  0.13190000  1.0 0.1000199824
H  H230  1  0.50470000  0.52260000  0.61810000  1.0 0.1099327996
H  H231  1  0.24530000  0.22740000  0.61810000  1.0 0.1206544388
H  H232  1  0.50470000  0.22740000  0.63190000  1.0 0.1206544388
H  H233  1  0.24530000  0.52260000  0.63190000  1.0 0.0898626377
H  H234  1  0.00470000  0.02260000  0.61810000  1.0 0.1000199824
H  H235  1  0.74530000  0.72740000  0.61810000  1.0 0.1000199824
H  H236  1  0.00470000  0.72740000  0.63190000  1.0 0.0898626377
H  H237  1  0.74530000  0.02260000  0.63190000  1.0 0.1000199824
H  H238  1  0.00470000  0.52260000  0.11810000  1.0 0.1099327996
H  H239  1  0.74530000  0.22740000  0.11810000  1.0 0.1206544388
H  H240  1  0.74530000  0.52260000  0.13190000  1.0 0.1099327996
H  H241  1  0.49530000  0.97740000  0.88190000  1.0 0.0898626377
H  H242  1  0.25470000  0.77260000  0.88190000  1.0 0.0898626377
H  H243  1  0.49530000  0.77260000  0.36810000  1.0 0.0898626377
H  H244  1  0.25470000  0.97740000  0.36810000  1.0 0.1000199824
H  H245  1  0.49530000  0.47740000  0.38190000  1.0 0.0898626377
H  H246  1  0.25470000  0.77260000  0.38190000  1.0 0.0898626377
H  H247  1  0.25470000  0.47740000  0.36810000  1.0 0.1000199824
H  H248  1  0.99530000  0.97740000  0.38190000  1.0 0.1000199824
H  H249  1  0.99530000  0.77260000  0.36810000  1.0 0.1000199824
H  H250  1  0.99530000  0.47740000  0.88190000  1.0 0.0898626377
H  H251  1  0.70760000  0.98140000  0.14900000  1.0 0.1206544388
H  H252  1  0.04240000  0.76860000  0.14900000  1.0 0.1099327996
H  H253  1  0.70760000  0.76860000  0.10100000  1.0 0.1305161317
H  H254  1  0.04240000  0.98140000  0.10100000  1.0 0.1206544388
H  H255  1  0.70760000  0.48140000  0.64900000  1.0 0.1206544388
H  H256  1  0.04240000  0.26860000  0.64900000  1.0 0.1305161317
H  H257  1  0.70760000  0.26860000  0.60100000  1.0 0.1389102964
H  H258  1  0.04240000  0.48140000  0.60100000  1.0 0.1000199824
H  H259  1  0.20760000  0.98140000  0.64900000  1.0 0.1000199824
H  H260  1  0.54240000  0.76860000  0.64900000  1.0 0.0898626377
H  H261  1  0.20760000  0.76860000  0.60100000  1.0 0.0898626377
H  H262  1  0.54240000  0.98140000  0.60100000  1.0 0.1000199824
H  H263  1  0.20760000  0.48140000  0.14900000  1.0 0.1206544388
H  H264  1  0.54240000  0.26860000  0.14900000  1.0 0.1305161317
H  H265  1  0.54240000  0.48140000  0.10100000  1.0 0.1206544388
H  H266  1  0.29240000  0.01860000  0.85100000  1.0 0.1099327996
H  H267  1  0.45760000  0.73140000  0.85100000  1.0 0.1000199824
H  H268  1  0.29240000  0.73140000  0.39900000  1.0 0.0702200655
H  H269  1  0.45760000  0.01860000  0.39900000  1.0 0.1000199824
H  H270  1  0.29240000  0.51860000  0.35100000  1.0 0.1000199824
H  H271  1  0.45760000  0.73140000  0.35100000  1.0 0.0898626377
H  H272  1  0.45760000  0.51860000  0.39900000  1.0 0.0898626377
H  H273  1  0.79240000  0.01860000  0.35100000  1.0 0.1000199824
H  H274  1  0.79240000  0.73140000  0.39900000  1.0 0.1099327996
H  H275  1  0.79240000  0.51860000  0.85100000  1.0 0.1000199824
H  H276  1  0.65500000  0.97900000  0.19810000  1.0 0.0794699318
H  H277  1  0.09500000  0.77100000  0.19810000  1.0 0.1000199824
H  H278  1  0.65500000  0.77100000  0.05190000  1.0 0.1000199824
H  H279  1  0.09500000  0.97900000  0.05190000  1.0 0.1000199824
H  H280  1  0.65500000  0.47900000  0.69810000  1.0 0.0794699318
H  H281  1  0.09500000  0.27100000  0.69810000  1.0 0.1099327996
H  H282  1  0.65500000  0.27100000  0.55190000  1.0 0.1099327996
H  H283  1  0.09500000  0.47900000  0.55190000  1.0 0.1000199824
H  H284  1  0.15500000  0.97900000  0.69810000  1.0 0.0702200655
H  H285  1  0.59500000  0.77100000  0.69810000  1.0 0.0702200655
H  H286  1  0.15500000  0.77100000  0.55190000  1.0 0.0794699318
H  H287  1  0.59500000  0.97900000  0.55190000  1.0 0.0794699318
H  H288  1  0.15500000  0.47900000  0.19810000  1.0 0.0794699318
H  H289  1  0.59500000  0.27100000  0.19810000  1.0 0.1099327996
H  H290  1  0.59500000  0.47900000  0.05190000  1.0 0.1000199824
H  H291  1  0.34500000  0.02100000  0.80190000  1.0 0.0702200655
H  H292  1  0.40500000  0.72900000  0.80190000  1.0 0.0702200655
H  H293  1  0.34500000  0.72900000  0.44810000  1.0 0.0794699318
H  H294  1  0.40500000  0.02100000  0.44810000  1.0 0.0702200655
H  H295  1  0.34500000  0.52100000  0.30190000  1.0 0.0794699318
H  H296  1  0.40500000  0.72900000  0.30190000  1.0 0.1000199824
H  H297  1  0.40500000  0.52100000  0.44810000  1.0 0.1000199824
H  H298  1  0.84500000  0.02100000  0.30190000  1.0 0.0794699318
H  H299  1  0.84500000  0.72900000  0.44810000  1.0 0.1000199824
H  H300  1  0.84500000  0.52100000  0.80190000  1.0 0.0702200655
H  H301  1  0.39390000  0.95790000  0.27980000  1.0 0.0898626377
H  H302  1  0.35610000  0.79210000  0.27980000  1.0 0.1305161317
H  H303  1  0.39390000  0.79210000  0.97020000  1.0 0.0794699318
H  H304  1  0.35610000  0.95790000  0.97020000  1.0 0.0794699318
H  H305  1  0.39390000  0.45790000  0.77980000  1.0 0.0898626377
H  H306  1  0.35610000  0.29210000  0.77980000  1.0 0.0898626377
H  H307  1  0.39390000  0.29210000  0.47020000  1.0 0.0898626377
H  H308  1  0.35610000  0.45790000  0.47020000  1.0 0.1305161317
H  H309  1  0.89390000  0.95790000  0.77980000  1.0 0.0898626377
H  H310  1  0.85610000  0.79210000  0.77980000  1.0 0.0898626377
H  H311  1  0.89390000  0.79210000  0.47020000  1.0 0.1206544388
H  H312  1  0.85610000  0.95790000  0.47020000  1.0 0.0794699318
H  H313  1  0.89390000  0.45790000  0.27980000  1.0 0.0794699318
H  H314  1  0.85610000  0.29210000  0.27980000  1.0 0.0898626377
H  H315  1  0.85610000  0.45790000  0.97020000  1.0 0.0794699318
H  H316  1  0.60610000  0.04210000  0.72020000  1.0 0.0794699318
H  H317  1  0.14390000  0.70790000  0.72020000  1.0 0.0794699318
H  H318  1  0.60610000  0.70790000  0.52980000  1.0 0.0794699318
H  H319  1  0.14390000  0.04210000  0.52980000  1.0 0.0794699318
H  H320  1  0.60610000  0.54210000  0.22020000  1.0 0.0794699318
H  H321  1  0.14390000  0.70790000  0.22020000  1.0 0.1206544388
H  H322  1  0.14390000  0.54210000  0.52980000  1.0 0.1206544388
H  H323  1  0.10610000  0.04210000  0.22020000  1.0 0.0794699318
H  H324  1  0.10610000  0.70790000  0.52980000  1.0 0.1206544388
H  H325  1  0.10610000  0.54210000  0.72020000  1.0 0.0794699318
H  H326  1  0.34460000  0.95630000  0.33040000  1.0 0.1000199824
H  H327  1  0.40540000  0.79370000  0.33040000  1.0 0.0898626377
H  H328  1  0.34460000  0.79370000  0.91960000  1.0 0.1000199824
H  H329  1  0.40540000  0.95630000  0.91960000  1.0 0.1000199824
H  H330  1  0.34460000  0.45630000  0.83040000  1.0 0.1206544388
H  H331  1  0.40540000  0.29370000  0.83040000  1.0 0.1206544388
H  H332  1  0.34460000  0.29370000  0.41960000  1.0 0.1206544388
H  H333  1  0.40540000  0.45630000  0.41960000  1.0 0.0898626377
H  H334  1  0.84460000  0.95630000  0.83040000  1.0 0.1099327996
H  H335  1  0.90540000  0.79370000  0.83040000  1.0 0.1206544388
H  H336  1  0.84460000  0.79370000  0.41960000  1.0 0.0898626377
H  H337  1  0.90540000  0.95630000  0.41960000  1.0 0.1000199824
H  H338  1  0.84460000  0.45630000  0.33040000  1.0 0.1206544388
H  H339  1  0.90540000  0.29370000  0.33040000  1.0 0.1206544388
H  H340  1  0.90540000  0.45630000  0.91960000  1.0 0.1000199824
H  H341  1  0.65540000  0.04370000  0.66960000  1.0 0.1000199824
H  H342  1  0.09460000  0.70630000  0.66960000  1.0 0.1206544388
H  H343  1  0.65540000  0.70630000  0.58040000  1.0 0.1000199824
H  H344  1  0.09460000  0.04370000  0.58040000  1.0 0.1000199824
H  H345  1  0.65540000  0.54370000  0.16960000  1.0 0.1000199824
H  H346  1  0.09460000  0.70630000  0.16960000  1.0 0.0898626377
H  H347  1  0.09460000  0.54370000  0.58040000  1.0 0.0898626377
H  H348  1  0.15540000  0.04370000  0.16960000  1.0 0.1099327996
H  H349  1  0.15540000  0.70630000  0.58040000  1.0 0.0898626377
H  H350  1  0.15540000  0.54370000  0.66960000  1.0 0.1206544388
H  H351  1  0.45690000  0.03970000  0.34830000  1.0 0.1099327996
H  H352  1  0.29310000  0.71030000  0.34830000  1.0 0.0794699318
H  H353  1  0.45690000  0.71030000  0.90170000  1.0 0.1206544388
H  H354  1  0.29310000  0.03970000  0.90170000  1.0 0.1206544388
H  H355  1  0.45690000  0.53970000  0.84830000  1.0 0.1305161317
H  H356  1  0.29310000  0.21030000  0.84830000  1.0 0.1389102964
H  H357  1  0.45690000  0.21030000  0.40170000  1.0 0.1389102964
H  H358  1  0.29310000  0.53970000  0.40170000  1.0 0.0898626377
H  H359  1  0.95690000  0.03970000  0.84830000  1.0 0.1389102964
H  H360  1  0.79310000  0.71030000  0.84830000  1.0 0.1305161317
H  H361  1  0.95690000  0.71030000  0.40170000  1.0 0.0794699318
H  H362  1  0.79310000  0.03970000  0.40170000  1.0 0.1099327996
H  H363  1  0.95690000  0.53970000  0.34830000  1.0 0.1099327996
H  H364  1  0.79310000  0.21030000  0.34830000  1.0 0.1389102964
H  H365  1  0.79310000  0.53970000  0.90170000  1.0 0.1206544388
H  H366  1  0.54310000  0.96030000  0.65170000  1.0 0.1099327996
H  H367  1  0.20690000  0.78970000  0.65170000  1.0 0.1099327996
H  H368  1  0.54310000  0.78970000  0.59830000  1.0 0.1099327996
H  H369  1  0.20690000  0.96030000  0.59830000  1.0 0.1099327996
H  H370  1  0.54310000  0.46030000  0.15170000  1.0 0.1206544388
H  H371  1  0.20690000  0.78970000  0.15170000  1.0 0.0898626377
H  H372  1  0.20690000  0.46030000  0.59830000  1.0 0.0898626377
H  H373  1  0.04310000  0.96030000  0.15170000  1.0 0.1206544388
H  H374  1  0.04310000  0.78970000  0.59830000  1.0 0.0794699318
H  H375  1  0.04310000  0.46030000  0.65170000  1.0 0.1206544388
H  H376  1  0.50160000  0.03810000  0.29710000  1.0 0.0794699318
H  H377  1  0.24840000  0.71190000  0.29710000  1.0 0.0411299227
H  H378  1  0.50160000  0.71190000  0.95290000  1.0 0.0898626377
H  H379  1  0.24840000  0.03810000  0.95290000  1.0 0.1000199824
H  H380  1  0.50160000  0.53810000  0.79710000  1.0 0.0794699318
H  H381  1  0.24840000  0.21190000  0.79710000  1.0 0.0898626377
H  H382  1  0.50160000  0.21190000  0.45290000  1.0 0.0794699318
H  H383  1  0.24840000  0.53810000  0.45290000  1.0 0.0411299227
H  H384  1  0.00160000  0.03810000  0.79710000  1.0 0.0794699318
H  H385  1  0.74840000  0.71190000  0.79710000  1.0 0.0794699318
H  H386  1  0.00160000  0.71190000  0.45290000  1.0 0.0411299227
H  H387  1  0.74840000  0.03810000  0.45290000  1.0 0.0794699318
H  H388  1  0.00160000  0.53810000  0.29710000  1.0 0.0794699318
H  H389  1  0.74840000  0.21190000  0.29710000  1.0 0.0794699318
H  H390  1  0.74840000  0.53810000  0.95290000  1.0 0.0898626377
H  H391  1  0.49840000  0.96190000  0.70290000  1.0 0.0794699318
H  H392  1  0.25160000  0.78810000  0.70290000  1.0 0.0794699318
H  H393  1  0.49840000  0.78810000  0.54710000  1.0 0.0794699318
H  H394  1  0.25160000  0.96190000  0.54710000  1.0 0.0794699318
H  H395  1  0.49840000  0.46190000  0.20290000  1.0 0.0794699318
H  H396  1  0.25160000  0.78810000  0.20290000  1.0 0.0502700582
H  H397  1  0.25160000  0.46190000  0.54710000  1.0 0.0502700582
H  H398  1  0.99840000  0.96190000  0.20290000  1.0 0.0794699318
H  H399  1  0.99840000  0.78810000  0.54710000  1.0 0.0411299227
H  H400  1  0.99840000  0.46190000  0.70290000  1.0 0.0794699318
C  C1  1  0.53780000  0.92668000  0.22478000  1.0 -0.0023602713
C  C2  1  0.21220000  0.82332000  0.22478000  1.0 -0.2004350434
C  C3  1  0.53780000  0.82332000  0.02522000  1.0 0.0299280993
C  C4  1  0.21220000  0.92668000  0.02522000  1.0 0.0190920234
C  C5  1  0.53780000  0.42668000  0.72478000  1.0 0.0411299227
C  C6  1  0.21220000  0.32332000  0.72478000  1.0 0.0299280993
C  C7  1  0.53780000  0.32332000  0.52522000  1.0 0.002536924
C  C8  1  0.21220000  0.42668000  0.52522000  1.0 -0.2093813137
C  C9  1  0.03780000  0.92668000  0.72478000  1.0 0.0502700582
C  C10  1  0.71220000  0.82332000  0.72478000  1.0 0.0595857854
C  C11  1  0.03780000  0.82332000  0.52522000  1.0 -0.2213126815
C  C12  1  0.71220000  0.92668000  0.52522000  1.0 0.0190920234
C  C13  1  0.03780000  0.42668000  0.22478000  1.0 0.0411299227
C  C14  1  0.71220000  0.32332000  0.22478000  1.0 0.0299280993
C  C15  1  0.71220000  0.42668000  0.02522000  1.0 0.0103431518
C  C16  1  0.46220000  0.07332000  0.77522000  1.0 0.0502700582
C  C17  1  0.28780000  0.67668000  0.77522000  1.0 0.0502700582
C  C18  1  0.46220000  0.67668000  0.47478000  1.0 0.0411299227
C  C19  1  0.28780000  0.07332000  0.47478000  1.0 0.0502700582
C  C20  1  0.46220000  0.57332000  0.27522000  1.0 0.0411299227
C  C21  1  0.28780000  0.67668000  0.27522000  1.0 -0.2093813137
C  C22  1  0.28780000  0.57332000  0.47478000  1.0 -0.2093813137
C  C23  1  0.96220000  0.07332000  0.27522000  1.0 0.0502700582
C  C24  1  0.96220000  0.67668000  0.47478000  1.0 -0.2287853818
C  C25  1  0.96220000  0.57332000  0.77522000  1.0 0.0502700582
C  C26  1  0.56440000  0.89640000  0.22963000  1.0 -0.2287853818
C  C27  1  0.18560000  0.85360000  0.22963000  1.0 -0.1197325995
C  C28  1  0.56440000  0.85360000  0.02037000  1.0 -0.1813451492
C  C29  1  0.18560000  0.89640000  0.02037000  1.0 -0.1898949168
C  C30  1  0.56440000  0.39640000  0.72963000  1.0 -0.1898949168
C  C31  1  0.18560000  0.35360000  0.72963000  1.0 -0.2004350434
C  C32  1  0.56440000  0.35360000  0.52037000  1.0 -0.2093813137
C  C33  1  0.18560000  0.39640000  0.52037000  1.0 -0.1197325995
C  C34  1  0.06440000  0.89640000  0.72963000  1.0 -0.2004350434
C  C35  1  0.68560000  0.85360000  0.72963000  1.0 -0.2004350434
C  C36  1  0.06440000  0.85360000  0.52037000  1.0 -0.1197325995
C  C37  1  0.68560000  0.89640000  0.52037000  1.0 -0.2497221377
C  C38  1  0.06440000  0.39640000  0.22963000  1.0 -0.2004350434
C  C39  1  0.68560000  0.35360000  0.22963000  1.0 -0.2004350434
C  C40  1  0.68560000  0.39640000  0.02037000  1.0 -0.1898949168
C  C41  1  0.43560000  0.10360000  0.77037000  1.0 -0.2004350434
C  C42  1  0.31440000  0.64640000  0.77037000  1.0 -0.2004350434
C  C43  1  0.43560000  0.64640000  0.47963000  1.0 -0.2287853818
C  C44  1  0.31440000  0.10360000  0.47963000  1.0 -0.2004350434
C  C45  1  0.43560000  0.60360000  0.27037000  1.0 -0.2404614935
C  C46  1  0.31440000  0.64640000  0.27037000  1.0 -0.1401840484
C  C47  1  0.31440000  0.60360000  0.47963000  1.0 -0.1401840484
C  C48  1  0.93560000  0.10360000  0.27037000  1.0 -0.2004350434
C  C49  1  0.93560000  0.64640000  0.47963000  1.0 -0.1296015412
C  C50  1  0.93560000  0.60360000  0.77037000  1.0 -0.2004350434
C  C51  1  0.61380000  0.88961000  0.25497000  1.0 0.0502700582
C  C52  1  0.13620000  0.86039000  0.25497000  1.0 0.0411299227
C  C53  1  0.61380000  0.86039000  0.99503000  1.0 0.0103431518
C  C54  1  0.13620000  0.88961000  0.99503000  1.0 0.0103431518
C  C55  1  0.61380000  0.38961000  0.75497000  1.0 0.0502700582
C  C56  1  0.13620000  0.36039000  0.75497000  1.0 0.0794699318
C  C57  1  0.61380000  0.36039000  0.49503000  1.0 0.0898626377
C  C58  1  0.13620000  0.38961000  0.49503000  1.0 0.0702200655
C  C59  1  0.11380000  0.88961000  0.75497000  1.0 0.0794699318
C  C60  1  0.63620000  0.86039000  0.75497000  1.0 0.0794699318
C  C61  1  0.11380000  0.86039000  0.49503000  1.0 0.0502700582
C  C62  1  0.63620000  0.88961000  0.49503000  1.0 0.0794699318
C  C63  1  0.11380000  0.38961000  0.25497000  1.0 0.0502700582
C  C64  1  0.63620000  0.36039000  0.25497000  1.0 0.0794699318
C  C65  1  0.63620000  0.38961000  0.99503000  1.0 -0.0104009141
C  C66  1  0.38620000  0.11039000  0.74503000  1.0 0.0898626377
C  C67  1  0.36380000  0.63961000  0.74503000  1.0 0.0794699318
C  C68  1  0.38620000  0.63961000  0.50497000  1.0 0.0190920234
C  C69  1  0.36380000  0.11039000  0.50497000  1.0 0.0898626377
C  C70  1  0.38620000  0.61039000  0.24503000  1.0 0.0190920234
C  C71  1  0.36380000  0.63961000  0.24503000  1.0 0.0411299227
C  C72  1  0.36380000  0.61039000  0.50497000  1.0 0.0411299227
C  C73  1  0.88620000  0.11039000  0.24503000  1.0 0.0898626377
C  C74  1  0.88620000  0.63961000  0.50497000  1.0 0.0702200655
C  C75  1  0.88620000  0.61039000  0.74503000  1.0 0.0794699318
C  C76  1  0.63340000  0.91466000  0.27451000  1.0 -0.1700846916
C  C77  1  0.11660000  0.83534000  0.27451000  1.0 -0.0509546074
C  C78  1  0.63340000  0.83534000  0.97549000  1.0 -0.2004350434
C  C79  1  0.11660000  0.91466000  0.97549000  1.0 -0.2004350434
C  C80  1  0.63340000  0.41466000  0.77451000  1.0 -0.2004350434
C  C81  1  0.11660000  0.33534000  0.77451000  1.0 -0.2004350434
C  C82  1  0.63340000  0.33534000  0.47549000  1.0 -0.1898949168
C  C83  1  0.11660000  0.41466000  0.47549000  1.0 -0.0509546074
C  C84  1  0.13340000  0.91466000  0.77451000  1.0 -0.1813451492
C  C85  1  0.61660000  0.83534000  0.77451000  1.0 -0.1813451492
C  C86  1  0.13340000  0.83534000  0.47549000  1.0 -0.0398046161
C  C87  1  0.61660000  0.91466000  0.47549000  1.0 -0.1813451492
C  C88  1  0.13340000  0.41466000  0.27451000  1.0 -0.2004350434
C  C89  1  0.61660000  0.33534000  0.27451000  1.0 -0.2004350434
C  C90  1  0.61660000  0.41466000  0.97549000  1.0 -0.1898949168
C  C91  1  0.36660000  0.08534000  0.72549000  1.0 -0.1898949168
C  C92  1  0.38340000  0.66466000  0.72549000  1.0 -0.1813451492
C  C93  1  0.36660000  0.66466000  0.52451000  1.0 -0.2404614935
C  C94  1  0.38340000  0.08534000  0.52451000  1.0 -0.1813451492
C  C95  1  0.36660000  0.58534000  0.22549000  1.0 -0.2093813137
C  C96  1  0.38340000  0.66466000  0.22549000  1.0 -0.0509546074
C  C97  1  0.38340000  0.58534000  0.52451000  1.0 -0.0509546074
C  C98  1  0.86660000  0.08534000  0.22549000  1.0 -0.1813451492
C  C99  1  0.86660000  0.66466000  0.52451000  1.0 -0.0509546074
C  C100  1  0.86660000  0.58534000  0.72549000  1.0 -0.1813451492
C  C101  1  0.60120000  0.94483000  0.26855000  1.0 0.0898626377
C  C102  1  0.14880000  0.80517000  0.26855000  1.0 0.0502700582
C  C103  1  0.60120000  0.80517000  0.98145000  1.0 0.0898626377
C  C104  1  0.14880000  0.94483000  0.98145000  1.0 0.0898626377
C  C105  1  0.60120000  0.44483000  0.76855000  1.0 0.0794699318
C  C106  1  0.14880000  0.30517000  0.76855000  1.0 0.0898626377
C  C107  1  0.60120000  0.30517000  0.48145000  1.0 0.0898626377
C  C108  1  0.14880000  0.44483000  0.48145000  1.0 0.0411299227
C  C109  1  0.10120000  0.94483000  0.76855000  1.0 0.0898626377
C  C110  1  0.64880000  0.80517000  0.76855000  1.0 0.0898626377
C  C111  1  0.10120000  0.80517000  0.48145000  1.0 0.0595857854
C  C112  1  0.64880000  0.94483000  0.48145000  1.0 0.0898626377
C  C113  1  0.10120000  0.44483000  0.26855000  1.0 0.0794699318
C  C114  1  0.64880000  0.30517000  0.26855000  1.0 0.0898626377
C  C115  1  0.64880000  0.44483000  0.98145000  1.0 0.0898626377
C  C116  1  0.39880000  0.05517000  0.73145000  1.0 0.0898626377
C  C117  1  0.35120000  0.69483000  0.73145000  1.0 0.0898626377
C  C118  1  0.39880000  0.69483000  0.51855000  1.0 0.0595857854
C  C119  1  0.35120000  0.05517000  0.51855000  1.0 0.0898626377
C  C120  1  0.39880000  0.55517000  0.23145000  1.0 0.0794699318
C  C121  1  0.35120000  0.69483000  0.23145000  1.0 0.0411299227
C  C122  1  0.35120000  0.55517000  0.51855000  1.0 0.0411299227
C  C123  1  0.89880000  0.05517000  0.23145000  1.0 0.0898626377
C  C124  1  0.89880000  0.69483000  0.51855000  1.0 0.0502700582
C  C125  1  0.89880000  0.55517000  0.73145000  1.0 0.0898626377
C  C126  1  0.49790000  0.07190000  0.22488000  1.0 0.0595857854
C  C127  1  0.25210000  0.67810000  0.22488000  1.0 -0.1515849231
C  C128  1  0.49790000  0.67810000  0.02512000  1.0 0.0595857854
C  C129  1  0.25210000  0.07190000  0.02512000  1.0 0.0595857854
C  C130  1  0.49790000  0.57190000  0.72488000  1.0 0.0702200655
C  C131  1  0.25210000  0.17810000  0.72488000  1.0 0.0595857854
C  C132  1  0.49790000  0.17810000  0.52512000  1.0 0.0702200655
C  C133  1  0.25210000  0.57190000  0.52512000  1.0 -0.1515849231
C  C134  1  0.99790000  0.07190000  0.72488000  1.0 0.0595857854
C  C135  1  0.75210000  0.67810000  0.72488000  1.0 0.0702200655
C  C136  1  0.99790000  0.67810000  0.52512000  1.0 -0.1700846916
C  C137  1  0.75210000  0.07190000  0.52512000  1.0 0.0595857854
C  C138  1  0.99790000  0.57190000  0.22488000  1.0 0.0595857854
C  C139  1  0.75210000  0.17810000  0.22488000  1.0 0.0595857854
C  C140  1  0.75210000  0.57190000  0.02512000  1.0 0.0595857854
C  C141  1  0.50210000  0.92810000  0.77512000  1.0 0.0595857854
C  C142  1  0.24790000  0.82190000  0.77512000  1.0 0.0595857854
C  C143  1  0.50210000  0.82190000  0.47488000  1.0 0.0702200655
C  C144  1  0.24790000  0.92810000  0.47488000  1.0 0.0595857854
C  C145  1  0.50210000  0.42810000  0.27512000  1.0 0.0794699318
C  C146  1  0.24790000  0.82190000  0.27512000  1.0 -0.1296015412
C  C147  1  0.24790000  0.42810000  0.47488000  1.0 -0.1296015412
C  C148  1  0.00210000  0.92810000  0.27512000  1.0 0.0595857854
C  C149  1  0.00210000  0.82190000  0.47488000  1.0 -0.1515849231
C  C150  1  0.00210000  0.42810000  0.77512000  1.0 0.0702200655
C  C151  1  0.47130000  0.10230000  0.22841000  1.0 -0.2004350434
C  C152  1  0.27870000  0.64770000  0.22841000  1.0 -0.1197325995
C  C153  1  0.47130000  0.64770000  0.02159000  1.0 -0.2093813137
C  C154  1  0.27870000  0.10230000  0.02159000  1.0 -0.2213126815
C  C155  1  0.47130000  0.60230000  0.72841000  1.0 -0.1813451492
C  C156  1  0.27870000  0.14770000  0.72841000  1.0 -0.1813451492
C  C157  1  0.47130000  0.14770000  0.52159000  1.0 -0.1813451492
C  C158  1  0.27870000  0.60230000  0.52159000  1.0 -0.1197325995
C  C159  1  0.97130000  0.10230000  0.72841000  1.0 -0.2004350434
C  C160  1  0.77870000  0.64770000  0.72841000  1.0 -0.1813451492
C  C161  1  0.97130000  0.64770000  0.52159000  1.0 -0.1197325995
C  C162  1  0.77870000  0.10230000  0.52159000  1.0 -0.2004350434
C  C163  1  0.97130000  0.60230000  0.22841000  1.0 -0.2004350434
C  C164  1  0.77870000  0.14770000  0.22841000  1.0 -0.1813451492
C  C165  1  0.77870000  0.60230000  0.02159000  1.0 -0.2093813137
C  C166  1  0.52870000  0.89770000  0.77159000  1.0 -0.1813451492
C  C167  1  0.22130000  0.85230000  0.77159000  1.0 -0.1813451492
C  C168  1  0.52870000  0.85230000  0.47841000  1.0 -0.1813451492
C  C169  1  0.22130000  0.89770000  0.47841000  1.0 -0.2404614935
C  C170  1  0.52870000  0.39770000  0.27159000  1.0 -0.1898949168
C  C171  1  0.22130000  0.85230000  0.27159000  1.0 -0.1197325995
C  C172  1  0.22130000  0.39770000  0.47841000  1.0 -0.1296015412
C  C173  1  0.02870000  0.89770000  0.27159000  1.0 -0.2213126815
C  C174  1  0.02870000  0.85230000  0.47841000  1.0 -0.1197325995
C  C175  1  0.02870000  0.39770000  0.77159000  1.0 -0.1898949168
C  C176  1  0.39440000  0.10740000  0.23946000  1.0 0.0595857854
C  C177  1  0.35560000  0.64260000  0.23946000  1.0 0.0502700582
C  C178  1  0.39440000  0.64260000  0.01054000  1.0 0.0794699318
C  C179  1  0.35560000  0.10740000  0.01054000  1.0 0.1206544388
C  C180  1  0.39440000  0.60740000  0.73946000  1.0 0.1000199824
C  C181  1  0.35560000  0.14260000  0.73946000  1.0 0.0898626377
C  C182  1  0.39440000  0.14260000  0.51054000  1.0 0.0898626377
C  C183  1  0.35560000  0.60740000  0.51054000  1.0 0.0595857854
C  C184  1  0.89440000  0.10740000  0.73946000  1.0 0.0702200655
C  C185  1  0.85560000  0.64260000  0.73946000  1.0 0.1000199824
C  C186  1  0.89440000  0.64260000  0.51054000  1.0 0.0595857854
C  C187  1  0.85560000  0.10740000  0.51054000  1.0 0.0595857854
C  C188  1  0.89440000  0.60740000  0.23946000  1.0 0.0299280993
C  C189  1  0.85560000  0.14260000  0.23946000  1.0 0.0898626377
C  C190  1  0.85560000  0.60740000  0.01054000  1.0 0.0794699318
C  C191  1  0.60560000  0.89260000  0.76054000  1.0 0.1000199824
C  C192  1  0.14440000  0.85740000  0.76054000  1.0 0.1000199824
C  C193  1  0.60560000  0.85740000  0.48946000  1.0 0.1000199824
C  C194  1  0.14440000  0.89260000  0.48946000  1.0 0.0898626377
C  C195  1  0.60560000  0.39260000  0.26054000  1.0 0.0898626377
C  C196  1  0.14440000  0.85740000  0.26054000  1.0 0.0411299227
C  C197  1  0.14440000  0.39260000  0.48946000  1.0 0.0502700582
C  C198  1  0.10560000  0.89260000  0.26054000  1.0 0.0794699318
C  C199  1  0.10560000  0.85740000  0.48946000  1.0 0.0595857854
C  C200  1  0.10560000  0.39260000  0.76054000  1.0 0.0898626377
C  C201  1  0.34870000  0.08063000  0.24549000  1.0 -0.2093813137
C  C202  1  0.40130000  0.66937000  0.24549000  1.0 -0.0807143591
C  C203  1  0.34870000  0.66937000  0.00451000  1.0 -0.2004350434
C  C204  1  0.40130000  0.08063000  0.00451000  1.0 -0.2093813137
C  C205  1  0.34870000  0.58063000  0.74549000  1.0 -0.2213126815
C  C206  1  0.40130000  0.16937000  0.74549000  1.0 -0.2093813137
C  C207  1  0.34870000  0.16937000  0.50451000  1.0 -0.2093813137
C  C208  1  0.40130000  0.58063000  0.50451000  1.0 -0.0807143591
C  C209  1  0.84870000  0.08063000  0.74549000  1.0 -0.2093813137
C  C210  1  0.90130000  0.66937000  0.74549000  1.0 -0.2213126815
C  C211  1  0.84870000  0.66937000  0.50451000  1.0 -0.0899255489
C  C212  1  0.90130000  0.08063000  0.50451000  1.0 -0.2093813137
C  C213  1  0.84870000  0.58063000  0.24549000  1.0 -0.1898949168
C  C214  1  0.90130000  0.16937000  0.24549000  1.0 -0.2093813137
C  C215  1  0.90130000  0.58063000  0.00451000  1.0 -0.2004350434
C  C216  1  0.65130000  0.91937000  0.75451000  1.0 -0.2213126815
C  C217  1  0.09870000  0.83063000  0.75451000  1.0 -0.2213126815
C  C218  1  0.65130000  0.83063000  0.49549000  1.0 -0.3113372659
C  C219  1  0.09870000  0.91937000  0.49549000  1.0 -0.2404614935
C  C220  1  0.65130000  0.41937000  0.25451000  1.0 -0.2287853818
C  C221  1  0.09870000  0.83063000  0.25451000  1.0 -0.0899255489
C  C222  1  0.09870000  0.41937000  0.49549000  1.0 -0.1019589129
C  C223  1  0.15130000  0.91937000  0.25451000  1.0 -0.2404614935
C  C224  1  0.15130000  0.83063000  0.49549000  1.0 -0.1019589129
C  C225  1  0.15130000  0.41937000  0.75451000  1.0 -0.2213126815
C  C226  1  0.38000000  0.05079000  0.24059000  1.0 0.0595857854
C  C227  1  0.37000000  0.69921000  0.24059000  1.0 0.0190920234
C  C228  1  0.38000000  0.69921000  0.00941000  1.0 0.0595857854
C  C229  1  0.37000000  0.05079000  0.00941000  1.0 0.0299280993
C  C230  1  0.38000000  0.55079000  0.74059000  1.0 0.0702200655
C  C231  1  0.37000000  0.19921000  0.74059000  1.0 0.0595857854
C  C232  1  0.38000000  0.19921000  0.50941000  1.0 0.0595857854
C  C233  1  0.37000000  0.55079000  0.50941000  1.0 0.0190920234
C  C234  1  0.88000000  0.05079000  0.74059000  1.0 0.0595857854
C  C235  1  0.87000000  0.69921000  0.74059000  1.0 0.0702200655
C  C236  1  0.88000000  0.69921000  0.50941000  1.0 0.0299280993
C  C237  1  0.87000000  0.05079000  0.50941000  1.0 0.0595857854
C  C238  1  0.88000000  0.55079000  0.24059000  1.0 0.0595857854
C  C239  1  0.87000000  0.19921000  0.24059000  1.0 0.0595857854
C  C240  1  0.87000000  0.55079000  0.00941000  1.0 0.0502700582
C  C241  1  0.62000000  0.94921000  0.75941000  1.0 0.0702200655
C  C242  1  0.13000000  0.80079000  0.75941000  1.0 0.0702200655
C  C243  1  0.62000000  0.80079000  0.49059000  1.0 0.0190920234
C  C244  1  0.13000000  0.94921000  0.49059000  1.0 0.0702200655
C  C245  1  0.62000000  0.44921000  0.25941000  1.0 0.0702200655
C  C246  1  0.13000000  0.80079000  0.25941000  1.0 0.0190920234
C  C247  1  0.13000000  0.44921000  0.49059000  1.0 0.0190920234
C  C248  1  0.12000000  0.94921000  0.25941000  1.0 0.0595857854
C  C249  1  0.12000000  0.80079000  0.49059000  1.0 0.0299280993
C  C250  1  0.12000000  0.44921000  0.75941000  1.0 0.0595857854
C  C251  1  0.51090000  0.01220000  0.16511000  1.0 0.0502700582
C  C252  1  0.23910000  0.73780000  0.16511000  1.0 -0.0899255489
C  C253  1  0.51090000  0.73780000  0.08489000  1.0 0.002536924
C  C254  1  0.23910000  0.01220000  0.08489000  1.0 0.0595857854
C  C255  1  0.51090000  0.51220000  0.66511000  1.0 0.0299280993
C  C256  1  0.23910000  0.23780000  0.66511000  1.0 0.0411299227
C  C257  1  0.51090000  0.23780000  0.58489000  1.0 0.0411299227
C  C258  1  0.23910000  0.51220000  0.58489000  1.0 -0.0807143591
C  C259  1  0.01090000  0.01220000  0.66511000  1.0 0.0702200655
C  C260  1  0.73910000  0.73780000  0.66511000  1.0 0.0502700582
C  C261  1  0.01090000  0.73780000  0.58489000  1.0 -0.1019589129
C  C262  1  0.73910000  0.01220000  0.58489000  1.0 0.0702200655
C  C263  1  0.01090000  0.51220000  0.16511000  1.0 0.0502700582
C  C264  1  0.73910000  0.23780000  0.16511000  1.0 0.0411299227
C  C265  1  0.73910000  0.51220000  0.08489000  1.0 0.0595857854
C  C266  1  0.48910000  0.98780000  0.83489000  1.0 0.0702200655
C  C267  1  0.26090000  0.76220000  0.83489000  1.0 0.0702200655
C  C268  1  0.48910000  0.76220000  0.41511000  1.0 0.0595857854
C  C269  1  0.26090000  0.98780000  0.41511000  1.0 0.0702200655
C  C270  1  0.48910000  0.48780000  0.33489000  1.0 0.0411299227
C  C271  1  0.26090000  0.76220000  0.33489000  1.0 -0.1296015412
C  C272  1  0.26090000  0.48780000  0.41511000  1.0 -0.1197325995
C  C273  1  0.98910000  0.98780000  0.33489000  1.0 0.0595857854
C  C274  1  0.98910000  0.76220000  0.41511000  1.0 -0.1296015412
C  C275  1  0.98910000  0.48780000  0.83489000  1.0 0.0702200655
C  C276  1  0.53670000  0.01355000  0.13407000  1.0 -0.2093813137
C  C277  1  0.21330000  0.73645000  0.13407000  1.0 -0.1401840484
C  C278  1  0.53670000  0.73645000  0.11593000  1.0 -0.2213126815
C  C279  1  0.21330000  0.01355000  0.11593000  1.0 -0.2213126815
C  C280  1  0.53670000  0.51355000  0.63407000  1.0 -0.2213126815
C  C281  1  0.21330000  0.23645000  0.63407000  1.0 -0.2093813137
C  C282  1  0.53670000  0.23645000  0.61593000  1.0 -0.2093813137
C  C283  1  0.21330000  0.51355000  0.61593000  1.0 -0.1700846916
C  C284  1  0.03670000  0.01355000  0.63407000  1.0 -0.2213126815
C  C285  1  0.71330000  0.73645000  0.63407000  1.0 -0.2213126815
C  C286  1  0.03670000  0.73645000  0.61593000  1.0 -0.1700846916
C  C287  1  0.71330000  0.01355000  0.61593000  1.0 -0.2287853818
C  C288  1  0.03670000  0.51355000  0.13407000  1.0 -0.2093813137
C  C289  1  0.71330000  0.23645000  0.13407000  1.0 -0.2004350434
C  C290  1  0.71330000  0.51355000  0.11593000  1.0 -0.2213126815
C  C291  1  0.46330000  0.98645000  0.86593000  1.0 -0.2213126815
C  C292  1  0.28670000  0.76355000  0.86593000  1.0 -0.2213126815
C  C293  1  0.46330000  0.76355000  0.38407000  1.0 -0.1700846916
C  C294  1  0.28670000  0.98645000  0.38407000  1.0 -0.2287853818
C  C295  1  0.46330000  0.48645000  0.36593000  1.0 -0.1898949168
C  C296  1  0.28670000  0.76355000  0.36593000  1.0 -0.1813451492
C  C297  1  0.28670000  0.48645000  0.38407000  1.0 -0.1589892393
C  C298  1  0.96330000  0.98645000  0.36593000  1.0 -0.2287853818
C  C299  1  0.96330000  0.76355000  0.38407000  1.0 -0.1898949168
C  C300  1  0.96330000  0.48645000  0.86593000  1.0 -0.2213126815
C  C301  1  0.61220000  0.00100000  0.12682000  1.0 0.1485686018
C  C302  1  0.13780000  0.74900000  0.12682000  1.0 -0.0807143591
C  C303  1  0.61220000  0.74900000  0.12318000  1.0 0.0898626377
C  C304  1  0.13780000  0.00100000  0.12318000  1.0 0.0794699318
C  C305  1  0.61220000  0.50100000  0.62682000  1.0 0.0794699318
C  C306  1  0.13780000  0.24900000  0.62682000  1.0 0.0502700582
C  C307  1  0.61220000  0.24900000  0.62318000  1.0 0.0502700582
C  C308  1  0.13780000  0.50100000  0.62318000  1.0 -0.0509546074
C  C309  1  0.11220000  0.00100000  0.62682000  1.0 0.1000199824
C  C310  1  0.63780000  0.74900000  0.62682000  1.0 0.0702200655
C  C311  1  0.11220000  0.74900000  0.62318000  1.0 -0.0398046161
C  C312  1  0.63780000  0.00100000  0.62318000  1.0 0.1000199824
C  C313  1  0.11220000  0.50100000  0.12682000  1.0 0.1389102964
C  C314  1  0.63780000  0.24900000  0.12682000  1.0 0.0299280993
C  C315  1  0.63780000  0.50100000  0.12318000  1.0 0.0794699318
C  C316  1  0.38780000  0.99900000  0.87318000  1.0 0.1000199824
C  C317  1  0.36220000  0.75100000  0.87318000  1.0 0.1000199824
C  C318  1  0.38780000  0.75100000  0.37682000  1.0 0.0595857854
C  C319  1  0.36220000  0.99900000  0.37682000  1.0 0.1000199824
C  C320  1  0.38780000  0.49900000  0.37318000  1.0 0.0595857854
C  C321  1  0.36220000  0.75100000  0.37318000  1.0 0.0190920234
C  C322  1  0.36220000  0.49900000  0.37682000  1.0 0.0299280993
C  C323  1  0.88780000  0.99900000  0.37318000  1.0 0.1000199824
C  C324  1  0.88780000  0.75100000  0.37682000  1.0 -0.1197325995
C  C325  1  0.88780000  0.49900000  0.87318000  1.0 0.1000199824
C  C326  1  0.65580000  0.98909000  0.15239000  1.0 -0.1898949168
C  C327  1  0.09420000  0.76091000  0.15239000  1.0 -0.0807143591
C  C328  1  0.65580000  0.76091000  0.09761000  1.0 -0.2093813137
C  C329  1  0.09420000  0.98909000  0.09761000  1.0 -0.1813451492
C  C330  1  0.65580000  0.48909000  0.65239000  1.0 -0.2004350434
C  C331  1  0.09420000  0.26091000  0.65239000  1.0 -0.1898949168
C  C332  1  0.65580000  0.26091000  0.59761000  1.0 -0.1898949168
C  C333  1  0.09420000  0.48909000  0.59761000  1.0 -0.0807143591
C  C334  1  0.15580000  0.98909000  0.65239000  1.0 -0.1813451492
C  C335  1  0.59420000  0.76091000  0.65239000  1.0 -0.1813451492
C  C336  1  0.15580000  0.76091000  0.59761000  1.0 -0.068240463
C  C337  1  0.59420000  0.98909000  0.59761000  1.0 -0.1813451492
C  C338  1  0.15580000  0.48909000  0.15239000  1.0 -0.1898949168
C  C339  1  0.59420000  0.26091000  0.15239000  1.0 -0.1898949168
C  C340  1  0.59420000  0.48909000  0.09761000  1.0 -0.1813451492
C  C341  1  0.34420000  0.01091000  0.84761000  1.0 -0.1813451492
C  C342  1  0.40580000  0.73909000  0.84761000  1.0 -0.1813451492
C  C343  1  0.34420000  0.73909000  0.40239000  1.0 -0.2093813137
C  C344  1  0.40580000  0.01091000  0.40239000  1.0 -0.1813451492
C  C345  1  0.34420000  0.51091000  0.34761000  1.0 -0.1589892393
C  C346  1  0.40580000  0.73909000  0.34761000  1.0 -0.1019589129
C  C347  1  0.40580000  0.51091000  0.40239000  1.0 -0.1019589129
C  C348  1  0.84420000  0.01091000  0.34761000  1.0 -0.1813451492
C  C349  1  0.84420000  0.73909000  0.40239000  1.0 -0.0807143591
C  C350  1  0.84420000  0.51091000  0.84761000  1.0 -0.1813451492
C  C351  1  0.62500000  0.98846000  0.18169000  1.0 0.0702200655
C  C352  1  0.12500000  0.76154000  0.18169000  1.0 -0.0509546074
C  C353  1  0.62500000  0.76154000  0.06831000  1.0 0.0595857854
C  C354  1  0.12500000  0.98846000  0.06831000  1.0 0.0702200655
C  C355  1  0.62500000  0.48846000  0.68169000  1.0 0.0411299227
C  C356  1  0.12500000  0.26154000  0.68169000  1.0 0.0702200655
C  C357  1  0.62500000  0.26154000  0.56831000  1.0 0.0702200655
C  C358  1  0.12500000  0.48846000  0.56831000  1.0 -0.0509546074
C  C359  1  0.12500000  0.98846000  0.68169000  1.0 0.0702200655
C  C360  1  0.62500000  0.76154000  0.68169000  1.0 0.0502700582
C  C361  1  0.12500000  0.76154000  0.56831000  1.0 -0.0509546074
C  C362  1  0.62500000  0.98846000  0.56831000  1.0 0.0702200655
C  C363  1  0.12500000  0.48846000  0.18169000  1.0 0.0702200655
C  C364  1  0.62500000  0.26154000  0.18169000  1.0 0.0702200655
C  C365  1  0.62500000  0.48846000  0.06831000  1.0 0.0702200655
C  C366  1  0.37500000  0.01154000  0.81831000  1.0 0.0702200655
C  C367  1  0.37500000  0.73846000  0.81831000  1.0 0.0702200655
C  C368  1  0.37500000  0.73846000  0.43169000  1.0 -0.1401840484
C  C369  1  0.37500000  0.01154000  0.43169000  1.0 0.0702200655
C  C370  1  0.37500000  0.51154000  0.31831000  1.0 -0.0023602713
C  C371  1  0.37500000  0.73846000  0.31831000  1.0 -0.0398046161
C  C372  1  0.37500000  0.51154000  0.43169000  1.0 -0.0398046161
C  C373  1  0.87500000  0.01154000  0.31831000  1.0 0.0702200655
C  C374  1  0.87500000  0.73846000  0.43169000  1.0 -0.0398046161
C  C375  1  0.87500000  0.51154000  0.81831000  1.0 0.0702200655
C  C376  1  0.40720000  0.97461000  0.29395000  1.0 0.0595857854
C  C377  1  0.34280000  0.77539000  0.29395000  1.0 -0.1089313935
C  C378  1  0.40720000  0.77539000  0.95605000  1.0 0.0502700582
C  C379  1  0.34280000  0.97461000  0.95605000  1.0 0.0411299227
C  C380  1  0.40720000  0.47461000  0.79395000  1.0 0.0411299227
C  C381  1  0.34280000  0.27539000  0.79395000  1.0 0.0299280993
C  C382  1  0.40720000  0.27539000  0.45605000  1.0 0.0299280993
C  C383  1  0.34280000  0.47461000  0.45605000  1.0 -0.1197325995
C  C384  1  0.90720000  0.97461000  0.79395000  1.0 0.0299280993
C  C385  1  0.84280000  0.77539000  0.79395000  1.0 0.0411299227
C  C386  1  0.90720000  0.77539000  0.45605000  1.0 -0.1089313935
C  C387  1  0.84280000  0.97461000  0.45605000  1.0 0.0595857854
C  C388  1  0.90720000  0.47461000  0.29395000  1.0 0.0502700582
C  C389  1  0.84280000  0.27539000  0.29395000  1.0 0.0299280993
C  C390  1  0.84280000  0.47461000  0.95605000  1.0 0.0502700582
C  C391  1  0.59280000  0.02539000  0.70605000  1.0 0.0595857854
C  C392  1  0.15720000  0.72461000  0.70605000  1.0 0.0595857854
C  C393  1  0.59280000  0.72461000  0.54395000  1.0 0.0702200655
C  C394  1  0.15720000  0.02539000  0.54395000  1.0 0.0595857854
C  C395  1  0.59280000  0.52539000  0.20605000  1.0 0.0595857854
C  C396  1  0.15720000  0.72461000  0.20605000  1.0 -0.1197325995
C  C397  1  0.15720000  0.52539000  0.54395000  1.0 -0.1197325995
C  C398  1  0.09280000  0.02539000  0.20605000  1.0 0.0595857854
C  C399  1  0.09280000  0.72461000  0.54395000  1.0 -0.1197325995
C  C400  1  0.09280000  0.52539000  0.70605000  1.0 0.0595857854
C  C401  1  0.37650000  0.97373000  0.32401000  1.0 -0.2213126815
C  C402  1  0.37350000  0.77627000  0.32401000  1.0 -0.0596073449
C  C403  1  0.37650000  0.77627000  0.92599000  1.0 -0.2093813137
C  C404  1  0.37350000  0.97373000  0.92599000  1.0 -0.2093813137
C  C405  1  0.37650000  0.47373000  0.82401000  1.0 -0.2004350434
C  C406  1  0.37350000  0.27627000  0.82401000  1.0 -0.2093813137
C  C407  1  0.37650000  0.27627000  0.42599000  1.0 -0.2004350434
C  C408  1  0.37350000  0.47373000  0.42599000  1.0 -0.0596073449
C  C409  1  0.87650000  0.97373000  0.82401000  1.0 -0.2093813137
C  C410  1  0.87350000  0.77627000  0.82401000  1.0 -0.2093813137
C  C411  1  0.87650000  0.77627000  0.42599000  1.0 -0.0596073449
C  C412  1  0.87350000  0.97373000  0.42599000  1.0 -0.2213126815
C  C413  1  0.87650000  0.47373000  0.32401000  1.0 -0.1898949168
C  C414  1  0.87350000  0.27627000  0.32401000  1.0 -0.2004350434
C  C415  1  0.87350000  0.47373000  0.92599000  1.0 -0.2093813137
C  C416  1  0.62350000  0.02627000  0.67599000  1.0 -0.2213126815
C  C417  1  0.12650000  0.72373000  0.67599000  1.0 -0.2213126815
C  C418  1  0.62350000  0.72373000  0.57401000  1.0 -0.1813451492
C  C419  1  0.12650000  0.02627000  0.57401000  1.0 -0.2213126815
C  C420  1  0.62350000  0.52627000  0.17599000  1.0 -0.2213126815
C  C421  1  0.12650000  0.72373000  0.17599000  1.0 -0.0596073449
C  C422  1  0.12650000  0.52627000  0.57401000  1.0 -0.0596073449
C  C423  1  0.12350000  0.02627000  0.17599000  1.0 -0.2213126815
C  C424  1  0.12350000  0.72373000  0.57401000  1.0 -0.068240463
C  C425  1  0.12350000  0.52627000  0.67599000  1.0 -0.2213126815
C  C426  1  0.39210000  0.99829000  0.34503000  1.0 0.0898626377
C  C427  1  0.35790000  0.75171000  0.34503000  1.0 0.0411299227
C  C428  1  0.39210000  0.75171000  0.90497000  1.0 0.0898626377
C  C429  1  0.35790000  0.99829000  0.90497000  1.0 0.0898626377
C  C430  1  0.39210000  0.49829000  0.84503000  1.0 0.0794699318
C  C431  1  0.35790000  0.25171000  0.84503000  1.0 0.1206544388
C  C432  1  0.39210000  0.25171000  0.40497000  1.0 0.1099327996
C  C433  1  0.35790000  0.49829000  0.40497000  1.0 0.0411299227
C  C434  1  0.89210000  0.99829000  0.84503000  1.0 0.0898626377
C  C435  1  0.85790000  0.75171000  0.84503000  1.0 0.0898626377
C  C436  1  0.89210000  0.75171000  0.40497000  1.0 0.0595857854
C  C437  1  0.85790000  0.99829000  0.40497000  1.0 0.0898626377
C  C438  1  0.89210000  0.49829000  0.34503000  1.0 0.0595857854
C  C439  1  0.85790000  0.25171000  0.34503000  1.0 0.0898626377
C  C440  1  0.85790000  0.49829000  0.90497000  1.0 0.0898626377
C  C441  1  0.60790000  0.00171000  0.65497000  1.0 0.0898626377
C  C442  1  0.14210000  0.74829000  0.65497000  1.0 0.1206544388
C  C443  1  0.60790000  0.74829000  0.59503000  1.0 0.0595857854
C  C444  1  0.14210000  0.00171000  0.59503000  1.0 0.0898626377
C  C445  1  0.60790000  0.50171000  0.15497000  1.0 0.0898626377
C  C446  1  0.14210000  0.74829000  0.15497000  1.0 0.0595857854
C  C447  1  0.14210000  0.50171000  0.59503000  1.0 0.0502700582
C  C448  1  0.10790000  0.00171000  0.15497000  1.0 0.0898626377
C  C449  1  0.10790000  0.74829000  0.59503000  1.0 0.0595857854
C  C450  1  0.10790000  0.50171000  0.65497000  1.0 0.1099327996
C  C451  1  0.44230000  0.02275000  0.33471000  1.0 -0.1813451492
C  C452  1  0.30770000  0.72725000  0.33471000  1.0 -0.068240463
C  C453  1  0.44230000  0.72725000  0.91529000  1.0 -0.1700846916
C  C454  1  0.30770000  0.02275000  0.91529000  1.0 -0.1700846916
C  C455  1  0.44230000  0.52275000  0.83471000  1.0 -0.1813451492
C  C456  1  0.30770000  0.22725000  0.83471000  1.0 -0.2213126815
C  C457  1  0.44230000  0.22725000  0.41529000  1.0 -0.2004350434
C  C458  1  0.30770000  0.52275000  0.41529000  1.0 -0.0596073449
C  C459  1  0.94230000  0.02275000  0.83471000  1.0 -0.1898949168
C  C460  1  0.80770000  0.72725000  0.83471000  1.0 -0.1898949168
C  C461  1  0.94230000  0.72725000  0.41529000  1.0 -0.068240463
C  C462  1  0.80770000  0.02275000  0.41529000  1.0 -0.1813451492
C  C463  1  0.94230000  0.52275000  0.33471000  1.0 -0.2004350434
C  C464  1  0.80770000  0.22725000  0.33471000  1.0 -0.2004350434
C  C465  1  0.80770000  0.52275000  0.91529000  1.0 -0.1700846916
C  C466  1  0.55770000  0.97725000  0.66529000  1.0 -0.1813451492
C  C467  1  0.19230000  0.77275000  0.66529000  1.0 -0.1813451492
C  C468  1  0.55770000  0.77275000  0.58471000  1.0 -0.2093813137
C  C469  1  0.19230000  0.97725000  0.58471000  1.0 -0.1813451492
C  C470  1  0.55770000  0.47725000  0.16529000  1.0 -0.1898949168
C  C471  1  0.19230000  0.77275000  0.16529000  1.0 -0.068240463
C  C472  1  0.19230000  0.47725000  0.58471000  1.0 -0.068240463
C  C473  1  0.05770000  0.97725000  0.16529000  1.0 -0.1898949168
C  C474  1  0.05770000  0.77275000  0.58471000  1.0 -0.068240463
C  C475  1  0.05770000  0.47725000  0.66529000  1.0 -0.2004350434
C  C476  1  0.46940000  0.02114000  0.30435000  1.0 0.0702200655
C  C477  1  0.28060000  0.72886000  0.30435000  1.0 -0.1296015412
C  C478  1  0.46940000  0.72886000  0.94565000  1.0 0.0702200655
C  C479  1  0.28060000  0.02114000  0.94565000  1.0 0.0502700582
C  C480  1  0.46940000  0.52114000  0.80435000  1.0 0.0794699318
C  C481  1  0.28060000  0.22886000  0.80435000  1.0 0.0794699318
C  C482  1  0.46940000  0.22886000  0.44565000  1.0 0.0702200655
C  C483  1  0.28060000  0.52114000  0.44565000  1.0 -0.1089313935
C  C484  1  0.96940000  0.02114000  0.80435000  1.0 0.0702200655
C  C485  1  0.78060000  0.72886000  0.80435000  1.0 0.0794699318
C  C486  1  0.96940000  0.72886000  0.44565000  1.0 -0.1197325995
C  C487  1  0.78060000  0.02114000  0.44565000  1.0 0.0702200655
C  C488  1  0.96940000  0.52114000  0.30435000  1.0 0.0595857854
C  C489  1  0.78060000  0.22886000  0.30435000  1.0 0.0702200655
C  C490  1  0.78060000  0.52114000  0.94565000  1.0 0.0702200655
C  C491  1  0.53060000  0.97886000  0.69565000  1.0 0.0702200655
C  C492  1  0.21940000  0.77114000  0.69565000  1.0 0.0702200655
C  C493  1  0.53060000  0.77114000  0.55435000  1.0 0.0299280993
C  C494  1  0.21940000  0.97886000  0.55435000  1.0 0.0794699318
C  C495  1  0.53060000  0.47886000  0.19565000  1.0 0.0794699318
C  C496  1  0.21940000  0.77114000  0.19565000  1.0 -0.1019589129
C  C497  1  0.21940000  0.47886000  0.55435000  1.0 -0.1019589129
C  C498  1  0.03060000  0.97886000  0.19565000  1.0 0.0794699318
C  C499  1  0.03060000  0.77114000  0.55435000  1.0 -0.1296015412
C  C500  1  0.03060000  0.47886000  0.69565000  1.0 0.0794699318
C  C501  1  0.41620000  0.80410000  0.17430000  1.0 0.2403408949
C  C502  1  0.41620000  0.44590000  0.57570000  1.0 0.2403408949
C  C503  1  0.83380000  0.80410000  0.57570000  1.0 0.2189831636
C  C504  1  0.08380000  0.69590000  0.32570000  1.0 0.2137361332
C  C505  1  0.08380000  0.55410000  0.42430000  1.0 0.2189831636
C  C506  1  0.16620000  0.69590000  0.42430000  1.0 0.2009494083
C  C507  1  0.70440000  0.08780000  0.30480000  0.38 0.3013062553
C  C508  1  0.04560000  0.66220000  0.30480000  0.38 0.2515959183
C  C509  1  0.70440000  0.66220000  0.94520000  0.38 0.3087181182
C  C510  1  0.04560000  0.08780000  0.94520000  0.38 0.2798941646
C  C511  1  0.70440000  0.58780000  0.80480000  0.38 0.3013062553
C  C512  1  0.04560000  0.16220000  0.80480000  0.38 0.3087181182
C  C513  1  0.70440000  0.16220000  0.44520000  0.38 0.3087181182
C  C514  1  0.04560000  0.58780000  0.44520000  0.38 0.2137361332
C  C515  1  0.20440000  0.08780000  0.80480000  0.38 0.3013062553
C  C516  1  0.54560000  0.66220000  0.80480000  0.38 0.3013062553
C  C517  1  0.20440000  0.66220000  0.44520000  0.38 0.0898626377
C  C518  1  0.54560000  0.08780000  0.44520000  0.38 0.3013062553
C  C519  1  0.20440000  0.58780000  0.30480000  0.38 0.2189831636
C  C520  1  0.54560000  0.16220000  0.30480000  0.38 0.3087181182
C  C521  1  0.54560000  0.58780000  0.94520000  0.38 0.3013062553
C  C522  1  0.29560000  0.91220000  0.69520000  0.38 0.3013062553
C  C523  1  0.45440000  0.83780000  0.69520000  0.38 0.3013062553
C  C524  1  0.29560000  0.83780000  0.55480000  0.38 0.3087181182
C  C525  1  0.45440000  0.91220000  0.55480000  0.38 0.3087181182
C  C526  1  0.29560000  0.41220000  0.19520000  0.38 0.3192089641
C  C527  1  0.45440000  0.83780000  0.19520000  0.38 0.3713374699
C  C528  1  0.45440000  0.41220000  0.55480000  0.38 0.3713374699
C  C529  1  0.79560000  0.91220000  0.19520000  0.38 0.3192089641
C  C530  1  0.79560000  0.83780000  0.55480000  0.38 0.3087181182
C  C531  1  0.79560000  0.41220000  0.69520000  0.38 0.3192089641
C  C532  1  0.68750000  0.06010000  0.28240000  0.62 0.2189831636
C  C533  1  0.06250000  0.68990000  0.28240000  0.62 0.2009494083
C  C534  1  0.68750000  0.68990000  0.96760000  0.62 0.2798941646
C  C535  1  0.06250000  0.06010000  0.96760000  0.62 0.2798941646
C  C536  1  0.68750000  0.56010000  0.78240000  0.62 0.2189831636
C  C537  1  0.06250000  0.18990000  0.78240000  0.62 0.2693317923
C  C538  1  0.68750000  0.18990000  0.46760000  0.62 0.2693317923
C  C539  1  0.06250000  0.56010000  0.46760000  0.62 0.2009494083
C  C540  1  0.18750000  0.06010000  0.78240000  0.62 0.2189831636
C  C541  1  0.56250000  0.68990000  0.78240000  0.62 0.2189831636
C  C542  1  0.18750000  0.68990000  0.46760000  0.62 0.163169537
C  C543  1  0.56250000  0.06010000  0.46760000  0.62 0.2189831636
C  C544  1  0.18750000  0.56010000  0.28240000  0.62 0.2189831636
C  C545  1  0.56250000  0.18990000  0.28240000  0.62 0.2693317923
C  C546  1  0.56250000  0.56010000  0.96760000  0.62 0.2798941646
C  C547  1  0.31250000  0.93990000  0.71760000  0.62 0.2137361332
C  C548  1  0.43750000  0.81010000  0.71760000  0.62 0.2137361332
C  C549  1  0.31250000  0.81010000  0.53240000  0.62 0.2189831636
C  C550  1  0.43750000  0.93990000  0.53240000  0.62 0.2137361332
C  C551  1  0.31250000  0.43990000  0.21760000  0.62 0.2515959183
C  C552  1  0.43750000  0.81010000  0.21760000  0.62 0.2189831636
C  C553  1  0.43750000  0.43990000  0.53240000  0.62 0.2189831636
C  C554  1  0.81250000  0.93990000  0.21760000  0.62 0.2515959183
C  C555  1  0.81250000  0.81010000  0.53240000  0.62 0.2009494083
C  C556  1  0.81250000  0.43990000  0.71760000  0.62 0.2515959183
S  S1  1  0.65050000  0.06365000  0.32940000  0.38 0.7579497361
S  S2  1  0.09950000  0.68635000  0.32940000  0.38 0.2577831611
S  S3  1  0.65050000  0.68635000  0.92060000  0.38 0.7484041894
S  S4  1  0.09950000  0.06365000  0.92060000  0.38 0.7179565196
S  S5  1  0.65050000  0.56365000  0.82940000  0.38 0.7579497361
S  S6  1  0.09950000  0.18635000  0.82940000  0.38 0.7579497361
S  S7  1  0.65050000  0.18635000  0.42060000  0.38 0.7484041894
S  S8  1  0.09950000  0.56365000  0.42060000  0.38 0.2403408949
S  S9  1  0.15050000  0.06365000  0.82940000  0.38 0.7309022511
S  S10  1  0.59950000  0.68635000  0.82940000  0.38 0.7484041894
S  S11  1  0.15050000  0.68635000  0.42060000  0.38 0.2889405752
S  S12  1  0.59950000  0.06365000  0.42060000  0.38 0.7579497361
S  S13  1  0.15050000  0.56365000  0.32940000  0.38 0.500021931
S  S14  1  0.59950000  0.18635000  0.32940000  0.38 0.7380211318
S  S15  1  0.59950000  0.56365000  0.92060000  0.38 0.7484041894
S  S16  1  0.34950000  0.93635000  0.67060000  0.38 0.7710074747
S  S17  1  0.40050000  0.81365000  0.67060000  0.38 0.7812198365
S  S18  1  0.34950000  0.81365000  0.57940000  0.38 0.7710074747
S  S19  1  0.40050000  0.93635000  0.57940000  0.38 0.7710074747
S  S20  1  0.34950000  0.43635000  0.17060000  0.38 0.8027688031
S  S21  1  0.40050000  0.81365000  0.17060000  0.38 0.1870284344
S  S22  1  0.40050000  0.43635000  0.57940000  0.38 0.1870284344
S  S23  1  0.84950000  0.93635000  0.17060000  0.38 0.8027688031
S  S24  1  0.84950000  0.81365000  0.57940000  0.38 0.2137361332
S  S25  1  0.84950000  0.43635000  0.67060000  0.38 0.8027688031
S  S26  1  0.41936000  0.79020000  0.21361000  0.47 0.2577831611
S  S27  1  0.41936000  0.45980000  0.53639000  0.47 0.2577831611
S  S28  1  0.83064000  0.79020000  0.53639000  0.47 0.2889405752
S  S29  1  0.08064000  0.70980000  0.28639000  0.47 0.2889405752
S  S30  1  0.08064000  0.54020000  0.46361000  0.47 0.2889405752
S  S31  1  0.16936000  0.70980000  0.46361000  0.47 0.3192089641
S  S32  1  0.42337000  0.77255000  0.20177000  0.53 0.2577831611
S  S33  1  0.42337000  0.47745000  0.54823000  0.53 0.2577831611
S  S34  1  0.82663000  0.77255000  0.54823000  0.53 0.2798941646
S  S35  1  0.07663000  0.72745000  0.29823000  0.53 0.2693317923
S  S36  1  0.07663000  0.52255000  0.45177000  0.53 0.2693317923
S  S37  1  0.17337000  0.72745000  0.45177000  0.53 0.325690415
S  S38  1  0.68350000  0.03353000  0.25322000  0.62 0.9307404622
S  S39  1  0.06650000  0.71647000  0.25322000  0.62 0.3986225788
S  S40  1  0.68350000  0.71647000  0.99678000  0.62 1.0419864858
S  S41  1  0.06650000  0.03353000  0.99678000  0.62 1.0293588603
S  S42  1  0.68350000  0.53353000  0.75322000  0.62 0.9307404622
S  S43  1  0.06650000  0.21647000  0.75322000  0.62 1.0419864858
S  S44  1  0.68350000  0.21647000  0.49678000  0.62 1.0419864858
S  S45  1  0.06650000  0.53353000  0.49678000  0.62 0.3986225788
S  S46  1  0.18350000  0.03353000  0.75322000  0.62 0.9412863815
S  S47  1  0.56650000  0.71647000  0.75322000  0.62 0.9472761715
S  S48  1  0.18350000  0.71647000  0.49678000  0.62 0.4702246452
S  S49  1  0.56650000  0.03353000  0.49678000  0.62 0.9472761715
S  S50  1  0.18350000  0.53353000  0.25322000  0.62 0.9307404622
S  S51  1  0.56650000  0.21647000  0.25322000  0.62 1.0419864858
S  S52  1  0.56650000  0.53353000  0.99678000  0.62 1.0419864858
S  S53  1  0.31650000  0.96647000  0.74678000  0.62 0.9472761715
S  S54  1  0.43350000  0.78353000  0.74678000  0.62 0.9472761715
S  S55  1  0.31650000  0.78353000  0.50322000  0.62 0.7309022511
S  S56  1  0.43350000  0.96647000  0.50322000  0.62 0.9472761715
S  S57  1  0.31650000  0.46647000  0.24678000  0.62 0.9307404622
S  S58  1  0.43350000  0.78353000  0.24678000  0.62 0.325690415
S  S59  1  0.43350000  0.46647000  0.50322000  0.62 0.3192089641
S  S60  1  0.81650000  0.96647000  0.24678000  0.62 0.9307404622
S  S61  1  0.81650000  0.78353000  0.50322000  0.62 0.3986225788
S  S62  1  0.81650000  0.46647000  0.74678000  0.62 0.9307404622
N  N1  1  0.55340000  0.95082000  0.24433000  1.0 -0.2785827752
N  N2  1  0.19660000  0.79918000  0.24433000  1.0 -0.0596073449
N  N3  1  0.55340000  0.79918000  0.00567000  1.0 -0.2287853818
N  N4  1  0.19660000  0.95082000  0.00567000  1.0 -0.2287853818
N  N5  1  0.55340000  0.45082000  0.74433000  1.0 -0.2700548746
N  N6  1  0.19660000  0.29918000  0.74433000  1.0 -0.2287853818
N  N7  1  0.55340000  0.29918000  0.50567000  1.0 -0.2404614935
N  N8  1  0.19660000  0.45082000  0.50567000  1.0 -0.068240463
N  N9  1  0.05340000  0.95082000  0.74433000  1.0 -0.2603247369
N  N10  1  0.69660000  0.79918000  0.74433000  1.0 -0.2700548746
N  N11  1  0.05340000  0.79918000  0.50567000  1.0 -0.0596073449
N  N12  1  0.69660000  0.95082000  0.50567000  1.0 -0.2785827752
N  N13  1  0.05340000  0.45082000  0.24433000  1.0 -0.2603247369
N  N14  1  0.69660000  0.29918000  0.24433000  1.0 -0.2287853818
N  N15  1  0.69660000  0.45082000  0.00567000  1.0 -0.2287853818
N  N16  1  0.44660000  0.04918000  0.75567000  1.0 -0.2603247369
N  N17  1  0.30340000  0.70082000  0.75567000  1.0 -0.2603247369
N  N18  1  0.44660000  0.70082000  0.49433000  1.0 -0.2945085203
N  N19  1  0.30340000  0.04918000  0.49433000  1.0 -0.2700548746
N  N20  1  0.44660000  0.54918000  0.25567000  1.0 -0.2700548746
N  N21  1  0.30340000  0.70082000  0.25567000  1.0 -0.068240463
N  N22  1  0.30340000  0.54918000  0.49433000  1.0 -0.068240463
N  N23  1  0.94660000  0.04918000  0.25567000  1.0 -0.2603247369
N  N24  1  0.94660000  0.70082000  0.49433000  1.0 -0.068240463
N  N25  1  0.94660000  0.54918000  0.75567000  1.0 -0.2603247369
N  N26  1  0.45380000  0.04567000  0.23185000  1.0 -0.2603247369
N  N27  1  0.29620000  0.70433000  0.23185000  1.0 -0.0899255489
N  N28  1  0.45380000  0.70433000  0.01815000  1.0 -0.2497221377
N  N29  1  0.29620000  0.04567000  0.01815000  1.0 -0.2404614935
N  N30  1  0.45380000  0.54567000  0.73185000  1.0 -0.2603247369
N  N31  1  0.29620000  0.20433000  0.73185000  1.0 -0.2497221377
N  N32  1  0.45380000  0.20433000  0.51815000  1.0 -0.2603247369
N  N33  1  0.29620000  0.54567000  0.51815000  1.0 -0.0899255489
N  N34  1  0.95380000  0.04567000  0.73185000  1.0 -0.2603247369
N  N35  1  0.79620000  0.70433000  0.73185000  1.0 -0.2603247369
N  N36  1  0.95380000  0.70433000  0.51815000  1.0 -0.0899255489
N  N37  1  0.79620000  0.04567000  0.51815000  1.0 -0.2603247369
N  N38  1  0.95380000  0.54567000  0.23185000  1.0 -0.2497221377
N  N39  1  0.79620000  0.20433000  0.23185000  1.0 -0.2497221377
N  N40  1  0.79620000  0.54567000  0.01815000  1.0 -0.2497221377
N  N41  1  0.54620000  0.95433000  0.76815000  1.0 -0.2603247369
N  N42  1  0.20380000  0.79567000  0.76815000  1.0 -0.2603247369
N  N43  1  0.54620000  0.79567000  0.48185000  1.0 -0.2700548746
N  N44  1  0.20380000  0.95433000  0.48185000  1.0 -0.2700548746
N  N45  1  0.54620000  0.45433000  0.26815000  1.0 -0.2497221377
N  N46  1  0.20380000  0.79567000  0.26815000  1.0 -0.0807143591
N  N47  1  0.20380000  0.45433000  0.48185000  1.0 -0.0899255489
N  N48  1  0.04620000  0.95433000  0.26815000  1.0 -0.2700548746
N  N49  1  0.04620000  0.79567000  0.48185000  1.0 -0.0899255489
N  N50  1  0.04620000  0.45433000  0.76815000  1.0 -0.2497221377
N  N51  1  0.55340000  0.00078000  0.18886000  1.0 -0.2497221377
N  N52  1  0.19660000  0.74922000  0.18886000  1.0 0.1099327996
N  N53  1  0.55340000  0.74922000  0.06114000  1.0 -0.2497221377
N  N54  1  0.19660000  0.00078000  0.06114000  1.0 -0.2287853818
N  N55  1  0.55340000  0.50078000  0.68886000  1.0 -0.2700548746
N  N56  1  0.19660000  0.24922000  0.68886000  1.0 -0.2287853818
N  N57  1  0.55340000  0.24922000  0.56114000  1.0 -0.2213126815
N  N58  1  0.19660000  0.50078000  0.56114000  1.0 0.1099327996
N  N59  1  0.05340000  0.00078000  0.68886000  1.0 -0.2497221377
N  N60  1  0.69660000  0.74922000  0.68886000  1.0 -0.2785827752
N  N61  1  0.05340000  0.74922000  0.56114000  1.0 0.1305161317
N  N62  1  0.69660000  0.00078000  0.56114000  1.0 -0.2497221377
N  N63  1  0.05340000  0.50078000  0.18886000  1.0 -0.2497221377
N  N64  1  0.69660000  0.24922000  0.18886000  1.0 -0.2287853818
N  N65  1  0.69660000  0.50078000  0.06114000  1.0 -0.2287853818
N  N66  1  0.44660000  0.99922000  0.81114000  1.0 -0.2497221377
N  N67  1  0.30340000  0.75078000  0.81114000  1.0 -0.2497221377
N  N68  1  0.44660000  0.75078000  0.43886000  1.0 -0.2700548746
N  N69  1  0.30340000  0.99922000  0.43886000  1.0 -0.2497221377
N  N70  1  0.44660000  0.49922000  0.31114000  1.0 -0.2497221377
N  N71  1  0.30340000  0.75078000  0.31114000  1.0 0.1206544388
N  N72  1  0.30340000  0.49922000  0.43886000  1.0 0.1206544388
N  N73  1  0.94660000  0.99922000  0.31114000  1.0 -0.2497221377
N  N74  1  0.94660000  0.75078000  0.43886000  1.0 0.1305161317
N  N75  1  0.94660000  0.49922000  0.81114000  1.0 -0.2497221377
N  N76  1  0.45400000  0.99736000  0.28381000  1.0 -0.2497221377
N  N77  1  0.29600000  0.75264000  0.28381000  1.0 -0.1019589129
N  N78  1  0.45400000  0.75264000  0.96619000  1.0 -0.2497221377
N  N79  1  0.29600000  0.99736000  0.96619000  1.0 -0.2404614935
N  N80  1  0.45400000  0.49736000  0.78381000  1.0 -0.2497221377
N  N81  1  0.29600000  0.25264000  0.78381000  1.0 -0.2497221377
N  N82  1  0.45400000  0.25264000  0.46619000  1.0 -0.2404614935
N  N83  1  0.29600000  0.49736000  0.46619000  1.0 -0.1019589129
N  N84  1  0.95400000  0.99736000  0.78381000  1.0 -0.2497221377
N  N85  1  0.79600000  0.75264000  0.78381000  1.0 -0.2497221377
N  N86  1  0.95400000  0.75264000  0.46619000  1.0 -0.1089313935
N  N87  1  0.79600000  0.99736000  0.46619000  1.0 -0.2497221377
N  N88  1  0.95400000  0.49736000  0.28381000  1.0 -0.2497221377
N  N89  1  0.79600000  0.25264000  0.28381000  1.0 -0.2497221377
N  N90  1  0.79600000  0.49736000  0.96619000  1.0 -0.2497221377
N  N91  1  0.54600000  0.00264000  0.71619000  1.0 -0.2497221377
N  N92  1  0.20400000  0.74736000  0.71619000  1.0 -0.2497221377
N  N93  1  0.54600000  0.74736000  0.53381000  1.0 -0.2700548746
N  N94  1  0.20400000  0.00264000  0.53381000  1.0 -0.2497221377
N  N95  1  0.54600000  0.50264000  0.21619000  1.0 -0.2497221377
N  N96  1  0.20400000  0.74736000  0.21619000  1.0 -0.1019589129
N  N97  1  0.20400000  0.50264000  0.53381000  1.0 -0.1019589129
N  N98  1  0.04600000  0.00264000  0.21619000  1.0 -0.2497221377
N  N99  1  0.04600000  0.74736000  0.53381000  1.0 -0.1089313935
N  N100  1  0.04600000  0.50264000  0.71619000  1.0 -0.2603247369
O  O1  1  0.34750000  0.77261000  0.21753000  1.0 -0.0509546074
O  O2  1  0.34750000  0.47739000  0.53247000  1.0 -0.0509546074
O  O3  1  0.90250000  0.77261000  0.53247000  1.0 -0.0596073449
O  O4  1  0.15250000  0.72739000  0.28247000  1.0 -0.0596073449
O  O5  1  0.15250000  0.52261000  0.46753000  1.0 -0.0596073449
O  O6  1  0.09750000  0.72739000  0.46753000  1.0 -0.0596073449
O  O7  1  0.49010000  0.77618000  0.21871000  1.0 -0.0807143591
O  O8  1  0.49010000  0.47382000  0.53129000  1.0 -0.0807143591
O  O9  1  0.75990000  0.77618000  0.53129000  1.0 -0.0899255489
O  O10  1  0.00990000  0.72382000  0.28129000  1.0 -0.0807143591
O  O11  1  0.00990000  0.52618000  0.46871000  1.0 -0.0807143591
O  O12  1  0.24010000  0.72382000  0.46871000  1.0 -0.0899255489
O  O13  1  0.61330000  0.02290000  0.25340000  0.38 -0.4590479362
O  O14  1  0.13670000  0.72710000  0.25340000  0.38 -0.2213126815
O  O15  1  0.61330000  0.72710000  0.99660000  0.38 -0.5117671942
O  O16  1  0.13670000  0.02290000  0.99660000  0.38 -0.530063891
O  O17  1  0.61330000  0.52290000  0.75340000  0.38 -0.451887898
O  O18  1  0.13670000  0.22710000  0.75340000  0.38 -0.5117671942
O  O19  1  0.61330000  0.22710000  0.49660000  0.38 -0.5117671942
O  O20  1  0.13670000  0.52290000  0.49660000  0.38 -0.2213126815
O  O21  1  0.11330000  0.02290000  0.75340000  0.38 -0.4590479362
O  O22  1  0.63670000  0.72710000  0.75340000  0.38 -0.4590479362
O  O23  1  0.11330000  0.72710000  0.49660000  0.38 -0.2287853818
O  O24  1  0.63670000  0.02290000  0.49660000  0.38 -0.4590479362
O  O25  1  0.11330000  0.52290000  0.25340000  0.38 -0.451887898
O  O26  1  0.63670000  0.22710000  0.25340000  0.38 -0.5117671942
O  O27  1  0.63670000  0.52290000  0.99660000  0.38 -0.5117671942
O  O28  1  0.38670000  0.97710000  0.74660000  0.38 -0.4590479362
O  O29  1  0.36330000  0.77290000  0.74660000  0.38 -0.4590479362
O  O30  1  0.38670000  0.77290000  0.50340000  0.38 -0.451887898
O  O31  1  0.36330000  0.97710000  0.50340000  0.38 -0.4590479362
O  O32  1  0.38670000  0.47710000  0.24660000  0.38 -0.451887898
O  O33  1  0.36330000  0.77290000  0.24660000  0.38 -0.2213126815
O  O34  1  0.36330000  0.47710000  0.50340000  0.38 -0.2213126815
O  O35  1  0.88670000  0.97710000  0.24660000  0.38 -0.451887898
O  O36  1  0.88670000  0.77290000  0.50340000  0.38 -0.2287853818
O  O37  1  0.88670000  0.47710000  0.74660000  0.38 -0.451887898
O  O38  1  0.68190000  0.06350000  0.35970000  0.38 -0.4906997451
O  O39  1  0.06810000  0.68650000  0.35970000  0.38 -0.1197325995
O  O40  1  0.68190000  0.68650000  0.89030000  0.38 -0.4671345463
O  O41  1  0.06810000  0.06350000  0.89030000  0.38 -0.451887898
O  O42  1  0.68190000  0.56350000  0.85970000  0.38 -0.4906997451
O  O43  1  0.06810000  0.18650000  0.85970000  0.38 -0.4133288101
O  O44  1  0.68190000  0.18650000  0.39030000  0.38 -0.4671345463
O  O45  1  0.06810000  0.56350000  0.39030000  0.38 -0.068240463
O  O46  1  0.18190000  0.06350000  0.85970000  0.38 -0.4906997451
O  O47  1  0.56810000  0.68650000  0.85970000  0.38 -0.4906997451
O  O48  1  0.18190000  0.68650000  0.39030000  0.38 -0.1515849231
O  O49  1  0.56810000  0.06350000  0.39030000  0.38 -0.4906997451
O  O50  1  0.18190000  0.56350000  0.35970000  0.38 -0.4815941488
O  O51  1  0.56810000  0.18650000  0.35970000  0.38 -0.4671345463
O  O52  1  0.56810000  0.56350000  0.89030000  0.38 -0.4671345463
O  O53  1  0.31810000  0.93650000  0.64030000  0.38 -0.4906997451
O  O54  1  0.43190000  0.81350000  0.64030000  0.38 -0.4815941488
O  O55  1  0.31810000  0.81350000  0.60970000  0.38 -0.4906997451
O  O56  1  0.43190000  0.93650000  0.60970000  0.38 -0.4906997451
O  O57  1  0.31810000  0.43650000  0.14030000  0.38 -0.4590479362
O  O58  1  0.43190000  0.81350000  0.14030000  0.38 -0.0104009141
O  O59  1  0.43190000  0.43650000  0.60970000  0.38 -0.0023602713
O  O60  1  0.81810000  0.93650000  0.14030000  0.38 -0.4590479362
O  O61  1  0.81810000  0.81350000  0.60970000  0.38 -0.0509546074
O  O62  1  0.81810000  0.43650000  0.64030000  0.38 -0.451887898
O  O63  1  0.57930000  0.08010000  0.32600000  0.38 -0.4411742971
O  O64  1  0.17070000  0.66990000  0.32600000  0.38 -0.0899255489
O  O65  1  0.57930000  0.66990000  0.92400000  0.38 -0.4309594666
O  O66  1  0.17070000  0.08010000  0.92400000  0.38 -0.385890547
O  O67  1  0.57930000  0.58010000  0.82600000  0.38 -0.4411742971
O  O68  1  0.17070000  0.16990000  0.82600000  0.38 -0.4411742971
O  O69  1  0.57930000  0.16990000  0.42400000  0.38 -0.4309594666
O  O70  1  0.17070000  0.58010000  0.42400000  0.38 -0.068240463
O  O71  1  0.07930000  0.08010000  0.82600000  0.38 -0.42093328
O  O72  1  0.67070000  0.66990000  0.82600000  0.38 -0.4411742971
O  O73  1  0.07930000  0.66990000  0.42400000  0.38 -0.1296015412
O  O74  1  0.67070000  0.08010000  0.42400000  0.38 -0.4411742971
O  O75  1  0.07930000  0.58010000  0.32600000  0.38 -0.4815941488
O  O76  1  0.67070000  0.16990000  0.32600000  0.38 -0.4309594666
O  O77  1  0.67070000  0.58010000  0.92400000  0.38 -0.4309594666
O  O78  1  0.42070000  0.91990000  0.67400000  0.38 -0.4590479362
O  O79  1  0.32930000  0.83010000  0.67400000  0.38 -0.4590479362
O  O80  1  0.42070000  0.83010000  0.57600000  0.38 -0.4411742971
O  O81  1  0.32930000  0.91990000  0.57600000  0.38 -0.4590479362
O  O82  1  0.42070000  0.41990000  0.17400000  0.38 -0.4133288101
O  O83  1  0.32930000  0.83010000  0.17400000  0.38 0.0103431518
O  O84  1  0.32930000  0.41990000  0.57600000  0.38 0.0103431518
O  O85  1  0.92070000  0.91990000  0.17400000  0.38 -0.42093328
O  O86  1  0.92070000  0.83010000  0.57600000  0.38 -0.0398046161
O  O87  1  0.92070000  0.41990000  0.67400000  0.38 -0.4133288101
O  O88  1  0.65100000  0.03370000  0.31420000  0.38 -0.1089313935
O  O89  1  0.09900000  0.71630000  0.31420000  0.38 -0.0104009141
O  O90  1  0.65100000  0.71630000  0.93580000  0.38 -0.0596073449
O  O91  1  0.09900000  0.03370000  0.93580000  0.38 -0.0509546074
O  O92  1  0.65100000  0.53370000  0.81420000  0.38 -0.1089313935
O  O93  1  0.09900000  0.21630000  0.81420000  0.38 -0.0509546074
O  O94  1  0.65100000  0.21630000  0.43580000  0.38 -0.0509546074
O  O95  1  0.09900000  0.53370000  0.43580000  0.38 -0.0023602713
O  O96  1  0.15100000  0.03370000  0.81420000  0.38 -0.1089313935
O  O97  1  0.59900000  0.71630000  0.81420000  0.38 -0.1089313935
O  O98  1  0.15100000  0.71630000  0.43580000  0.38 0.0103431518
O  O99  1  0.59900000  0.03370000  0.43580000  0.38 -0.1089313935
O  O100  1  0.15100000  0.53370000  0.31420000  0.38 -0.1813451492
O  O101  1  0.59900000  0.21630000  0.31420000  0.38 -0.0509546074
O  O102  1  0.59900000  0.53370000  0.93580000  0.38 -0.0596073449
O  O103  1  0.34900000  0.96630000  0.68580000  0.38 -0.1089313935
O  O104  1  0.40100000  0.78370000  0.68580000  0.38 -0.1019589129
O  O105  1  0.34900000  0.78370000  0.56420000  0.38 -0.1197325995
O  O106  1  0.40100000  0.96630000  0.56420000  0.38 -0.1089313935
O  O107  1  0.34900000  0.46630000  0.18580000  0.38 -0.0899255489
O  O108  1  0.40100000  0.78370000  0.18580000  0.38 0.002536924
O  O109  1  0.40100000  0.46630000  0.56420000  0.38 0.002536924
O  O110  1  0.84900000  0.96630000  0.18580000  0.38 -0.0899255489
O  O111  1  0.84900000  0.78370000  0.56420000  0.38 -0.0104009141
O  O112  1  0.84900000  0.46630000  0.68580000  0.38 -0.0807143591
O  O113  1  0.41310000  0.81970000  0.23030000  0.47 0.0103431518
O  O114  1  0.41310000  0.43030000  0.51970000  0.47 0.0190920234
O  O115  1  0.83690000  0.81970000  0.51970000  0.47 -0.0104009141
O  O116  1  0.08690000  0.68030000  0.26970000  0.47 -0.0104009141
O  O117  1  0.08690000  0.56970000  0.48030000  0.47 -0.0301456891
O  O118  1  0.16310000  0.68030000  0.48030000  0.47 -0.0509546074
O  O119  1  0.42990000  0.74600000  0.18080000  0.53 -0.3191369907
O  O120  1  0.42990000  0.50400000  0.56920000  0.53 -0.3191369907
O  O121  1  0.82010000  0.74600000  0.56920000  0.53 -0.3686063623
O  O122  1  0.07010000  0.75400000  0.31920000  0.53 -0.3686063623
O  O123  1  0.07010000  0.49600000  0.43080000  0.53 -0.3414262867
O  O124  1  0.17990000  0.75400000  0.43080000  0.53 -0.3807965254
O  O125  1  0.60810000  0.01680000  0.25470000  0.62 -0.5685128388
O  O126  1  0.14190000  0.73320000  0.25470000  0.62 -0.2287853818
O  O127  1  0.60810000  0.73320000  0.99530000  0.62 -0.6022115623
O  O128  1  0.14190000  0.01680000  0.99530000  0.62 -0.6132942474
O  O129  1  0.60810000  0.51680000  0.75470000  0.62 -0.5648722684
O  O130  1  0.14190000  0.23320000  0.75470000  0.62 -0.6022115623
O  O131  1  0.60810000  0.23320000  0.49530000  0.62 -0.6022115623
O  O132  1  0.14190000  0.51680000  0.49530000  0.62 -0.2287853818
O  O133  1  0.10810000  0.01680000  0.75470000  0.62 -0.5685128388
O  O134  1  0.64190000  0.73320000  0.75470000  0.62 -0.5685128388
O  O135  1  0.10810000  0.73320000  0.49530000  0.62 -0.2497221377
O  O136  1  0.64190000  0.01680000  0.49530000  0.62 -0.5685128388
O  O137  1  0.10810000  0.51680000  0.25470000  0.62 -0.5648722684
O  O138  1  0.64190000  0.23320000  0.25470000  0.62 -0.6022115623
O  O139  1  0.64190000  0.51680000  0.99530000  0.62 -0.6022115623
O  O140  1  0.39190000  0.98320000  0.74530000  0.62 -0.5685128388
O  O141  1  0.35810000  0.76680000  0.74530000  0.62 -0.5685128388
O  O142  1  0.39190000  0.76680000  0.50470000  0.62 -0.5685128388
O  O143  1  0.35810000  0.98320000  0.50470000  0.62 -0.5685128388
O  O144  1  0.39190000  0.48320000  0.24530000  0.62 -0.5685128388
O  O145  1  0.35810000  0.76680000  0.24530000  0.62 -0.2287853818
O  O146  1  0.35810000  0.48320000  0.50470000  0.62 -0.2287853818
O  O147  1  0.89190000  0.98320000  0.24530000  0.62 -0.5685128388
O  O148  1  0.89190000  0.76680000  0.50470000  0.62 -0.2404614935
O  O149  1  0.89190000  0.48320000  0.74530000  0.62 -0.5685128388
O  O150  1  0.69620000  0.05180000  0.22430000  0.62 -0.5197576096
O  O151  1  0.05380000  0.69820000  0.22430000  0.62 -0.4996752476
O  O152  1  0.69620000  0.69820000  0.02570000  0.62 -0.5117671942
O  O153  1  0.05380000  0.05180000  0.02570000  0.62 -0.5197576096
O  O154  1  0.69620000  0.55180000  0.72430000  0.62 -0.5197576096
O  O155  1  0.05380000  0.19820000  0.72430000  0.62 -0.5405085321
O  O156  1  0.69620000  0.19820000  0.52570000  0.62 -0.5405085321
O  O157  1  0.05380000  0.55180000  0.52570000  0.62 -0.4815941488
O  O158  1  0.19620000  0.05180000  0.72430000  0.62 -0.530063891
O  O159  1  0.55380000  0.69820000  0.72430000  0.62 -0.530063891
O  O160  1  0.19620000  0.69820000  0.52570000  0.62 -0.4906997451
O  O161  1  0.55380000  0.05180000  0.52570000  0.62 -0.530063891
O  O162  1  0.19620000  0.55180000  0.22430000  0.62 -0.5197576096
O  O163  1  0.55380000  0.19820000  0.22430000  0.62 -0.5405085321
O  O164  1  0.55380000  0.55180000  0.02570000  0.62 -0.530063891
O  O165  1  0.30380000  0.94820000  0.77570000  0.62 -0.530063891
O  O166  1  0.44620000  0.80180000  0.77570000  0.62 -0.530063891
O  O167  1  0.30380000  0.80180000  0.47430000  0.62 -0.4996752476
O  O168  1  0.44620000  0.94820000  0.47430000  0.62 -0.530063891
O  O169  1  0.30380000  0.44820000  0.27570000  0.62 -0.5117671942
O  O170  1  0.44620000  0.80180000  0.27570000  0.62 -0.4590479362
O  O171  1  0.44620000  0.44820000  0.47430000  0.62 -0.4590479362
O  O172  1  0.80380000  0.94820000  0.27570000  0.62 -0.5197576096
O  O173  1  0.80380000  0.80180000  0.47430000  0.62 -0.4815941488
O  O174  1  0.80380000  0.44820000  0.77570000  0.62 -0.5117671942
O  O175  1  0.74790000  0.01240000  0.26020000  0.62 -0.2497221377
O  O176  1  0.00210000  0.73760000  0.26020000  0.62 -0.1296015412
O  O177  1  0.74790000  0.73760000  0.98980000  0.62 -0.5197576096
O  O178  1  0.00210000  0.01240000  0.98980000  0.62 -0.5117671942
O  O179  1  0.74790000  0.51240000  0.76020000  0.62 -0.2497221377
O  O180  1  0.00210000  0.23760000  0.76020000  0.62 -0.5117671942
O  O181  1  0.74790000  0.23760000  0.48980000  0.62 -0.5197576096
O  O182  1  0.00210000  0.51240000  0.48980000  0.62 -0.1296015412
O  O183  1  0.24790000  0.01240000  0.76020000  0.62 -0.2404614935
O  O184  1  0.50210000  0.73760000  0.76020000  0.62 -0.2497221377
O  O185  1  0.24790000  0.73760000  0.48980000  0.62 -0.0301456891
O  O186  1  0.50210000  0.01240000  0.48980000  0.62 -0.2497221377
O  O187  1  0.24790000  0.51240000  0.26020000  0.62 -0.2497221377
O  O188  1  0.50210000  0.23760000  0.26020000  0.62 -0.530063891
O  O189  1  0.50210000  0.51240000  0.98980000  0.62 -0.5197576096
O  O190  1  0.25210000  0.98760000  0.73980000  0.62 -0.2497221377
O  O191  1  0.49790000  0.76240000  0.73980000  0.62 -0.2497221377
O  O192  1  0.25210000  0.76240000  0.51020000  0.62 -0.3686063623
O  O193  1  0.49790000  0.98760000  0.51020000  0.62 -0.2404614935
O  O194  1  0.25210000  0.48760000  0.23980000  0.62 -0.2287853818
O  O195  1  0.49790000  0.76240000  0.23980000  0.62 -0.1296015412
O  O196  1  0.49790000  0.48760000  0.51020000  0.62 -0.1296015412
O  O197  1  0.75210000  0.98760000  0.23980000  0.62 -0.2404614935
O  O198  1  0.75210000  0.76240000  0.51020000  0.62 -0.1700846916
O  O199  1  0.75210000  0.48760000  0.73980000  0.62 -0.2404614935
F  F1  1  0.41170000  0.83340000  0.19250000  0.53 0.1305161317
F  F2  1  0.41170000  0.41660000  0.55750000  0.53 0.1305161317
F  F3  1  0.83830000  0.83340000  0.55750000  0.53 0.1389102964
F  F4  1  0.08830000  0.66666667  0.30750000  0.53 0.1485686018
F  F5  1  0.08830000  0.58340000  0.44250000  0.53 0.1305161317
F  F6  1  0.16170000  0.66666667  0.44250000  0.53 0.1389102964
F  F7  1  0.48130000  0.80770000  0.15610000  0.53 0.0794699318
F  F8  1  0.48130000  0.44230000  0.59390000  0.53 0.0794699318
F  F9  1  0.76870000  0.80770000  0.59390000  0.53 0.0502700582
F  F10  1  0.01870000  0.69230000  0.34390000  0.53 0.0299280993
F  F11  1  0.01870000  0.55770000  0.40610000  0.53 0.0502700582
F  F12  1  0.23130000  0.69230000  0.40610000  0.53 -0.0104009141
F  F13  1  0.34660000  0.80700000  0.15970000  0.53 0.0595857854
F  F14  1  0.34660000  0.44300000  0.59030000  0.53 0.0595857854
F  F15  1  0.90340000  0.80700000  0.59030000  0.53 0.0595857854
F  F16  1  0.15340000  0.69300000  0.34030000  0.53 -0.0023602713
F  F17  1  0.15340000  0.55700000  0.40970000  0.53 0.0411299227
F  F18  1  0.09660000  0.69300000  0.40970000  0.53 -0.0023602713
F  F19  1  0.67600000  0.09140000  0.27530000  0.38 -0.0104009141
F  F20  1  0.07400000  0.65860000  0.27530000  0.38 0.0103431518
F  F21  1  0.67600000  0.65860000  0.97470000  0.38 -0.0301456891
F  F22  1  0.07400000  0.09140000  0.97470000  0.38 -0.0023602713
F  F23  1  0.67600000  0.59140000  0.77530000  0.38 -0.0182906555
F  F24  1  0.07400000  0.15860000  0.77530000  0.38 -0.0398046161
F  F25  1  0.67600000  0.15860000  0.47470000  0.38 -0.0301456891
F  F26  1  0.07400000  0.59140000  0.47470000  0.38 -0.0023602713
F  F27  1  0.17600000  0.09140000  0.77530000  0.38 -0.0104009141
F  F28  1  0.57400000  0.65860000  0.77530000  0.38 -0.0182906555
F  F29  1  0.17600000  0.65860000  0.47470000  0.38 -0.0104009141
F  F30  1  0.57400000  0.09140000  0.47470000  0.38 -0.0104009141
F  F31  1  0.17600000  0.59140000  0.27530000  0.38 -0.0182906555
F  F32  1  0.57400000  0.15860000  0.27530000  0.38 -0.0301456891
F  F33  1  0.57400000  0.59140000  0.97470000  0.38 -0.0301456891
F  F34  1  0.32400000  0.90860000  0.72470000  0.38 -0.0182906555
F  F35  1  0.42600000  0.84140000  0.72470000  0.38 -0.0182906555
F  F36  1  0.32400000  0.84140000  0.52530000  0.38 -0.0104009141
F  F37  1  0.42600000  0.90860000  0.52530000  0.38 -0.0182906555
F  F38  1  0.32400000  0.40860000  0.22470000  0.38 -0.0398046161
F  F39  1  0.42600000  0.84140000  0.22470000  0.38 0.0595857854
F  F40  1  0.42600000  0.40860000  0.52530000  0.38 0.0595857854
F  F41  1  0.82400000  0.90860000  0.22470000  0.38 -0.0398046161
F  F42  1  0.82400000  0.84140000  0.52530000  0.38 0.0190920234
F  F43  1  0.82400000  0.40860000  0.72470000  0.38 -0.0398046161
F  F44  1  0.73200000  0.11670000  0.31300000  0.38 -0.2093813137
F  F45  1  0.01800000  0.63330000  0.31300000  0.38 -0.2700548746
F  F46  1  0.73200000  0.63330000  0.93700000  0.38 -0.1813451492
F  F47  1  0.01800000  0.11670000  0.93700000  0.38 -0.1700846916
F  F48  1  0.73200000  0.61670000  0.81300000  0.38 -0.2093813137
F  F49  1  0.01800000  0.13330000  0.81300000  0.38 -0.1898949168
F  F50  1  0.73200000  0.13330000  0.43700000  0.38 -0.1813451492
F  F51  1  0.01800000  0.61670000  0.43700000  0.38 -0.3191369907
F  F52  1  0.23200000  0.11670000  0.81300000  0.38 -0.2213126815
F  F53  1  0.51800000  0.63330000  0.81300000  0.38 -0.2093813137
F  F54  1  0.23200000  0.63330000  0.43700000  0.38 -0.3113372659
F  F55  1  0.51800000  0.11670000  0.43700000  0.38 -0.2093813137
F  F56  1  0.23200000  0.61670000  0.31300000  0.38 -0.2945085203
F  F57  1  0.51800000  0.13330000  0.31300000  0.38 -0.1813451492
F  F58  1  0.51800000  0.61670000  0.93700000  0.38 -0.1813451492
F  F59  1  0.26800000  0.88330000  0.68700000  0.38 -0.2004350434
F  F60  1  0.48200000  0.86670000  0.68700000  0.38 -0.2004350434
F  F61  1  0.26800000  0.86670000  0.56300000  0.38 -0.2287853818
F  F62  1  0.48200000  0.88330000  0.56300000  0.38 -0.2004350434
F  F63  1  0.26800000  0.38330000  0.18700000  0.38 -0.1589892393
F  F64  1  0.48200000  0.86670000  0.18700000  0.38 -0.2700548746
F  F65  1  0.48200000  0.38330000  0.56300000  0.38 -0.2700548746
F  F66  1  0.76800000  0.88330000  0.18700000  0.38 -0.1589892393
F  F67  1  0.76800000  0.86670000  0.56300000  0.38 -0.2603247369
F  F68  1  0.76800000  0.38330000  0.68700000  0.38 -0.1589892393
F  F69  1  0.77200000  0.07060000  0.30040000  0.38 0.0103431518
F  F70  1  0.97800000  0.67940000  0.30040000  0.38 0.0898626377
F  F71  1  0.77200000  0.67940000  0.94960000  0.38 0.0299280993
F  F72  1  0.97800000  0.07060000  0.94960000  0.38 0.0702200655
F  F73  1  0.77200000  0.57060000  0.80040000  0.38 0.0103431518
F  F74  1  0.97800000  0.17940000  0.80040000  0.38 0.0411299227
F  F75  1  0.77200000  0.17940000  0.44960000  0.38 0.0299280993
F  F76  1  0.97800000  0.57060000  0.44960000  0.38 0.0898626377
F  F77  1  0.27200000  0.07060000  0.80040000  0.38 0.0190920234
F  F78  1  0.47800000  0.67940000  0.80040000  0.38 0.0103431518
F  F79  1  0.27200000  0.67940000  0.44960000  0.38 0.0502700582
F  F80  1  0.47800000  0.07060000  0.44960000  0.38 0.0103431518
F  F81  1  0.27200000  0.57060000  0.30040000  0.38 0.0411299227
F  F82  1  0.47800000  0.17940000  0.30040000  0.38 0.0299280993
F  F83  1  0.47800000  0.57060000  0.94960000  0.38 0.0299280993
F  F84  1  0.22800000  0.92940000  0.69960000  0.38 0.0103431518
F  F85  1  0.52200000  0.82060000  0.69960000  0.38 0.0103431518
F  F86  1  0.22800000  0.82060000  0.55040000  0.38 0.0190920234
F  F87  1  0.52200000  0.92940000  0.55040000  0.38 0.0190920234
F  F88  1  0.22800000  0.42940000  0.19960000  0.38 -0.0104009141
F  F89  1  0.52200000  0.82060000  0.19960000  0.38 0.1485686018
F  F90  1  0.52200000  0.42940000  0.55040000  0.38 0.163169537
F  F91  1  0.72800000  0.92940000  0.19960000  0.38 0.0103431518
F  F92  1  0.72800000  0.82060000  0.55040000  0.38 0.0898626377
F  F93  1  0.72800000  0.42940000  0.69960000  0.38 0.002536924
F  F94  1  0.36170000  0.81930000  0.16560000  0.47 0.0898626377
F  F95  1  0.36170000  0.43070000  0.58440000  0.47 0.0898626377
F  F96  1  0.88830000  0.81930000  0.58440000  0.47 0.1000199824
F  F97  1  0.13830000  0.68070000  0.33440000  0.47 0.0898626377
F  F98  1  0.13830000  0.56930000  0.41560000  0.47 0.1099327996
F  F99  1  0.11170000  0.68070000  0.41560000  0.47 0.0702200655
F  F100  1  0.48510000  0.82000000  0.16650000  0.47 0.1000199824
F  F101  1  0.48510000  0.43000000  0.58350000  0.47 0.1000199824
F  F102  1  0.76490000  0.82000000  0.58350000  0.47 0.0502700582
F  F103  1  0.01490000  0.68000000  0.33350000  0.47 0.0595857854
F  F104  1  0.01490000  0.57000000  0.41650000  0.47 0.0595857854
F  F105  1  0.23510000  0.68000000  0.41650000  0.47 0.0299280993
F  F106  1  0.42290000  0.77660000  0.15430000  0.47 0.0794699318
F  F107  1  0.42290000  0.47340000  0.59570000  0.47 0.0702200655
F  F108  1  0.82710000  0.77660000  0.59570000  0.47 0.0299280993
F  F109  1  0.07710000  0.72340000  0.34570000  0.47 -0.0301456891
F  F110  1  0.07710000  0.52660000  0.40430000  0.47 0.0190920234
F  F111  1  0.17290000  0.72340000  0.40430000  0.47 -0.0398046161
F  F112  1  0.62790000  0.07990000  0.28570000  0.62 0.0595857854
F  F113  1  0.12210000  0.67010000  0.28570000  0.62 0.0190920234
F  F114  1  0.62790000  0.67010000  0.96430000  0.62 0.0299280993
F  F115  1  0.12210000  0.07990000  0.96430000  0.62 0.0103431518
F  F116  1  0.62790000  0.57990000  0.78570000  0.62 0.0595857854
F  F117  1  0.12210000  0.17010000  0.78570000  0.62 0.0103431518
F  F118  1  0.62790000  0.17010000  0.46430000  0.62 0.0299280993
F  F119  1  0.12210000  0.57990000  0.46430000  0.62 0.0103431518
F  F120  1  0.12790000  0.07990000  0.78570000  0.62 0.0595857854
F  F121  1  0.62210000  0.67010000  0.78570000  0.62 0.0595857854
F  F122  1  0.12790000  0.67010000  0.46430000  0.62 0.0103431518
F  F123  1  0.62210000  0.07990000  0.46430000  0.62 0.0595857854
F  F124  1  0.12790000  0.57990000  0.28570000  0.62 0.0502700582
F  F125  1  0.62210000  0.17010000  0.28570000  0.62 0.0299280993
F  F126  1  0.62210000  0.57990000  0.96430000  0.62 0.0299280993
F  F127  1  0.37210000  0.92010000  0.71430000  0.62 0.0595857854
F  F128  1  0.37790000  0.82990000  0.71430000  0.62 0.0595857854
F  F129  1  0.37210000  0.82990000  0.53570000  0.62 0.0794699318
F  F130  1  0.37790000  0.92010000  0.53570000  0.62 0.0595857854
F  F131  1  0.37210000  0.42010000  0.21430000  0.62 0.0103431518
F  F132  1  0.37790000  0.82990000  0.21430000  0.62 0.0502700582
F  F133  1  0.37790000  0.42010000  0.53570000  0.62 0.0595857854
F  F134  1  0.87210000  0.92010000  0.21430000  0.62 0.0190920234
F  F135  1  0.87210000  0.82990000  0.53570000  0.62 0.0299280993
F  F136  1  0.87210000  0.42010000  0.71430000  0.62 0.0103431518
F  F137  1  0.67470000  0.04700000  0.31070000  0.62 0.1099327996
F  F138  1  0.07530000  0.70300000  0.31070000  0.62 0.1000199824
F  F139  1  0.67470000  0.70300000  0.93930000  0.62 0.1000199824
F  F140  1  0.07530000  0.04700000  0.93930000  0.62 0.0299280993
F  F141  1  0.67470000  0.54700000  0.81070000  0.62 0.1099327996
F  F142  1  0.07530000  0.20300000  0.81070000  0.62 0.0702200655
F  F143  1  0.67470000  0.20300000  0.43930000  0.62 0.0898626377
F  F144  1  0.07530000  0.54700000  0.43930000  0.62 0.0898626377
F  F145  1  0.17470000  0.04700000  0.81070000  0.62 0.1000199824
F  F146  1  0.57530000  0.70300000  0.81070000  0.62 0.1099327996
F  F147  1  0.17470000  0.70300000  0.43930000  0.62 0.1099327996
F  F148  1  0.57530000  0.04700000  0.43930000  0.62 0.1099327996
F  F149  1  0.17470000  0.54700000  0.31070000  0.62 0.0898626377
F  F150  1  0.57530000  0.20300000  0.31070000  0.62 0.0898626377
F  F151  1  0.57530000  0.54700000  0.93930000  0.62 0.1000199824
F  F152  1  0.32530000  0.95300000  0.68930000  0.62 0.1099327996
F  F153  1  0.42470000  0.79700000  0.68930000  0.62 0.1099327996
F  F154  1  0.32530000  0.79700000  0.56070000  0.62 0.1000199824
F  F155  1  0.42470000  0.95300000  0.56070000  0.62 0.1099327996
F  F156  1  0.32530000  0.45300000  0.18930000  0.62 0.0898626377
F  F157  1  0.42470000  0.79700000  0.18930000  0.62 0.0595857854
F  F158  1  0.42470000  0.45300000  0.56070000  0.62 0.0595857854
F  F159  1  0.82530000  0.95300000  0.18930000  0.62 0.0898626377
F  F160  1  0.82530000  0.79700000  0.56070000  0.62 0.0595857854
F  F161  1  0.82530000  0.45300000  0.68930000  0.62 0.0898626377
F  F162  1  0.75680000  0.07420000  0.28790000  0.62 0.0190920234
F  F163  1  0.99320000  0.67580000  0.28790000  0.62 0.0595857854
F  F164  1  0.75680000  0.67580000  0.96210000  0.62 0.0595857854
F  F165  1  0.99320000  0.07420000  0.96210000  0.62 0.0103431518
F  F166  1  0.75680000  0.57420000  0.78790000  0.62 0.0190920234
F  F167  1  0.99320000  0.17580000  0.78790000  0.62 0.0411299227
F  F168  1  0.75680000  0.17580000  0.46210000  0.62 0.0502700582
F  F169  1  0.99320000  0.57420000  0.46210000  0.62 0.0299280993
F  F170  1  0.25680000  0.07420000  0.78790000  0.62 0.0190920234
F  F171  1  0.49320000  0.67580000  0.78790000  0.62 0.0190920234
F  F172  1  0.25680000  0.67580000  0.46210000  0.62 0.0411299227
F  F173  1  0.49320000  0.07420000  0.46210000  0.62 0.0190920234
F  F174  1  0.25680000  0.57420000  0.28790000  0.62 0.0502700582
F  F175  1  0.49320000  0.17580000  0.28790000  0.62 0.0502700582
F  F176  1  0.49320000  0.57420000  0.96210000  0.62 0.0595857854
F  F177  1  0.24320000  0.92580000  0.71210000  0.62 0.0103431518
F  F178  1  0.50680000  0.82420000  0.71210000  0.62 0.0190920234
F  F179  1  0.24320000  0.82420000  0.53790000  0.62 0.0411299227
F  F180  1  0.50680000  0.92580000  0.53790000  0.62 0.0190920234
F  F181  1  0.24320000  0.42580000  0.21210000  0.62 0.0103431518
F  F182  1  0.50680000  0.82420000  0.21210000  0.62 0.0411299227
F  F183  1  0.50680000  0.42580000  0.53790000  0.62 0.0411299227
F  F184  1  0.74320000  0.92580000  0.21210000  0.62 0.0103431518
F  F185  1  0.74320000  0.82420000  0.53790000  0.62 0.0595857854
F  F186  1  0.74320000  0.42580000  0.71210000  0.62 0.0103431518
