# DDEC6 charges by PACMAN v1.1 (https://github.com/mtap-research/PACMAN-charge/)
data_c9cc02787d2_1_FSR_pacman
_symmetry_space_group_name_H-M   'P 1'
_cell_length_a   30.39780000
_cell_length_b   30.39780000
_cell_length_c   30.39780000
_cell_angle_alpha   90.00000000
_cell_angle_beta   90.00000000
_cell_angle_gamma   90.00000000
_symmetry_Int_Tables_number   1
_chemical_formula_structural   Zn7H66C93O41
_chemical_formula_sum   'Zn28 H264 C372 O164'
_cell_volume   28088.36498540
_cell_formula_units_Z   4
loop_
 _symmetry_equiv_pos_site_id
 _symmetry_equiv_pos_as_xyz
  1  'x, y, z'
loop_
 _atom_site_type_symbol
 _atom_site_label
 _atom_site_symmetry_multiplicity
 _atom_site_fract_x
 _atom_site_fract_y
 _atom_site_fract_z
 _atom_site_occupancy
 _atom_site_charge
Zn  Zn1  1  0.50000000  0.50000000  0.88614000  1.0 1.0218077353
Zn  Zn2  1  0.50000000  0.50000000  0.11386000  1.0 1.0218077353
Zn  Zn3  1  0.88614000  0.50000000  0.50000000  1.0 1.0218077353
Zn  Zn4  1  0.11386000  0.50000000  0.50000000  1.0 1.0218077353
Zn  Zn5  1  0.50000000  0.88614000  0.50000000  1.0 1.0218077353
Zn  Zn6  1  0.50000000  0.11386000  0.50000000  1.0 1.0218077353
Zn  Zn7  1  0.50000000  0.50000000  0.78958000  1.0 1.0218077353
Zn  Zn8  1  0.50000000  0.50000000  0.21042000  1.0 1.0218077353
Zn  Zn9  1  0.78958000  0.50000000  0.50000000  1.0 1.0218077353
Zn  Zn10  1  0.21042000  0.50000000  0.50000000  1.0 1.0218077353
Zn  Zn11  1  0.50000000  0.78958000  0.50000000  1.0 1.0218077353
Zn  Zn12  1  0.50000000  0.21042000  0.50000000  1.0 1.0218077353
Zn  Zn13  1  0.65473000  0.34527000  0.65473000  1.0 1.0378258478
Zn  Zn14  1  0.34527000  0.65473000  0.65473000  1.0 1.0378258478
Zn  Zn15  1  0.34527000  0.34527000  0.34527000  1.0 1.0378258478
Zn  Zn16  1  0.65473000  0.65473000  0.34527000  1.0 1.0378258478
Zn  Zn17  1  0.34527000  0.65473000  0.34527000  1.0 1.0378258478
Zn  Zn18  1  0.65473000  0.34527000  0.34527000  1.0 1.0378258478
Zn  Zn19  1  0.34527000  0.34527000  0.65473000  1.0 1.0378258478
Zn  Zn20  1  0.65473000  0.65473000  0.65473000  1.0 1.0378258478
Zn  Zn21  1  0.72397000  0.27603000  0.72397000  1.0 1.1672314655
Zn  Zn22  1  0.27603000  0.72397000  0.72397000  1.0 1.1672314655
Zn  Zn23  1  0.27603000  0.27603000  0.27603000  1.0 1.1672314655
Zn  Zn24  1  0.72397000  0.72397000  0.27603000  1.0 1.1672314655
Zn  Zn25  1  0.27603000  0.72397000  0.27603000  1.0 1.1672314655
Zn  Zn26  1  0.72397000  0.27603000  0.27603000  1.0 1.1672314655
Zn  Zn27  1  0.27603000  0.27603000  0.72397000  1.0 1.1672314655
Zn  Zn28  1  0.72397000  0.72397000  0.72397000  1.0 1.1672314655
H  H1  1  0.59517000  0.40203000  0.76848000  1.0 0.1506870191
H  H2  1  0.40483000  0.59797000  0.76848000  1.0 0.1506870191
H  H3  1  0.40483000  0.40203000  0.23152000  1.0 0.1506870191
H  H4  1  0.59517000  0.59797000  0.23152000  1.0 0.1506870191
H  H5  1  0.76848000  0.59517000  0.40203000  1.0 0.1506870191
H  H6  1  0.76848000  0.40483000  0.59797000  1.0 0.1506870191
H  H7  1  0.23152000  0.40483000  0.40203000  1.0 0.1506870191
H  H8  1  0.23152000  0.59517000  0.59797000  1.0 0.1506870191
H  H9  1  0.40203000  0.76848000  0.59517000  1.0 0.1506870191
H  H10  1  0.59797000  0.76848000  0.40483000  1.0 0.1506870191
H  H11  1  0.40203000  0.23152000  0.40483000  1.0 0.1506870191
H  H12  1  0.59797000  0.23152000  0.59517000  1.0 0.1506870191
H  H13  1  0.40203000  0.59517000  0.23152000  1.0 0.1506870191
H  H14  1  0.59797000  0.40483000  0.23152000  1.0 0.1506870191
H  H15  1  0.40203000  0.40483000  0.76848000  1.0 0.1506870191
H  H16  1  0.59797000  0.59517000  0.76848000  1.0 0.1506870191
H  H17  1  0.59517000  0.76848000  0.59797000  1.0 0.1506870191
H  H18  1  0.40483000  0.76848000  0.40203000  1.0 0.1506870191
H  H19  1  0.40483000  0.23152000  0.59797000  1.0 0.1506870191
H  H20  1  0.59517000  0.23152000  0.40203000  1.0 0.1506870191
H  H21  1  0.76848000  0.40203000  0.40483000  1.0 0.1506870191
H  H22  1  0.76848000  0.59797000  0.59517000  1.0 0.1506870191
H  H23  1  0.23152000  0.40203000  0.59517000  1.0 0.1506870191
H  H24  1  0.23152000  0.59797000  0.40483000  1.0 0.1506870191
H  H25  1  0.61363000  0.40926000  0.90033000  1.0 0.1308304081
H  H26  1  0.38637000  0.59074000  0.90033000  1.0 0.1308304081
H  H27  1  0.38637000  0.40926000  0.09967000  1.0 0.1308304081
H  H28  1  0.61363000  0.59074000  0.09967000  1.0 0.1308304081
H  H29  1  0.90033000  0.61363000  0.40926000  1.0 0.1308304081
H  H30  1  0.90033000  0.38637000  0.59074000  1.0 0.1308304081
H  H31  1  0.09967000  0.38637000  0.40926000  1.0 0.1308304081
H  H32  1  0.09967000  0.61363000  0.59074000  1.0 0.1308304081
H  H33  1  0.40926000  0.90033000  0.61363000  1.0 0.1308304081
H  H34  1  0.59074000  0.90033000  0.38637000  1.0 0.1308304081
H  H35  1  0.40926000  0.09967000  0.38637000  1.0 0.1308304081
H  H36  1  0.59074000  0.09967000  0.61363000  1.0 0.1308304081
H  H37  1  0.40926000  0.61363000  0.09967000  1.0 0.1308304081
H  H38  1  0.59074000  0.38637000  0.09967000  1.0 0.1308304081
H  H39  1  0.40926000  0.38637000  0.90033000  1.0 0.1308304081
H  H40  1  0.59074000  0.61363000  0.90033000  1.0 0.1308304081
H  H41  1  0.61363000  0.90033000  0.59074000  1.0 0.1308304081
H  H42  1  0.38637000  0.90033000  0.40926000  1.0 0.1308304081
H  H43  1  0.38637000  0.09967000  0.59074000  1.0 0.1308304081
H  H44  1  0.61363000  0.09967000  0.40926000  1.0 0.1308304081
H  H45  1  0.90033000  0.40926000  0.38637000  1.0 0.1308304081
H  H46  1  0.90033000  0.59074000  0.61363000  1.0 0.1308304081
H  H47  1  0.09967000  0.40926000  0.61363000  1.0 0.1308304081
H  H48  1  0.09967000  0.59074000  0.38637000  1.0 0.1308304081
H  H49  1  0.70107000  0.34330000  0.82429000  1.0 0.1373833276
H  H50  1  0.29893000  0.65670000  0.82429000  1.0 0.1373833276
H  H51  1  0.29893000  0.34330000  0.17571000  1.0 0.1373833276
H  H52  1  0.70107000  0.65670000  0.17571000  1.0 0.1373833276
H  H53  1  0.82429000  0.70107000  0.34330000  1.0 0.1373833276
H  H54  1  0.82429000  0.29893000  0.65670000  1.0 0.1373833276
H  H55  1  0.17571000  0.29893000  0.34330000  1.0 0.1373833276
H  H56  1  0.17571000  0.70107000  0.65670000  1.0 0.1373833276
H  H57  1  0.34330000  0.82429000  0.70107000  1.0 0.1373833276
H  H58  1  0.65670000  0.82429000  0.29893000  1.0 0.1373833276
H  H59  1  0.34330000  0.17571000  0.29893000  1.0 0.1373833276
H  H60  1  0.65670000  0.17571000  0.70107000  1.0 0.1373833276
H  H61  1  0.34330000  0.70107000  0.17571000  1.0 0.1373833276
H  H62  1  0.65670000  0.29893000  0.17571000  1.0 0.1373833276
H  H63  1  0.34330000  0.29893000  0.82429000  1.0 0.1373833276
H  H64  1  0.65670000  0.70107000  0.82429000  1.0 0.1373833276
H  H65  1  0.70107000  0.82429000  0.65670000  1.0 0.1373833276
H  H66  1  0.29893000  0.82429000  0.34330000  1.0 0.1373833276
H  H67  1  0.29893000  0.17571000  0.65670000  1.0 0.1373833276
H  H68  1  0.70107000  0.17571000  0.34330000  1.0 0.1373833276
H  H69  1  0.82429000  0.34330000  0.29893000  1.0 0.1373833276
H  H70  1  0.82429000  0.65670000  0.70107000  1.0 0.1373833276
H  H71  1  0.17571000  0.34330000  0.70107000  1.0 0.1373833276
H  H72  1  0.17571000  0.65670000  0.29893000  1.0 0.1373833276
H  H73  1  0.74201000  0.37469000  0.88123000  1.0 0.1308304081
H  H74  1  0.25799000  0.62531000  0.88123000  1.0 0.1308304081
H  H75  1  0.25799000  0.37469000  0.11877000  1.0 0.1308304081
H  H76  1  0.74201000  0.62531000  0.11877000  1.0 0.1308304081
H  H77  1  0.88123000  0.74201000  0.37469000  1.0 0.1308304081
H  H78  1  0.88123000  0.25799000  0.62531000  1.0 0.1308304081
H  H79  1  0.11877000  0.25799000  0.37469000  1.0 0.1308304081
H  H80  1  0.11877000  0.74201000  0.62531000  1.0 0.1308304081
H  H81  1  0.37469000  0.88123000  0.74201000  1.0 0.1308304081
H  H82  1  0.62531000  0.88123000  0.25799000  1.0 0.1308304081
H  H83  1  0.37469000  0.11877000  0.25799000  1.0 0.1308304081
H  H84  1  0.62531000  0.11877000  0.74201000  1.0 0.1308304081
H  H85  1  0.37469000  0.74201000  0.11877000  1.0 0.1308304081
H  H86  1  0.62531000  0.25799000  0.11877000  1.0 0.1308304081
H  H87  1  0.37469000  0.25799000  0.88123000  1.0 0.1308304081
H  H88  1  0.62531000  0.74201000  0.88123000  1.0 0.1308304081
H  H89  1  0.74201000  0.88123000  0.62531000  1.0 0.1308304081
H  H90  1  0.25799000  0.88123000  0.37469000  1.0 0.1308304081
H  H91  1  0.25799000  0.11877000  0.62531000  1.0 0.1308304081
H  H92  1  0.74201000  0.11877000  0.37469000  1.0 0.1308304081
H  H93  1  0.88123000  0.37469000  0.25799000  1.0 0.1308304081
H  H94  1  0.88123000  0.62531000  0.74201000  1.0 0.1308304081
H  H95  1  0.11877000  0.37469000  0.74201000  1.0 0.1308304081
H  H96  1  0.11877000  0.62531000  0.25799000  1.0 0.1308304081
H  H97  1  0.61489000  0.32233000  0.92332000  1.0 0.3492089163
H  H98  1  0.38511000  0.67767000  0.92332000  1.0 0.3492089163
H  H99  1  0.38511000  0.32233000  0.07668000  1.0 0.3492089163
H  H100  1  0.61489000  0.67767000  0.07668000  1.0 0.3492089163
H  H101  1  0.92332000  0.61489000  0.32233000  1.0 0.3492089163
H  H102  1  0.92332000  0.38511000  0.67767000  1.0 0.3492089163
H  H103  1  0.07668000  0.38511000  0.32233000  1.0 0.3492089163
H  H104  1  0.07668000  0.61489000  0.67767000  1.0 0.3492089163
H  H105  1  0.32233000  0.92332000  0.61489000  1.0 0.3492089163
H  H106  1  0.67767000  0.92332000  0.38511000  1.0 0.3492089163
H  H107  1  0.32233000  0.07668000  0.38511000  1.0 0.3492089163
H  H108  1  0.67767000  0.07668000  0.61489000  1.0 0.3492089163
H  H109  1  0.32233000  0.61489000  0.07668000  1.0 0.3492089163
H  H110  1  0.67767000  0.38511000  0.07668000  1.0 0.3492089163
H  H111  1  0.32233000  0.38511000  0.92332000  1.0 0.3492089163
H  H112  1  0.67767000  0.61489000  0.92332000  1.0 0.3492089163
H  H113  1  0.61489000  0.92332000  0.67767000  1.0 0.3492089163
H  H114  1  0.38511000  0.92332000  0.32233000  1.0 0.3492089163
H  H115  1  0.38511000  0.07668000  0.67767000  1.0 0.3492089163
H  H116  1  0.61489000  0.07668000  0.32233000  1.0 0.3492089163
H  H117  1  0.92332000  0.32233000  0.38511000  1.0 0.3492089163
H  H118  1  0.92332000  0.67767000  0.61489000  1.0 0.3492089163
H  H119  1  0.07668000  0.32233000  0.61489000  1.0 0.3492089163
H  H120  1  0.07668000  0.67767000  0.38511000  1.0 0.3492089163
H  H121  1  0.81006000  0.37167000  0.90671000  1.0 0.1073814135
H  H122  1  0.18994000  0.62833000  0.90671000  1.0 0.1073814135
H  H123  1  0.18994000  0.37167000  0.09329000  1.0 0.1073814135
H  H124  1  0.81006000  0.62833000  0.09329000  1.0 0.1073814135
H  H125  1  0.90671000  0.81006000  0.37167000  1.0 0.1073814135
H  H126  1  0.90671000  0.18994000  0.62833000  1.0 0.1073814135
H  H127  1  0.09329000  0.18994000  0.37167000  1.0 0.1073814135
H  H128  1  0.09329000  0.81006000  0.62833000  1.0 0.1073814135
H  H129  1  0.37167000  0.90671000  0.81006000  1.0 0.1073814135
H  H130  1  0.62833000  0.90671000  0.18994000  1.0 0.1073814135
H  H131  1  0.37167000  0.09329000  0.18994000  1.0 0.1073814135
H  H132  1  0.62833000  0.09329000  0.81006000  1.0 0.1073814135
H  H133  1  0.37167000  0.81006000  0.09329000  1.0 0.1073814135
H  H134  1  0.62833000  0.18994000  0.09329000  1.0 0.1073814135
H  H135  1  0.37167000  0.18994000  0.90671000  1.0 0.1073814135
H  H136  1  0.62833000  0.81006000  0.90671000  1.0 0.1073814135
H  H137  1  0.81006000  0.90671000  0.62833000  1.0 0.1073814135
H  H138  1  0.18994000  0.90671000  0.37167000  1.0 0.1073814135
H  H139  1  0.18994000  0.09329000  0.62833000  1.0 0.1073814135
H  H140  1  0.81006000  0.09329000  0.37167000  1.0 0.1073814135
H  H141  1  0.90671000  0.37167000  0.18994000  1.0 0.1073814135
H  H142  1  0.90671000  0.62833000  0.81006000  1.0 0.1073814135
H  H143  1  0.09329000  0.37167000  0.81006000  1.0 0.1073814135
H  H144  1  0.09329000  0.62833000  0.18994000  1.0 0.1073814135
H  H145  1  0.81553000  0.37990000  0.95842000  1.0 0.1194248848
H  H146  1  0.18447000  0.62010000  0.95842000  1.0 0.1194248848
H  H147  1  0.18447000  0.37990000  0.04158000  1.0 0.1194248848
H  H148  1  0.81553000  0.62010000  0.04158000  1.0 0.1194248848
H  H149  1  0.95842000  0.81553000  0.37990000  1.0 0.1194248848
H  H150  1  0.95842000  0.18447000  0.62010000  1.0 0.1194248848
H  H151  1  0.04158000  0.18447000  0.37990000  1.0 0.1194248848
H  H152  1  0.04158000  0.81553000  0.62010000  1.0 0.1194248848
H  H153  1  0.37990000  0.95842000  0.81553000  1.0 0.1194248848
H  H154  1  0.62010000  0.95842000  0.18447000  1.0 0.1194248848
H  H155  1  0.37990000  0.04158000  0.18447000  1.0 0.1194248848
H  H156  1  0.62010000  0.04158000  0.81553000  1.0 0.1194248848
H  H157  1  0.37990000  0.81553000  0.04158000  1.0 0.1194248848
H  H158  1  0.62010000  0.18447000  0.04158000  1.0 0.1194248848
H  H159  1  0.37990000  0.18447000  0.95842000  1.0 0.1194248848
H  H160  1  0.62010000  0.81553000  0.95842000  1.0 0.1194248848
H  H161  1  0.81553000  0.95842000  0.62010000  1.0 0.1194248848
H  H162  1  0.18447000  0.95842000  0.37990000  1.0 0.1194248848
H  H163  1  0.18447000  0.04158000  0.62010000  1.0 0.1194248848
H  H164  1  0.81553000  0.04158000  0.37990000  1.0 0.1194248848
H  H165  1  0.95842000  0.37990000  0.18447000  1.0 0.1194248848
H  H166  1  0.95842000  0.62010000  0.81553000  1.0 0.1194248848
H  H167  1  0.04158000  0.37990000  0.81553000  1.0 0.1194248848
H  H168  1  0.04158000  0.62010000  0.18447000  1.0 0.1194248848
H  H169  1  0.82087000  0.33134000  0.93879000  1.0 0.1194248848
H  H170  1  0.17913000  0.66866000  0.93879000  1.0 0.1194248848
H  H171  1  0.17913000  0.33134000  0.06121000  1.0 0.1194248848
H  H172  1  0.82087000  0.66866000  0.06121000  1.0 0.1194248848
H  H173  1  0.93879000  0.82087000  0.33134000  1.0 0.1194248848
H  H174  1  0.93879000  0.17913000  0.66866000  1.0 0.1194248848
H  H175  1  0.06121000  0.17913000  0.33134000  1.0 0.1194248848
H  H176  1  0.06121000  0.82087000  0.66866000  1.0 0.1194248848
H  H177  1  0.33134000  0.93879000  0.82087000  1.0 0.1194248848
H  H178  1  0.66866000  0.93879000  0.17913000  1.0 0.1194248848
H  H179  1  0.33134000  0.06121000  0.17913000  1.0 0.1194248848
H  H180  1  0.66866000  0.06121000  0.82087000  1.0 0.1194248848
H  H181  1  0.33134000  0.82087000  0.06121000  1.0 0.1194248848
H  H182  1  0.66866000  0.17913000  0.06121000  1.0 0.1194248848
H  H183  1  0.33134000  0.17913000  0.93879000  1.0 0.1194248848
H  H184  1  0.66866000  0.82087000  0.93879000  1.0 0.1194248848
H  H185  1  0.82087000  0.93879000  0.66866000  1.0 0.1194248848
H  H186  1  0.17913000  0.93879000  0.33134000  1.0 0.1194248848
H  H187  1  0.17913000  0.06121000  0.66866000  1.0 0.1194248848
H  H188  1  0.82087000  0.06121000  0.33134000  1.0 0.1194248848
H  H189  1  0.93879000  0.33134000  0.17913000  1.0 0.1194248848
H  H190  1  0.93879000  0.66866000  0.82087000  1.0 0.1194248848
H  H191  1  0.06121000  0.33134000  0.82087000  1.0 0.1194248848
H  H192  1  0.06121000  0.66866000  0.17913000  1.0 0.1194248848
H  H193  1  0.74942000  0.30982000  0.04304000  1.0 0.1194248848
H  H194  1  0.25058000  0.69018000  0.04304000  1.0 0.1194248848
H  H195  1  0.25058000  0.30982000  0.95696000  1.0 0.1194248848
H  H196  1  0.74942000  0.69018000  0.95696000  1.0 0.1194248848
H  H197  1  0.04304000  0.74942000  0.30982000  1.0 0.1194248848
H  H198  1  0.04304000  0.25058000  0.69018000  1.0 0.1194248848
H  H199  1  0.95696000  0.25058000  0.30982000  1.0 0.1194248848
H  H200  1  0.95696000  0.74942000  0.69018000  1.0 0.1194248848
H  H201  1  0.30982000  0.04304000  0.74942000  1.0 0.1194248848
H  H202  1  0.69018000  0.04304000  0.25058000  1.0 0.1194248848
H  H203  1  0.30982000  0.95696000  0.25058000  1.0 0.1194248848
H  H204  1  0.69018000  0.95696000  0.74942000  1.0 0.1194248848
H  H205  1  0.30982000  0.74942000  0.95696000  1.0 0.1194248848
H  H206  1  0.69018000  0.25058000  0.95696000  1.0 0.1194248848
H  H207  1  0.30982000  0.25058000  0.04304000  1.0 0.1194248848
H  H208  1  0.69018000  0.74942000  0.04304000  1.0 0.1194248848
H  H209  1  0.74942000  0.04304000  0.69018000  1.0 0.1194248848
H  H210  1  0.25058000  0.04304000  0.30982000  1.0 0.1194248848
H  H211  1  0.25058000  0.95696000  0.69018000  1.0 0.1194248848
H  H212  1  0.74942000  0.95696000  0.30982000  1.0 0.1194248848
H  H213  1  0.04304000  0.30982000  0.25058000  1.0 0.1194248848
H  H214  1  0.04304000  0.69018000  0.74942000  1.0 0.1194248848
H  H215  1  0.95696000  0.30982000  0.74942000  1.0 0.1194248848
H  H216  1  0.95696000  0.69018000  0.25058000  1.0 0.1194248848
H  H217  1  0.78848000  0.29914000  0.00938000  1.0 0.1373833276
H  H218  1  0.21152000  0.70086000  0.00938000  1.0 0.1373833276
H  H219  1  0.21152000  0.29914000  0.99062000  1.0 0.1373833276
H  H220  1  0.78848000  0.70086000  0.99062000  1.0 0.1373833276
H  H221  1  0.00938000  0.78848000  0.29914000  1.0 0.1373833276
H  H222  1  0.00938000  0.21152000  0.70086000  1.0 0.1373833276
H  H223  1  0.99062000  0.21152000  0.29914000  1.0 0.1373833276
H  H224  1  0.99062000  0.78848000  0.70086000  1.0 0.1373833276
H  H225  1  0.29914000  0.00938000  0.78848000  1.0 0.1373833276
H  H226  1  0.70086000  0.00938000  0.21152000  1.0 0.1373833276
H  H227  1  0.29914000  0.99062000  0.21152000  1.0 0.1373833276
H  H228  1  0.70086000  0.99062000  0.78848000  1.0 0.1373833276
H  H229  1  0.29914000  0.78848000  0.99062000  1.0 0.1373833276
H  H230  1  0.70086000  0.21152000  0.99062000  1.0 0.1373833276
H  H231  1  0.29914000  0.21152000  0.00938000  1.0 0.1373833276
H  H232  1  0.70086000  0.78848000  0.00938000  1.0 0.1373833276
H  H233  1  0.78848000  0.00938000  0.70086000  1.0 0.1373833276
H  H234  1  0.21152000  0.00938000  0.29914000  1.0 0.1373833276
H  H235  1  0.21152000  0.99062000  0.70086000  1.0 0.1373833276
H  H236  1  0.78848000  0.99062000  0.29914000  1.0 0.1373833276
H  H237  1  0.00938000  0.29914000  0.21152000  1.0 0.1373833276
H  H238  1  0.00938000  0.70086000  0.78848000  1.0 0.1373833276
H  H239  1  0.99062000  0.29914000  0.78848000  1.0 0.1373833276
H  H240  1  0.99062000  0.70086000  0.21152000  1.0 0.1373833276
H  H241  1  0.78320000  0.34769000  0.02905000  1.0 0.1308304081
H  H242  1  0.21680000  0.65231000  0.02905000  1.0 0.1308304081
H  H243  1  0.21680000  0.34769000  0.97095000  1.0 0.1308304081
H  H244  1  0.78320000  0.65231000  0.97095000  1.0 0.1308304081
H  H245  1  0.02905000  0.78320000  0.34769000  1.0 0.1308304081
H  H246  1  0.02905000  0.21680000  0.65231000  1.0 0.1308304081
H  H247  1  0.97095000  0.21680000  0.34769000  1.0 0.1308304081
H  H248  1  0.97095000  0.78320000  0.65231000  1.0 0.1308304081
H  H249  1  0.34769000  0.02905000  0.78320000  1.0 0.1308304081
H  H250  1  0.65231000  0.02905000  0.21680000  1.0 0.1308304081
H  H251  1  0.34769000  0.97095000  0.21680000  1.0 0.1308304081
H  H252  1  0.65231000  0.97095000  0.78320000  1.0 0.1308304081
H  H253  1  0.34769000  0.78320000  0.97095000  1.0 0.1308304081
H  H254  1  0.65231000  0.21680000  0.97095000  1.0 0.1308304081
H  H255  1  0.34769000  0.21680000  0.02905000  1.0 0.1308304081
H  H256  1  0.65231000  0.78320000  0.02905000  1.0 0.1308304081
H  H257  1  0.78320000  0.02905000  0.65231000  1.0 0.1308304081
H  H258  1  0.21680000  0.02905000  0.34769000  1.0 0.1308304081
H  H259  1  0.21680000  0.97095000  0.65231000  1.0 0.1308304081
H  H260  1  0.78320000  0.97095000  0.34769000  1.0 0.1308304081
H  H261  1  0.02905000  0.34769000  0.21680000  1.0 0.1308304081
H  H262  1  0.02905000  0.65231000  0.78320000  1.0 0.1308304081
H  H263  1  0.97095000  0.34769000  0.78320000  1.0 0.1308304081
H  H264  1  0.97095000  0.65231000  0.21680000  1.0 0.1308304081
C  C1  1  0.56250000  0.44330000  0.83920000  1.0 0.6022521507
C  C2  1  0.43750000  0.55670000  0.83920000  1.0 0.6022521507
C  C3  1  0.43750000  0.44330000  0.16080000  1.0 0.6022521507
C  C4  1  0.56250000  0.55670000  0.16080000  1.0 0.6022521507
C  C5  1  0.83920000  0.56250000  0.44330000  1.0 0.6022521507
C  C6  1  0.83920000  0.43750000  0.55670000  1.0 0.6022521507
C  C7  1  0.16080000  0.43750000  0.44330000  1.0 0.6022521507
C  C8  1  0.16080000  0.56250000  0.55670000  1.0 0.6022521507
C  C9  1  0.44330000  0.83920000  0.56250000  1.0 0.6022521507
C  C10  1  0.55670000  0.83920000  0.43750000  1.0 0.6022521507
C  C11  1  0.44330000  0.16080000  0.43750000  1.0 0.6022521507
C  C12  1  0.55670000  0.16080000  0.56250000  1.0 0.6022521507
C  C13  1  0.44330000  0.56250000  0.16080000  1.0 0.6022521507
C  C14  1  0.55670000  0.43750000  0.16080000  1.0 0.6022521507
C  C15  1  0.44330000  0.43750000  0.83920000  1.0 0.6022521507
C  C16  1  0.55670000  0.56250000  0.83920000  1.0 0.6022521507
C  C17  1  0.56250000  0.83920000  0.55670000  1.0 0.6022521507
C  C18  1  0.43750000  0.83920000  0.44330000  1.0 0.6022521507
C  C19  1  0.43750000  0.16080000  0.55670000  1.0 0.6022521507
C  C20  1  0.56250000  0.16080000  0.44330000  1.0 0.6022521507
C  C21  1  0.83920000  0.44330000  0.43750000  1.0 0.6022521507
C  C22  1  0.83920000  0.55670000  0.56250000  1.0 0.6022521507
C  C23  1  0.16080000  0.44330000  0.56250000  1.0 0.6022521507
C  C24  1  0.16080000  0.55670000  0.43750000  1.0 0.6022521507
C  C25  1  0.61200000  0.39510000  0.79390000  1.0 -0.0991089687
C  C26  1  0.38800000  0.60490000  0.79390000  1.0 -0.0991089687
C  C27  1  0.38800000  0.39510000  0.20610000  1.0 -0.0991089687
C  C28  1  0.61200000  0.60490000  0.20610000  1.0 -0.0991089687
C  C29  1  0.79390000  0.61200000  0.39510000  1.0 -0.0991089687
C  C30  1  0.79390000  0.38800000  0.60490000  1.0 -0.0991089687
C  C31  1  0.20610000  0.38800000  0.39510000  1.0 -0.0991089687
C  C32  1  0.20610000  0.61200000  0.60490000  1.0 -0.0991089687
C  C33  1  0.39510000  0.79390000  0.61200000  1.0 -0.0991089687
C  C34  1  0.60490000  0.79390000  0.38800000  1.0 -0.0991089687
C  C35  1  0.39510000  0.20610000  0.38800000  1.0 -0.0991089687
C  C36  1  0.60490000  0.20610000  0.61200000  1.0 -0.0991089687
C  C37  1  0.39510000  0.61200000  0.20610000  1.0 -0.0991089687
C  C38  1  0.60490000  0.38800000  0.20610000  1.0 -0.0991089687
C  C39  1  0.39510000  0.38800000  0.79390000  1.0 -0.0991089687
C  C40  1  0.60490000  0.61200000  0.79390000  1.0 -0.0991089687
C  C41  1  0.61200000  0.79390000  0.60490000  1.0 -0.0991089687
C  C42  1  0.38800000  0.79390000  0.39510000  1.0 -0.0991089687
C  C43  1  0.38800000  0.20610000  0.60490000  1.0 -0.0991089687
C  C44  1  0.61200000  0.20610000  0.39510000  1.0 -0.0991089687
C  C45  1  0.79390000  0.39510000  0.38800000  1.0 -0.0991089687
C  C46  1  0.79390000  0.60490000  0.61200000  1.0 -0.0991089687
C  C47  1  0.20610000  0.39510000  0.61200000  1.0 -0.0991089687
C  C48  1  0.20610000  0.60490000  0.38800000  1.0 -0.0991089687
C  C49  1  0.59830000  0.40960000  0.83500000  1.0 -0.0252665008
C  C50  1  0.40170000  0.59040000  0.83500000  1.0 -0.0252665008
C  C51  1  0.40170000  0.40960000  0.16500000  1.0 -0.0252665008
C  C52  1  0.59830000  0.59040000  0.16500000  1.0 -0.0252665008
C  C53  1  0.83500000  0.59830000  0.40960000  1.0 -0.0252665008
C  C54  1  0.83500000  0.40170000  0.59040000  1.0 -0.0252665008
C  C55  1  0.16500000  0.40170000  0.40960000  1.0 -0.0252665008
C  C56  1  0.16500000  0.59830000  0.59040000  1.0 -0.0252665008
C  C57  1  0.40960000  0.83500000  0.59830000  1.0 -0.0252665008
C  C58  1  0.59040000  0.83500000  0.40170000  1.0 -0.0252665008
C  C59  1  0.40960000  0.16500000  0.40170000  1.0 -0.0252665008
C  C60  1  0.59040000  0.16500000  0.59830000  1.0 -0.0252665008
C  C61  1  0.40960000  0.59830000  0.16500000  1.0 -0.0252665008
C  C62  1  0.59040000  0.40170000  0.16500000  1.0 -0.0252665008
C  C63  1  0.40960000  0.40170000  0.83500000  1.0 -0.0252665008
C  C64  1  0.59040000  0.59830000  0.83500000  1.0 -0.0252665008
C  C65  1  0.59830000  0.83500000  0.59040000  1.0 -0.0252665008
C  C66  1  0.40170000  0.83500000  0.40960000  1.0 -0.0252665008
C  C67  1  0.40170000  0.16500000  0.59040000  1.0 -0.0252665008
C  C68  1  0.59830000  0.16500000  0.40960000  1.0 -0.0252665008
C  C69  1  0.83500000  0.40960000  0.40170000  1.0 -0.0252665008
C  C70  1  0.83500000  0.59040000  0.59830000  1.0 -0.0252665008
C  C71  1  0.16500000  0.40960000  0.59830000  1.0 -0.0252665008
C  C72  1  0.16500000  0.59040000  0.40170000  1.0 -0.0252665008
C  C73  1  0.62300000  0.39940000  0.87220000  1.0 -0.1643807738
C  C74  1  0.37700000  0.60060000  0.87220000  1.0 -0.1643807738
C  C75  1  0.37700000  0.39940000  0.12780000  1.0 -0.1643807738
C  C76  1  0.62300000  0.60060000  0.12780000  1.0 -0.1643807738
C  C77  1  0.87220000  0.62300000  0.39940000  1.0 -0.1643807738
C  C78  1  0.87220000  0.37700000  0.60060000  1.0 -0.1643807738
C  C79  1  0.12780000  0.37700000  0.39940000  1.0 -0.1643807738
C  C80  1  0.12780000  0.62300000  0.60060000  1.0 -0.1643807738
C  C81  1  0.39940000  0.87220000  0.62300000  1.0 -0.1643807738
C  C82  1  0.60060000  0.87220000  0.37700000  1.0 -0.1643807738
C  C83  1  0.39940000  0.12780000  0.37700000  1.0 -0.1643807738
C  C84  1  0.60060000  0.12780000  0.62300000  1.0 -0.1643807738
C  C85  1  0.39940000  0.62300000  0.12780000  1.0 -0.1643807738
C  C86  1  0.60060000  0.37700000  0.12780000  1.0 -0.1643807738
C  C87  1  0.39940000  0.37700000  0.87220000  1.0 -0.1643807738
C  C88  1  0.60060000  0.62300000  0.87220000  1.0 -0.1643807738
C  C89  1  0.62300000  0.87220000  0.60060000  1.0 -0.1643807738
C  C90  1  0.37700000  0.87220000  0.39940000  1.0 -0.1643807738
C  C91  1  0.37700000  0.12780000  0.60060000  1.0 -0.1643807738
C  C92  1  0.62300000  0.12780000  0.39940000  1.0 -0.1643807738
C  C93  1  0.87220000  0.39940000  0.37700000  1.0 -0.1643807738
C  C94  1  0.87220000  0.60060000  0.62300000  1.0 -0.1643807738
C  C95  1  0.12780000  0.39940000  0.62300000  1.0 -0.1643807738
C  C96  1  0.12780000  0.60060000  0.37700000  1.0 -0.1643807738
C  C97  1  0.66120000  0.37470000  0.86820000  1.0 0.0923430797
C  C98  1  0.33880000  0.62530000  0.86820000  1.0 0.0923430797
C  C99  1  0.33880000  0.37470000  0.13180000  1.0 0.0923430797
C  C100  1  0.66120000  0.62530000  0.13180000  1.0 0.0923430797
C  C101  1  0.86820000  0.66120000  0.37470000  1.0 0.0923430797
C  C102  1  0.86820000  0.33880000  0.62530000  1.0 0.0923430797
C  C103  1  0.13180000  0.33880000  0.37470000  1.0 0.0923430797
C  C104  1  0.13180000  0.66120000  0.62530000  1.0 0.0923430797
C  C105  1  0.37470000  0.86820000  0.66120000  1.0 0.0923430797
C  C106  1  0.62530000  0.86820000  0.33880000  1.0 0.0923430797
C  C107  1  0.37470000  0.13180000  0.33880000  1.0 0.0923430797
C  C108  1  0.62530000  0.13180000  0.66120000  1.0 0.0923430797
C  C109  1  0.37470000  0.66120000  0.13180000  1.0 0.0923430797
C  C110  1  0.62530000  0.33880000  0.13180000  1.0 0.0923430797
C  C111  1  0.37470000  0.33880000  0.86820000  1.0 0.0923430797
C  C112  1  0.62530000  0.66120000  0.86820000  1.0 0.0923430797
C  C113  1  0.66120000  0.86820000  0.62530000  1.0 0.0923430797
C  C114  1  0.33880000  0.86820000  0.37470000  1.0 0.0923430797
C  C115  1  0.33880000  0.13180000  0.62530000  1.0 0.0923430797
C  C116  1  0.66120000  0.13180000  0.37470000  1.0 0.0923430797
C  C117  1  0.86820000  0.37470000  0.33880000  1.0 0.0923430797
C  C118  1  0.86820000  0.62530000  0.66120000  1.0 0.0923430797
C  C119  1  0.13180000  0.37470000  0.66120000  1.0 0.0923430797
C  C120  1  0.13180000  0.62530000  0.33880000  1.0 0.0923430797
C  C121  1  0.67490000  0.36020000  0.82700000  1.0 -0.1249711413
C  C122  1  0.32510000  0.63980000  0.82700000  1.0 -0.1249711413
C  C123  1  0.32510000  0.36020000  0.17300000  1.0 -0.1249711413
C  C124  1  0.67490000  0.63980000  0.17300000  1.0 -0.1249711413
C  C125  1  0.82700000  0.67490000  0.36020000  1.0 -0.1249711413
C  C126  1  0.82700000  0.32510000  0.63980000  1.0 -0.1249711413
C  C127  1  0.17300000  0.32510000  0.36020000  1.0 -0.1249711413
C  C128  1  0.17300000  0.67490000  0.63980000  1.0 -0.1249711413
C  C129  1  0.36020000  0.82700000  0.67490000  1.0 -0.1249711413
C  C130  1  0.63980000  0.82700000  0.32510000  1.0 -0.1249711413
C  C131  1  0.36020000  0.17300000  0.32510000  1.0 -0.1249711413
C  C132  1  0.63980000  0.17300000  0.67490000  1.0 -0.1252446968
C  C133  1  0.36020000  0.67490000  0.17300000  1.0 -0.1249711413
C  C134  1  0.63980000  0.32510000  0.17300000  1.0 -0.1252446968
C  C135  1  0.36020000  0.32510000  0.82700000  1.0 -0.1249711413
C  C136  1  0.63980000  0.67490000  0.82700000  1.0 -0.1249711413
C  C137  1  0.67490000  0.82700000  0.63980000  1.0 -0.1249711413
C  C138  1  0.32510000  0.82700000  0.36020000  1.0 -0.1249711413
C  C139  1  0.32510000  0.17300000  0.63980000  1.0 -0.1252446968
C  C140  1  0.67490000  0.17300000  0.36020000  1.0 -0.1252446968
C  C141  1  0.82700000  0.36020000  0.32510000  1.0 -0.1249711413
C  C142  1  0.82700000  0.63980000  0.67490000  1.0 -0.1249711413
C  C143  1  0.17300000  0.36020000  0.67490000  1.0 -0.1252446968
C  C144  1  0.17300000  0.63980000  0.32510000  1.0 -0.1252446968
C  C145  1  0.65030000  0.37040000  0.78990000  1.0 0.0065662493
C  C146  1  0.34970000  0.62960000  0.78990000  1.0 0.0065662493
C  C147  1  0.34970000  0.37040000  0.21010000  1.0 0.0065662493
C  C148  1  0.65030000  0.62960000  0.21010000  1.0 0.0065662493
C  C149  1  0.78990000  0.65030000  0.37040000  1.0 0.0065662493
C  C150  1  0.78990000  0.34970000  0.62960000  1.0 0.0065662493
C  C151  1  0.21010000  0.34970000  0.37040000  1.0 0.0065662493
C  C152  1  0.21010000  0.65030000  0.62960000  1.0 0.0065662493
C  C153  1  0.37040000  0.78990000  0.65030000  1.0 0.0065662493
C  C154  1  0.62960000  0.78990000  0.34970000  1.0 0.0065662493
C  C155  1  0.37040000  0.21010000  0.34970000  1.0 0.0065662493
C  C156  1  0.62960000  0.21010000  0.65030000  1.0 0.0065662493
C  C157  1  0.37040000  0.65030000  0.21010000  1.0 0.0065662493
C  C158  1  0.62960000  0.34970000  0.21010000  1.0 0.0065662493
C  C159  1  0.37040000  0.34970000  0.78990000  1.0 0.0065662493
C  C160  1  0.62960000  0.65030000  0.78990000  1.0 0.0065662493
C  C161  1  0.65030000  0.78990000  0.62960000  1.0 0.0065662493
C  C162  1  0.34970000  0.78990000  0.37040000  1.0 0.0065662493
C  C163  1  0.34970000  0.21010000  0.62960000  1.0 0.0065662493
C  C164  1  0.65030000  0.21010000  0.37040000  1.0 0.0065662493
C  C165  1  0.78990000  0.37040000  0.34970000  1.0 0.0065662493
C  C166  1  0.78990000  0.62960000  0.65030000  1.0 0.0065662493
C  C167  1  0.21010000  0.37040000  0.65030000  1.0 0.0065662493
C  C168  1  0.21010000  0.62960000  0.34970000  1.0 0.0065662493
C  C169  1  0.66640000  0.35650000  0.74410000  1.0 0.5850160371
C  C170  1  0.33360000  0.64350000  0.74410000  1.0 0.5850160371
C  C171  1  0.33360000  0.35650000  0.25590000  1.0 0.5847718965
C  C172  1  0.66640000  0.64350000  0.25590000  1.0 0.5850160371
C  C173  1  0.74410000  0.66640000  0.35650000  1.0 0.5847718965
C  C174  1  0.74410000  0.33360000  0.64350000  1.0 0.5850160371
C  C175  1  0.25590000  0.33360000  0.35650000  1.0 0.5850160371
C  C176  1  0.25590000  0.66640000  0.64350000  1.0 0.5850160371
C  C177  1  0.35650000  0.74410000  0.66640000  1.0 0.5850160371
C  C178  1  0.64350000  0.74410000  0.33360000  1.0 0.5850160371
C  C179  1  0.35650000  0.25590000  0.33360000  1.0 0.5847718965
C  C180  1  0.64350000  0.25590000  0.66640000  1.0 0.5850160371
C  C181  1  0.35650000  0.66640000  0.25590000  1.0 0.5850160371
C  C182  1  0.64350000  0.33360000  0.25590000  1.0 0.5847718965
C  C183  1  0.35650000  0.33360000  0.74410000  1.0 0.5850160371
C  C184  1  0.64350000  0.66640000  0.74410000  1.0 0.5850160371
C  C185  1  0.66640000  0.74410000  0.64350000  1.0 0.5850160371
C  C186  1  0.33360000  0.74410000  0.35650000  1.0 0.5850160371
C  C187  1  0.33360000  0.25590000  0.64350000  1.0 0.5850160371
C  C188  1  0.66640000  0.25590000  0.35650000  1.0 0.5847718965
C  C189  1  0.74410000  0.35650000  0.33360000  1.0 0.5847718965
C  C190  1  0.74410000  0.64350000  0.66640000  1.0 0.5850160371
C  C191  1  0.25590000  0.35650000  0.66640000  1.0 0.5850160371
C  C192  1  0.25590000  0.64350000  0.33360000  1.0 0.5850160371
C  C193  1  0.75610000  0.35130000  0.94250000  1.0 0.0791154201
C  C194  1  0.24390000  0.64870000  0.94250000  1.0 0.0791154201
C  C195  1  0.24390000  0.35130000  0.05750000  1.0 0.0791154201
C  C196  1  0.75610000  0.64870000  0.05750000  1.0 0.0791154201
C  C197  1  0.94250000  0.75610000  0.35130000  1.0 0.0791154201
C  C198  1  0.94250000  0.24390000  0.64870000  1.0 0.0791154201
C  C199  1  0.05750000  0.24390000  0.35130000  1.0 0.0791154201
C  C200  1  0.05750000  0.75610000  0.64870000  1.0 0.0791154201
C  C201  1  0.35130000  0.94250000  0.75610000  1.0 0.0791154201
C  C202  1  0.64870000  0.94250000  0.24390000  1.0 0.0791154201
C  C203  1  0.35130000  0.05750000  0.24390000  1.0 0.0791154201
C  C204  1  0.64870000  0.05750000  0.75610000  1.0 0.0791154201
C  C205  1  0.35130000  0.75610000  0.05750000  1.0 0.0791154201
C  C206  1  0.64870000  0.24390000  0.05750000  1.0 0.0791154201
C  C207  1  0.35130000  0.24390000  0.94250000  1.0 0.0791154201
C  C208  1  0.64870000  0.75610000  0.94250000  1.0 0.0791154201
C  C209  1  0.75610000  0.94250000  0.64870000  1.0 0.0791154201
C  C210  1  0.24390000  0.94250000  0.35130000  1.0 0.0791154201
C  C211  1  0.24390000  0.05750000  0.64870000  1.0 0.0791154201
C  C212  1  0.75610000  0.05750000  0.35130000  1.0 0.0791154201
C  C213  1  0.94250000  0.35130000  0.24390000  1.0 0.0791154201
C  C214  1  0.94250000  0.64870000  0.75610000  1.0 0.0791154201
C  C215  1  0.05750000  0.35130000  0.75610000  1.0 0.0791154201
C  C216  1  0.05750000  0.64870000  0.24390000  1.0 0.0791154201
C  C217  1  0.73760000  0.33390000  0.98050000  1.0 0.0791154201
C  C218  1  0.26240000  0.66610000  0.98050000  1.0 0.0791154201
C  C219  1  0.26240000  0.33390000  0.01950000  1.0 0.0791154201
C  C220  1  0.73760000  0.66610000  0.01950000  1.0 0.0791154201
C  C221  1  0.98050000  0.73760000  0.33390000  1.0 0.0791154201
C  C222  1  0.98050000  0.26240000  0.66610000  1.0 0.0791154201
C  C223  1  0.01950000  0.26240000  0.33390000  1.0 0.0791154201
C  C224  1  0.01950000  0.73760000  0.66610000  1.0 0.0791154201
C  C225  1  0.33390000  0.98050000  0.73760000  1.0 0.0791154201
C  C226  1  0.66610000  0.98050000  0.26240000  1.0 0.0791154201
C  C227  1  0.33390000  0.01950000  0.26240000  1.0 0.0791154201
C  C228  1  0.66610000  0.01950000  0.73760000  1.0 0.0791154201
C  C229  1  0.33390000  0.73760000  0.01950000  1.0 0.0791154201
C  C230  1  0.66610000  0.26240000  0.01950000  1.0 0.0791154201
C  C231  1  0.33390000  0.26240000  0.98050000  1.0 0.0791154201
C  C232  1  0.66610000  0.73760000  0.98050000  1.0 0.0791154201
C  C233  1  0.73760000  0.98050000  0.66610000  1.0 0.0791154201
C  C234  1  0.26240000  0.98050000  0.33390000  1.0 0.0791154201
C  C235  1  0.26240000  0.01950000  0.66610000  1.0 0.0791154201
C  C236  1  0.73760000  0.01950000  0.33390000  1.0 0.0791154201
C  C237  1  0.98050000  0.33390000  0.26240000  1.0 0.0791154201
C  C238  1  0.98050000  0.66610000  0.73760000  1.0 0.0791154201
C  C239  1  0.01950000  0.33390000  0.73760000  1.0 0.0791154201
C  C240  1  0.01950000  0.66610000  0.26240000  1.0 0.0791154201
C  C241  1  0.69230000  0.32800000  0.98320000  1.0 -0.046287839
C  C242  1  0.30770000  0.67200000  0.98320000  1.0 -0.046287839
C  C243  1  0.30770000  0.32800000  0.01680000  1.0 -0.046287839
C  C244  1  0.69230000  0.67200000  0.01680000  1.0 -0.046287839
C  C245  1  0.98320000  0.69230000  0.32800000  1.0 -0.046287839
C  C246  1  0.98320000  0.30770000  0.67200000  1.0 -0.046287839
C  C247  1  0.01680000  0.30770000  0.32800000  1.0 -0.046287839
C  C248  1  0.01680000  0.69230000  0.67200000  1.0 -0.046287839
C  C249  1  0.32800000  0.98320000  0.69230000  1.0 -0.046287839
C  C250  1  0.67200000  0.98320000  0.30770000  1.0 -0.046287839
C  C251  1  0.32800000  0.01680000  0.30770000  1.0 -0.046287839
C  C252  1  0.67200000  0.01680000  0.69230000  1.0 -0.046287839
C  C253  1  0.32800000  0.69230000  0.01680000  1.0 -0.046287839
C  C254  1  0.67200000  0.30770000  0.01680000  1.0 -0.046287839
C  C255  1  0.32800000  0.30770000  0.98320000  1.0 -0.046287839
C  C256  1  0.67200000  0.69230000  0.98320000  1.0 -0.046287839
C  C257  1  0.69230000  0.98320000  0.67200000  1.0 -0.046287839
C  C258  1  0.30770000  0.98320000  0.32800000  1.0 -0.046287839
C  C259  1  0.30770000  0.01680000  0.67200000  1.0 -0.046287839
C  C260  1  0.69230000  0.01680000  0.32800000  1.0 -0.046287839
C  C261  1  0.98320000  0.32800000  0.30770000  1.0 -0.046287839
C  C262  1  0.98320000  0.67200000  0.69230000  1.0 -0.046287839
C  C263  1  0.01680000  0.32800000  0.69230000  1.0 -0.046287839
C  C264  1  0.01680000  0.67200000  0.30770000  1.0 -0.046287839
C  C265  1  0.68410000  0.35690000  0.91000000  1.0 -0.0648673225
C  C266  1  0.31590000  0.64310000  0.91000000  1.0 -0.0653042693
C  C267  1  0.31590000  0.35690000  0.09000000  1.0 -0.0648673225
C  C268  1  0.68410000  0.64310000  0.09000000  1.0 -0.0648673225
C  C269  1  0.91000000  0.68410000  0.35690000  1.0 -0.0653042693
C  C270  1  0.91000000  0.31590000  0.64310000  1.0 -0.0648673225
C  C271  1  0.09000000  0.31590000  0.35690000  1.0 -0.0648673225
C  C272  1  0.09000000  0.68410000  0.64310000  1.0 -0.0653042693
C  C273  1  0.35690000  0.91000000  0.68410000  1.0 -0.0653042693
C  C274  1  0.64310000  0.91000000  0.31590000  1.0 -0.0653042693
C  C275  1  0.35690000  0.09000000  0.31590000  1.0 -0.0648673225
C  C276  1  0.64310000  0.09000000  0.68410000  1.0 -0.0648673225
C  C277  1  0.35690000  0.68410000  0.09000000  1.0 -0.0648673225
C  C278  1  0.64310000  0.31590000  0.09000000  1.0 -0.0648673225
C  C279  1  0.35690000  0.31590000  0.91000000  1.0 -0.0648673225
C  C280  1  0.64310000  0.68410000  0.91000000  1.0 -0.0653042693
C  C281  1  0.68410000  0.91000000  0.64310000  1.0 -0.0653042693
C  C282  1  0.31590000  0.91000000  0.35690000  1.0 -0.0648673225
C  C283  1  0.31590000  0.09000000  0.64310000  1.0 -0.0648673225
C  C284  1  0.68410000  0.09000000  0.35690000  1.0 -0.0648673225
C  C285  1  0.91000000  0.35690000  0.31590000  1.0 -0.0648673225
C  C286  1  0.91000000  0.64310000  0.68410000  1.0 -0.0653042693
C  C287  1  0.09000000  0.35690000  0.68410000  1.0 -0.0648673225
C  C288  1  0.09000000  0.64310000  0.31590000  1.0 -0.0648673225
C  C289  1  0.72940000  0.36280000  0.90720000  1.0 -0.1673074016
C  C290  1  0.27060000  0.63720000  0.90720000  1.0 -0.1673074016
C  C291  1  0.27060000  0.36280000  0.09280000  1.0 -0.1673074016
C  C292  1  0.72940000  0.63720000  0.09280000  1.0 -0.1673074016
C  C293  1  0.90720000  0.72940000  0.36280000  1.0 -0.1673074016
C  C294  1  0.90720000  0.27060000  0.63720000  1.0 -0.1673074016
C  C295  1  0.09280000  0.27060000  0.36280000  1.0 -0.1673074016
C  C296  1  0.09280000  0.72940000  0.63720000  1.0 -0.1673074016
C  C297  1  0.36280000  0.90720000  0.72940000  1.0 -0.1673074016
C  C298  1  0.63720000  0.90720000  0.27060000  1.0 -0.1673074016
C  C299  1  0.36280000  0.09280000  0.27060000  1.0 -0.1673074016
C  C300  1  0.63720000  0.09280000  0.72940000  1.0 -0.1673074016
C  C301  1  0.36280000  0.72940000  0.09280000  1.0 -0.1673074016
C  C302  1  0.63720000  0.27060000  0.09280000  1.0 -0.1673074016
C  C303  1  0.36280000  0.27060000  0.90720000  1.0 -0.1673074016
C  C304  1  0.63720000  0.72940000  0.90720000  1.0 -0.1673074016
C  C305  1  0.72940000  0.90720000  0.63720000  1.0 -0.1673074016
C  C306  1  0.27060000  0.90720000  0.36280000  1.0 -0.1673074016
C  C307  1  0.27060000  0.09280000  0.63720000  1.0 -0.1673074016
C  C308  1  0.72940000  0.09280000  0.36280000  1.0 -0.1673074016
C  C309  1  0.90720000  0.36280000  0.27060000  1.0 -0.1673074016
C  C310  1  0.90720000  0.63720000  0.72940000  1.0 -0.1673074016
C  C311  1  0.09280000  0.36280000  0.72940000  1.0 -0.1673074016
C  C312  1  0.09280000  0.63720000  0.27060000  1.0 -0.1673074016
C  C313  1  0.80500000  0.35930000  0.93600000  1.0 -0.3881854849
C  C314  1  0.19500000  0.64070000  0.93600000  1.0 -0.3881854849
C  C315  1  0.19500000  0.35930000  0.06400000  1.0 -0.3881854849
C  C316  1  0.80500000  0.64070000  0.06400000  1.0 -0.3881854849
C  C317  1  0.93600000  0.80500000  0.35930000  1.0 -0.3881854849
C  C318  1  0.93600000  0.19500000  0.64070000  1.0 -0.3881854849
C  C319  1  0.06400000  0.19500000  0.35930000  1.0 -0.3881854849
C  C320  1  0.06400000  0.80500000  0.64070000  1.0 -0.3881854849
C  C321  1  0.35930000  0.93600000  0.80500000  1.0 -0.3881854849
C  C322  1  0.64070000  0.93600000  0.19500000  1.0 -0.3881854849
C  C323  1  0.35930000  0.06400000  0.19500000  1.0 -0.3881854849
C  C324  1  0.64070000  0.06400000  0.80500000  1.0 -0.3881854849
C  C325  1  0.35930000  0.80500000  0.06400000  1.0 -0.3881854849
C  C326  1  0.64070000  0.19500000  0.06400000  1.0 -0.3881854849
C  C327  1  0.35930000  0.19500000  0.93600000  1.0 -0.3881854849
C  C328  1  0.64070000  0.80500000  0.93600000  1.0 -0.3881854849
C  C329  1  0.80500000  0.93600000  0.64070000  1.0 -0.3881854849
C  C330  1  0.19500000  0.93600000  0.35930000  1.0 -0.3881854849
C  C331  1  0.19500000  0.06400000  0.64070000  1.0 -0.3881854849
C  C332  1  0.80500000  0.06400000  0.35930000  1.0 -0.3881854849
C  C333  1  0.93600000  0.35930000  0.19500000  1.0 -0.3881854849
C  C334  1  0.93600000  0.64070000  0.80500000  1.0 -0.3881854849
C  C335  1  0.06400000  0.35930000  0.80500000  1.0 -0.3881854849
C  C336  1  0.06400000  0.64070000  0.19500000  1.0 -0.3881854849
C  C337  1  0.76730000  0.32150000  0.01890000  1.0 -0.4130159467
C  C338  1  0.23270000  0.67850000  0.01890000  1.0 -0.4130159467
C  C339  1  0.23270000  0.32150000  0.98110000  1.0 -0.4130159467
C  C340  1  0.76730000  0.67850000  0.98110000  1.0 -0.4130159467
C  C341  1  0.01890000  0.76730000  0.32150000  1.0 -0.4130159467
C  C342  1  0.01890000  0.23270000  0.67850000  1.0 -0.4130159467
C  C343  1  0.98110000  0.23270000  0.32150000  1.0 -0.4130159467
C  C344  1  0.98110000  0.76730000  0.67850000  1.0 -0.4130159467
C  C345  1  0.32150000  0.01890000  0.76730000  1.0 -0.4130159467
C  C346  1  0.67850000  0.01890000  0.23270000  1.0 -0.4130159467
C  C347  1  0.32150000  0.98110000  0.23270000  1.0 -0.4130159467
C  C348  1  0.67850000  0.98110000  0.76730000  1.0 -0.4130159467
C  C349  1  0.32150000  0.76730000  0.98110000  1.0 -0.4130159467
C  C350  1  0.67850000  0.23270000  0.98110000  1.0 -0.4130159467
C  C351  1  0.32150000  0.23270000  0.01890000  1.0 -0.4130159467
C  C352  1  0.67850000  0.76730000  0.01890000  1.0 -0.4130159467
C  C353  1  0.76730000  0.01890000  0.67850000  1.0 -0.4130159467
C  C354  1  0.23270000  0.01890000  0.32150000  1.0 -0.4130159467
C  C355  1  0.23270000  0.98110000  0.67850000  1.0 -0.4130159467
C  C356  1  0.76730000  0.98110000  0.32150000  1.0 -0.4130159467
C  C357  1  0.01890000  0.32150000  0.23270000  1.0 -0.4130159467
C  C358  1  0.01890000  0.67850000  0.76730000  1.0 -0.4130159467
C  C359  1  0.98110000  0.32150000  0.76730000  1.0 -0.4130159467
C  C360  1  0.98110000  0.67850000  0.23270000  1.0 -0.4130159467
C  C361  1  0.66560000  0.33950000  0.94800000  0.5 0.1900921416
C  C362  1  0.33440000  0.66050000  0.94800000  0.5 0.1900921416
C  C363  1  0.33440000  0.33950000  0.05200000  0.5 0.1900921416
C  C364  1  0.66560000  0.66050000  0.05200000  0.5 0.1900921416
C  C365  1  0.94800000  0.66560000  0.33950000  0.5 0.1900921416
C  C366  1  0.94800000  0.33440000  0.66050000  0.5 0.1900921416
C  C367  1  0.05200000  0.33440000  0.33950000  0.5 0.1900921416
C  C368  1  0.05200000  0.66560000  0.66050000  0.5 0.1900921416
C  C369  1  0.33950000  0.94800000  0.66560000  0.5 0.1900921416
C  C370  1  0.66050000  0.94800000  0.33440000  0.5 0.1900921416
C  C371  1  0.33950000  0.05200000  0.33440000  0.5 0.1900921416
C  C372  1  0.66050000  0.05200000  0.66560000  0.5 0.1900921416
C  C373  1  0.33950000  0.66560000  0.05200000  0.5 0.1900921416
C  C374  1  0.66050000  0.33440000  0.05200000  0.5 0.1900921416
C  C375  1  0.33950000  0.33440000  0.94800000  0.5 0.1900921416
C  C376  1  0.66050000  0.66560000  0.94800000  0.5 0.1900921416
C  C377  1  0.66560000  0.94800000  0.66050000  0.5 0.1900921416
C  C378  1  0.33440000  0.94800000  0.33950000  0.5 0.1900921416
C  C379  1  0.33440000  0.05200000  0.66050000  0.5 0.1900921416
C  C380  1  0.66560000  0.05200000  0.33950000  0.5 0.1900921416
C  C381  1  0.94800000  0.33950000  0.33440000  0.5 0.1900921416
C  C382  1  0.94800000  0.66050000  0.66560000  0.5 0.1900921416
C  C383  1  0.05200000  0.33950000  0.66560000  0.5 0.1900921416
C  C384  1  0.05200000  0.66050000  0.33440000  0.5 0.1900921416
O  O1  1  0.54790000  0.45700000  0.87620000  1.0 -0.5427967847
O  O2  1  0.45210000  0.54300000  0.87620000  1.0 -0.5427967847
O  O3  1  0.45210000  0.45700000  0.12380000  1.0 -0.5427967847
O  O4  1  0.54790000  0.54300000  0.12380000  1.0 -0.5427967847
O  O5  1  0.87620000  0.54790000  0.45700000  1.0 -0.5427967847
O  O6  1  0.87620000  0.45210000  0.54300000  1.0 -0.5427967847
O  O7  1  0.12380000  0.45210000  0.45700000  1.0 -0.5427967847
O  O8  1  0.12380000  0.54790000  0.54300000  1.0 -0.5427967847
O  O9  1  0.45700000  0.87620000  0.54790000  1.0 -0.5427967847
O  O10  1  0.54300000  0.87620000  0.45210000  1.0 -0.5427967847
O  O11  1  0.45700000  0.12380000  0.45210000  1.0 -0.5427967847
O  O12  1  0.54300000  0.12380000  0.54790000  1.0 -0.5427967847
O  O13  1  0.45700000  0.54790000  0.12380000  1.0 -0.5427967847
O  O14  1  0.54300000  0.45210000  0.12380000  1.0 -0.5427967847
O  O15  1  0.45700000  0.45210000  0.87620000  1.0 -0.5427967847
O  O16  1  0.54300000  0.54790000  0.87620000  1.0 -0.5427967847
O  O17  1  0.54790000  0.87620000  0.54300000  1.0 -0.5427967847
O  O18  1  0.45210000  0.87620000  0.45700000  1.0 -0.5427967847
O  O19  1  0.45210000  0.12380000  0.54300000  1.0 -0.5427967847
O  O20  1  0.54790000  0.12380000  0.45700000  1.0 -0.5427967847
O  O21  1  0.87620000  0.45700000  0.45210000  1.0 -0.5427967847
O  O22  1  0.87620000  0.54300000  0.54790000  1.0 -0.5427967847
O  O23  1  0.12380000  0.45700000  0.54790000  1.0 -0.5427967847
O  O24  1  0.12380000  0.54300000  0.45210000  1.0 -0.5427967847
O  O25  1  0.50000000  0.50000000  0.94980000  1.0 0.0065662493
O  O26  1  0.50000000  0.50000000  0.05020000  1.0 0.0065662493
O  O27  1  0.94980000  0.50000000  0.50000000  1.0 0.0065662493
O  O28  1  0.05020000  0.50000000  0.50000000  1.0 0.0065662493
O  O29  1  0.50000000  0.94980000  0.50000000  1.0 0.0065662493
O  O30  1  0.50000000  0.05020000  0.50000000  1.0 0.0065662493
O  O31  1  0.54130000  0.44940000  0.80290000  1.0 -0.5427967847
O  O32  1  0.45870000  0.55060000  0.80290000  1.0 -0.5427967847
O  O33  1  0.45870000  0.44940000  0.19710000  1.0 -0.5427967847
O  O34  1  0.54130000  0.55060000  0.19710000  1.0 -0.5427967847
O  O35  1  0.80290000  0.54130000  0.44940000  1.0 -0.5427967847
O  O36  1  0.80290000  0.45870000  0.55060000  1.0 -0.5427967847
O  O37  1  0.19710000  0.45870000  0.44940000  1.0 -0.5427967847
O  O38  1  0.19710000  0.54130000  0.55060000  1.0 -0.5427967847
O  O39  1  0.44940000  0.80290000  0.54130000  1.0 -0.5427967847
O  O40  1  0.55060000  0.80290000  0.45870000  1.0 -0.5427967847
O  O41  1  0.44940000  0.19710000  0.45870000  1.0 -0.5427967847
O  O42  1  0.55060000  0.19710000  0.54130000  1.0 -0.5427967847
O  O43  1  0.44940000  0.54130000  0.19710000  1.0 -0.5427967847
O  O44  1  0.55060000  0.45870000  0.19710000  1.0 -0.5427967847
O  O45  1  0.44940000  0.45870000  0.80290000  1.0 -0.5427967847
O  O46  1  0.55060000  0.54130000  0.80290000  1.0 -0.5427967847
O  O47  1  0.54130000  0.80290000  0.55060000  1.0 -0.5427967847
O  O48  1  0.45870000  0.80290000  0.44940000  1.0 -0.5427967847
O  O49  1  0.45870000  0.19710000  0.55060000  1.0 -0.5427967847
O  O50  1  0.54130000  0.19710000  0.44940000  1.0 -0.5427967847
O  O51  1  0.80290000  0.44940000  0.45870000  1.0 -0.5427967847
O  O52  1  0.80290000  0.55060000  0.54130000  1.0 -0.5427967847
O  O53  1  0.19710000  0.44940000  0.54130000  1.0 -0.5427967847
O  O54  1  0.19710000  0.55060000  0.45870000  1.0 -0.5427967847
O  O55  1  0.63970000  0.36660000  0.71320000  1.0 -0.5285351027
O  O56  1  0.36030000  0.63340000  0.71320000  1.0 -0.5285351027
O  O57  1  0.36030000  0.36660000  0.28680000  1.0 -0.5285351027
O  O58  1  0.63970000  0.63340000  0.28680000  1.0 -0.5285351027
O  O59  1  0.71320000  0.63970000  0.36660000  1.0 -0.5285351027
O  O60  1  0.71320000  0.36030000  0.63340000  1.0 -0.5285351027
O  O61  1  0.28680000  0.36030000  0.36660000  1.0 -0.5285351027
O  O62  1  0.28680000  0.63970000  0.63340000  1.0 -0.5285351027
O  O63  1  0.36660000  0.71320000  0.63970000  1.0 -0.5285351027
O  O64  1  0.63340000  0.71320000  0.36030000  1.0 -0.5285351027
O  O65  1  0.36660000  0.28680000  0.36030000  1.0 -0.5285351027
O  O66  1  0.63340000  0.28680000  0.63970000  1.0 -0.5285351027
O  O67  1  0.36660000  0.63970000  0.28680000  1.0 -0.5285351027
O  O68  1  0.63340000  0.36030000  0.28680000  1.0 -0.5285351027
O  O69  1  0.36660000  0.36030000  0.71320000  1.0 -0.5285351027
O  O70  1  0.63340000  0.63970000  0.71320000  1.0 -0.5285351027
O  O71  1  0.63970000  0.71320000  0.63340000  1.0 -0.5285351027
O  O72  1  0.36030000  0.71320000  0.36660000  1.0 -0.5285351027
O  O73  1  0.36030000  0.28680000  0.63340000  1.0 -0.5285351027
O  O74  1  0.63970000  0.28680000  0.36660000  1.0 -0.5285351027
O  O75  1  0.71320000  0.36660000  0.36030000  1.0 -0.5285351027
O  O76  1  0.71320000  0.63340000  0.63970000  1.0 -0.5285351027
O  O77  1  0.28680000  0.36660000  0.63970000  1.0 -0.5285351027
O  O78  1  0.28680000  0.63340000  0.36030000  1.0 -0.5285351027
O  O79  1  0.50000000  0.50000000  0.72110000  1.0 -0.1955073226
O  O80  1  0.50000000  0.50000000  0.27890000  1.0 -0.1945376743
O  O81  1  0.72110000  0.50000000  0.50000000  1.0 -0.1945376743
O  O82  1  0.27890000  0.50000000  0.50000000  1.0 -0.1955073226
O  O83  1  0.50000000  0.72110000  0.50000000  1.0 -0.1945376743
O  O84  1  0.50000000  0.27890000  0.50000000  1.0 -0.1955073226
O  O85  1  0.70200000  0.33870000  0.74450000  1.0 -0.5427967847
O  O86  1  0.29800000  0.66130000  0.74450000  1.0 -0.5427967847
O  O87  1  0.29800000  0.33870000  0.25550000  1.0 -0.5427967847
O  O88  1  0.70200000  0.66130000  0.25550000  1.0 -0.5427967847
O  O89  1  0.74450000  0.70200000  0.33870000  1.0 -0.5427967847
O  O90  1  0.74450000  0.29800000  0.66130000  1.0 -0.5427967847
O  O91  1  0.25550000  0.29800000  0.33870000  1.0 -0.5427967847
O  O92  1  0.25550000  0.70200000  0.66130000  1.0 -0.5427967847
O  O93  1  0.33870000  0.74450000  0.70200000  1.0 -0.5427967847
O  O94  1  0.66130000  0.74450000  0.29800000  1.0 -0.5427967847
O  O95  1  0.33870000  0.25550000  0.29800000  1.0 -0.5427967847
O  O96  1  0.66130000  0.25550000  0.70200000  1.0 -0.5427967847
O  O97  1  0.33870000  0.70200000  0.25550000  1.0 -0.5427967847
O  O98  1  0.66130000  0.29800000  0.25550000  1.0 -0.5427967847
O  O99  1  0.33870000  0.29800000  0.74450000  1.0 -0.5427967847
O  O100  1  0.66130000  0.70200000  0.74450000  1.0 -0.5427967847
O  O101  1  0.70200000  0.74450000  0.66130000  1.0 -0.5427967847
O  O102  1  0.29800000  0.74450000  0.33870000  1.0 -0.5427967847
O  O103  1  0.29800000  0.25550000  0.66130000  1.0 -0.5427967847
O  O104  1  0.70200000  0.25550000  0.33870000  1.0 -0.5427967847
O  O105  1  0.74450000  0.33870000  0.29800000  1.0 -0.5427967847
O  O106  1  0.74450000  0.66130000  0.70200000  1.0 -0.5427967847
O  O107  1  0.25550000  0.33870000  0.70200000  1.0 -0.5427967847
O  O108  1  0.25550000  0.66130000  0.29800000  1.0 -0.5427967847
O  O109  1  0.61740000  0.38260000  0.61740000  1.0 -0.5147220243
O  O110  1  0.38260000  0.61740000  0.61740000  1.0 -0.5147220243
O  O111  1  0.38260000  0.38260000  0.38260000  1.0 -0.5156597842
O  O112  1  0.61740000  0.61740000  0.38260000  1.0 -0.5156597842
O  O113  1  0.38260000  0.61740000  0.38260000  1.0 -0.5156597842
O  O114  1  0.61740000  0.38260000  0.38260000  1.0 -0.5156597842
O  O115  1  0.38260000  0.38260000  0.61740000  1.0 -0.5147220243
O  O116  1  0.61740000  0.61740000  0.61740000  1.0 -0.5147220243
O  O117  1  0.62240000  0.33320000  0.94760000  1.0 -0.3561035891
O  O118  1  0.37760000  0.66680000  0.94760000  1.0 -0.3561035891
O  O119  1  0.37760000  0.33320000  0.05240000  1.0 -0.3561035891
O  O120  1  0.62240000  0.66680000  0.05240000  1.0 -0.3561035891
O  O121  1  0.94760000  0.62240000  0.33320000  1.0 -0.3561035891
O  O122  1  0.94760000  0.37760000  0.66680000  1.0 -0.3561035891
O  O123  1  0.05240000  0.37760000  0.33320000  1.0 -0.3561035891
O  O124  1  0.05240000  0.62240000  0.66680000  1.0 -0.3561035891
O  O125  1  0.33320000  0.94760000  0.62240000  1.0 -0.3561035891
O  O126  1  0.66680000  0.94760000  0.37760000  1.0 -0.3561035891
O  O127  1  0.33320000  0.05240000  0.37760000  1.0 -0.3561035891
O  O128  1  0.66680000  0.05240000  0.62240000  1.0 -0.3561035891
O  O129  1  0.33320000  0.62240000  0.05240000  1.0 -0.3561035891
O  O130  1  0.66680000  0.37760000  0.05240000  1.0 -0.3561035891
O  O131  1  0.33320000  0.37760000  0.94760000  1.0 -0.3561035891
O  O132  1  0.66680000  0.62240000  0.94760000  1.0 -0.3561035891
O  O133  1  0.62240000  0.94760000  0.66680000  1.0 -0.3561035891
O  O134  1  0.37760000  0.94760000  0.33320000  1.0 -0.3561035891
O  O135  1  0.37760000  0.05240000  0.66680000  1.0 -0.3561035891
O  O136  1  0.62240000  0.05240000  0.33320000  1.0 -0.3561035891
O  O137  1  0.94760000  0.33320000  0.37760000  1.0 -0.3561035891
O  O138  1  0.94760000  0.66680000  0.62240000  1.0 -0.3561035891
O  O139  1  0.05240000  0.33320000  0.62240000  1.0 -0.3561035891
O  O140  1  0.05240000  0.66680000  0.37760000  1.0 -0.3561035891
O  O141  1  0.78750000  0.29880000  0.75150000  1.0 -0.2876934917
O  O142  1  0.21250000  0.70120000  0.75150000  1.0 -0.2876934917
O  O143  1  0.21250000  0.29880000  0.24850000  1.0 -0.2876934917
O  O144  1  0.78750000  0.70120000  0.24850000  1.0 -0.2876934917
O  O145  1  0.75150000  0.78750000  0.29880000  1.0 -0.2876934917
O  O146  1  0.75150000  0.21250000  0.70120000  1.0 -0.2876934917
O  O147  1  0.24850000  0.21250000  0.29880000  1.0 -0.2876934917
O  O148  1  0.24850000  0.78750000  0.70120000  1.0 -0.2876934917
O  O149  1  0.29880000  0.75150000  0.78750000  1.0 -0.2876934917
O  O150  1  0.70120000  0.75150000  0.21250000  1.0 -0.2876934917
O  O151  1  0.29880000  0.24850000  0.21250000  1.0 -0.2876934917
O  O152  1  0.70120000  0.24850000  0.78750000  1.0 -0.2876934917
O  O153  1  0.29880000  0.78750000  0.24850000  1.0 -0.2876934917
O  O154  1  0.70120000  0.21250000  0.24850000  1.0 -0.2876934917
O  O155  1  0.29880000  0.21250000  0.75150000  1.0 -0.2876934917
O  O156  1  0.70120000  0.78750000  0.75150000  1.0 -0.2876934917
O  O157  1  0.78750000  0.75150000  0.70120000  1.0 -0.2876934917
O  O158  1  0.21250000  0.75150000  0.29880000  1.0 -0.2876934917
O  O159  1  0.21250000  0.24850000  0.70120000  1.0 -0.2876934917
O  O160  1  0.78750000  0.24850000  0.29880000  1.0 -0.2876934917
O  O161  1  0.75150000  0.29880000  0.21250000  1.0 -0.2876934917
O  O162  1  0.75150000  0.70120000  0.78750000  1.0 -0.2876934917
O  O163  1  0.24850000  0.29880000  0.78750000  1.0 -0.2876934917
O  O164  1  0.24850000  0.70120000  0.21250000  1.0 -0.2876934917
