# DDEC6 charges by PACMAN v1.1 (https://github.com/mtap-research/PACMAN-charge/)
data_c9ra03032h2_ion_pacman
_symmetry_space_group_name_H-M   'P 1'
_cell_length_a   14.52300000
_cell_length_b   22.38790000
_cell_length_c   24.70460000
_cell_angle_alpha   90.00000000
_cell_angle_beta   90.00000000
_cell_angle_gamma   90.00000000
_symmetry_Int_Tables_number   1
_chemical_formula_structural   Zn3H48C60(NO8)2
_chemical_formula_sum   'Zn12 H192 C240 N8 O64'
_cell_volume   8032.44059256
_cell_formula_units_Z   4
loop_
 _symmetry_equiv_pos_site_id
 _symmetry_equiv_pos_as_xyz
  1  'x, y, z'
loop_
 _atom_site_type_symbol
 _atom_site_label
 _atom_site_symmetry_multiplicity
 _atom_site_fract_x
 _atom_site_fract_y
 _atom_site_fract_z
 _atom_site_occupancy
 _atom_site_charge
Zn  Zn1  1  0.96362000  0.45093000  0.66026000  1.0 0.915719128
Zn  Zn2  1  0.00503000  0.28634000  0.65630000  1.0 1.0439298811
Zn  Zn3  1  0.04247000  0.12934000  0.65619000  1.0 0.8972212437
Zn  Zn4  1  0.53638000  0.45093000  0.16026000  1.0 0.915719128
Zn  Zn5  1  0.49497000  0.28634000  0.15630000  1.0 1.0439298811
Zn  Zn6  1  0.45753000  0.12934000  0.15619000  1.0 0.8972212437
Zn  Zn7  1  0.03638000  0.95093000  0.33974000  1.0 0.915719128
Zn  Zn8  1  0.99497000  0.78634000  0.34370000  1.0 1.0439298811
Zn  Zn9  1  0.95753000  0.62934000  0.34381000  1.0 0.8972212437
Zn  Zn10  1  0.46362000  0.95093000  0.83974000  1.0 0.915719128
Zn  Zn11  1  0.50503000  0.78634000  0.84370000  1.0 1.0439298811
Zn  Zn12  1  0.54247000  0.62934000  0.84381000  1.0 0.8972212437
H  H1  1  0.37007000  0.47643000  0.01834000  1.0 0.1195545701
H  H2  1  0.27965000  0.47094000  0.94260000  1.0 0.1195545701
H  H3  1  0.24296000  0.29480000  0.96536000  1.0 0.1195545701
H  H4  1  0.32213000  0.30199000  0.04506000  1.0 0.1294365179
H  H5  1  0.13887000  0.45774000  0.90252000  1.0 0.1117604686
H  H6  1  0.05622000  0.46113000  0.82256000  1.0 0.1294365179
H  H7  1  0.14801000  0.29365000  0.79253000  1.0 0.1195545701
H  H8  1  0.23055000  0.29718000  0.87193000  1.0 0.1117604686
H  H9  1  0.90872000  0.11074000  0.81220000  1.0 0.1195545701
H  H10  1  0.82647000  0.11628000  0.88859000  1.0 0.1117604686
H  H11  1  0.71522000  0.27351000  0.84075000  1.0 0.1117604686
H  H12  1  0.80063000  0.27002000  0.76109000  1.0 0.1195545701
H  H13  1  0.70674000  0.28532000  0.93361000  1.0 0.1117604686
H  H14  1  0.61253000  0.28632000  0.01362000  1.0 0.1195545701
H  H15  1  0.59883000  0.10772000  0.00752000  1.0 0.1117604686
H  H16  1  0.68676000  0.10627000  0.92741000  1.0 0.1195545701
H  H17  1  0.66401000  0.42705000  0.63345000  1.0 0.1117604686
H  H18  1  0.51948000  0.38634000  0.61930000  1.0 0.1195545701
H  H19  1  0.61859000  0.22031000  0.64700000  1.0 0.1117604686
H  H20  1  0.76837000  0.26175000  0.64399000  1.0 0.1294365179
H  H21  1  0.39314000  0.34876000  0.67419000  1.0 0.1294365179
H  H22  1  0.25405000  0.31422000  0.67991000  1.0 0.1393137041
H  H23  1  0.48449000  0.19261000  0.61675000  1.0 0.1195545701
H  H24  1  0.33183000  0.16395000  0.61202000  1.0 0.1294365179
H  H25  1  0.96649000  0.95477000  0.61564000  1.0 0.1117604686
H  H26  1  0.92716000  0.85051000  0.60903000  1.0 0.1117604686
H  H27  1  0.07341000  0.81746000  0.74132000  1.0 0.1117604686
H  H28  1  0.11320000  0.91622000  0.74822000  1.0 0.1195545701
H  H29  1  0.95466000  0.75876000  0.58326000  1.0 0.1117604686
H  H30  1  0.92864000  0.66130000  0.57269000  1.0 0.1117604686
H  H31  1  0.95445000  0.63630000  0.73308000  1.0 0.1195545701
H  H32  1  0.98777000  0.73343000  0.74298000  1.0 0.1117604686
H  H33  1  0.12993000  0.47643000  0.51834000  1.0 0.1195545701
H  H34  1  0.22035000  0.47094000  0.44260000  1.0 0.1195545701
H  H35  1  0.25704000  0.29480000  0.46536000  1.0 0.1195545701
H  H36  1  0.17787000  0.30199000  0.54506000  1.0 0.1294365179
H  H37  1  0.36113000  0.45774000  0.40252000  1.0 0.1117604686
H  H38  1  0.44378000  0.46113000  0.32256000  1.0 0.1294365179
H  H39  1  0.35199000  0.29365000  0.29253000  1.0 0.1195545701
H  H40  1  0.26945000  0.29718000  0.37193000  1.0 0.1117604686
H  H41  1  0.59128000  0.11074000  0.31220000  1.0 0.1195545701
H  H42  1  0.67353000  0.11628000  0.38859000  1.0 0.1117604686
H  H43  1  0.78478000  0.27351000  0.34075000  1.0 0.1117604686
H  H44  1  0.69937000  0.27002000  0.26109000  1.0 0.1195545701
H  H45  1  0.79326000  0.28532000  0.43361000  1.0 0.1117604686
H  H46  1  0.88747000  0.28632000  0.51362000  1.0 0.1195545701
H  H47  1  0.90117000  0.10772000  0.50752000  1.0 0.1117604686
H  H48  1  0.81324000  0.10627000  0.42741000  1.0 0.1195545701
H  H49  1  0.83599000  0.42705000  0.13345000  1.0 0.1117604686
H  H50  1  0.98052000  0.38634000  0.11930000  1.0 0.1195545701
H  H51  1  0.88141000  0.22031000  0.14700000  1.0 0.1117604686
H  H52  1  0.73163000  0.26175000  0.14399000  1.0 0.1294365179
H  H53  1  0.10686000  0.34876000  0.17419000  1.0 0.1294365179
H  H54  1  0.24595000  0.31422000  0.17991000  1.0 0.1393137041
H  H55  1  0.01551000  0.19261000  0.11675000  1.0 0.1195545701
H  H56  1  0.16817000  0.16395000  0.11202000  1.0 0.1294365179
H  H57  1  0.53351000  0.95477000  0.11564000  1.0 0.1117604686
H  H58  1  0.57284000  0.85051000  0.10903000  1.0 0.1117604686
H  H59  1  0.42659000  0.81746000  0.24132000  1.0 0.1117604686
H  H60  1  0.38680000  0.91622000  0.24822000  1.0 0.1195545701
H  H61  1  0.54534000  0.75876000  0.08326000  1.0 0.1117604686
H  H62  1  0.57136000  0.66130000  0.07269000  1.0 0.1117604686
H  H63  1  0.54555000  0.63630000  0.23308000  1.0 0.1195545701
H  H64  1  0.51223000  0.73343000  0.24298000  1.0 0.1117604686
H  H65  1  0.62993000  0.97643000  0.98166000  1.0 0.1195545701
H  H66  1  0.72035000  0.97094000  0.05740000  1.0 0.1195545701
H  H67  1  0.75704000  0.79480000  0.03464000  1.0 0.1195545701
H  H68  1  0.67787000  0.80199000  0.95494000  1.0 0.1294365179
H  H69  1  0.86113000  0.95774000  0.09748000  1.0 0.1117604686
H  H70  1  0.94378000  0.96113000  0.17744000  1.0 0.1294365179
H  H71  1  0.85199000  0.79365000  0.20747000  1.0 0.1195545701
H  H72  1  0.76945000  0.79718000  0.12807000  1.0 0.1117604686
H  H73  1  0.09128000  0.61074000  0.18780000  1.0 0.1195545701
H  H74  1  0.17353000  0.61628000  0.11141000  1.0 0.1117604686
H  H75  1  0.28478000  0.77351000  0.15925000  1.0 0.1117604686
H  H76  1  0.19937000  0.77002000  0.23891000  1.0 0.1195545701
H  H77  1  0.29326000  0.78532000  0.06639000  1.0 0.1117604686
H  H78  1  0.38747000  0.78632000  0.98638000  1.0 0.1195545701
H  H79  1  0.40117000  0.60772000  0.99248000  1.0 0.1117604686
H  H80  1  0.31324000  0.60627000  0.07259000  1.0 0.1195545701
H  H81  1  0.33599000  0.92705000  0.36655000  1.0 0.1117604686
H  H82  1  0.48052000  0.88634000  0.38070000  1.0 0.1195545701
H  H83  1  0.38141000  0.72031000  0.35300000  1.0 0.1117604686
H  H84  1  0.23163000  0.76175000  0.35601000  1.0 0.1294365179
H  H85  1  0.60686000  0.84876000  0.32581000  1.0 0.1294365179
H  H86  1  0.74595000  0.81422000  0.32009000  1.0 0.1393137041
H  H87  1  0.51551000  0.69261000  0.38325000  1.0 0.1195545701
H  H88  1  0.66817000  0.66395000  0.38798000  1.0 0.1294365179
H  H89  1  0.03351000  0.45477000  0.38436000  1.0 0.1117604686
H  H90  1  0.07284000  0.35051000  0.39097000  1.0 0.1117604686
H  H91  1  0.92659000  0.31746000  0.25868000  1.0 0.1117604686
H  H92  1  0.88680000  0.41622000  0.25178000  1.0 0.1195545701
H  H93  1  0.04534000  0.25876000  0.41674000  1.0 0.1195545701
H  H94  1  0.07136000  0.16130000  0.42731000  1.0 0.1117604686
H  H95  1  0.04555000  0.13630000  0.26692000  1.0 0.1195545701
H  H96  1  0.01223000  0.23343000  0.25702000  1.0 0.1117604686
H  H97  1  0.87007000  0.97643000  0.48166000  1.0 0.1195545701
H  H98  1  0.77965000  0.97094000  0.55740000  1.0 0.1195545701
H  H99  1  0.74296000  0.79480000  0.53464000  1.0 0.1195545701
H  H100  1  0.82213000  0.80199000  0.45494000  1.0 0.1294365179
H  H101  1  0.63887000  0.95774000  0.59748000  1.0 0.1117604686
H  H102  1  0.55622000  0.96113000  0.67744000  1.0 0.1294365179
H  H103  1  0.64801000  0.79365000  0.70747000  1.0 0.1195545701
H  H104  1  0.73055000  0.79718000  0.62807000  1.0 0.1117604686
H  H105  1  0.40872000  0.61074000  0.68780000  1.0 0.1195545701
H  H106  1  0.32647000  0.61628000  0.61141000  1.0 0.1117604686
H  H107  1  0.21522000  0.77351000  0.65925000  1.0 0.1117604686
H  H108  1  0.30063000  0.77002000  0.73891000  1.0 0.1195545701
H  H109  1  0.20674000  0.78532000  0.56639000  1.0 0.1117604686
H  H110  1  0.11253000  0.78632000  0.48638000  1.0 0.1195545701
H  H111  1  0.09883000  0.60772000  0.49248000  1.0 0.1117604686
H  H112  1  0.18676000  0.60627000  0.57259000  1.0 0.1195545701
H  H113  1  0.16401000  0.92705000  0.86655000  1.0 0.1117604686
H  H114  1  0.01948000  0.88634000  0.88070000  1.0 0.1195545701
H  H115  1  0.11859000  0.72031000  0.85300000  1.0 0.1117604686
H  H116  1  0.26837000  0.76175000  0.85601000  1.0 0.1294365179
H  H117  1  0.89314000  0.84876000  0.82581000  1.0 0.1294365179
H  H118  1  0.75405000  0.81422000  0.82009000  1.0 0.1393137041
H  H119  1  0.98449000  0.69261000  0.88325000  1.0 0.1195545701
H  H120  1  0.83183000  0.66395000  0.88798000  1.0 0.1294365179
H  H121  1  0.46649000  0.45477000  0.88436000  1.0 0.1117604686
H  H122  1  0.42716000  0.35051000  0.89097000  1.0 0.1117604686
H  H123  1  0.57341000  0.31746000  0.75868000  1.0 0.1117604686
H  H124  1  0.61320000  0.41622000  0.75178000  1.0 0.1195545701
H  H125  1  0.45466000  0.25876000  0.91674000  1.0 0.1195545701
H  H126  1  0.42864000  0.16130000  0.92731000  1.0 0.1117604686
H  H127  1  0.45445000  0.13630000  0.76692000  1.0 0.1195545701
H  H128  1  0.48777000  0.23343000  0.75702000  1.0 0.1117604686
H  H129  1  0.62282000  0.49225000  0.04578000  1.0 0.277276295
H  H130  1  0.70320000  0.48685000  0.01153000  1.0 0.2579592827
H  H131  1  0.58877000  0.49629000  0.93703000  1.0 0.1294365179
H  H132  1  0.53501000  0.53113000  0.98210000  1.0 0.1393137041
H  H133  1  0.63106000  0.55440000  0.96225000  1.0 0.1393137041
H  H134  1  0.65011000  0.39126000  0.02429000  1.0 0.1294365179
H  H135  1  0.55190000  0.41200000  0.00586000  1.0 0.1393137041
H  H136  1  0.63234000  0.40845000  0.96367000  1.0 0.1294365179
H  H137  1  0.40548000  0.13086000  0.32757000  1.0 0.2539674404
H  H138  1  0.38717000  0.08665000  0.28723000  1.0 0.277276295
H  H139  1  0.36754000  0.03245000  0.34753000  1.0 0.1294365179
H  H140  1  0.34987000  0.08597000  0.38711000  1.0 0.1195545701
H  H141  1  0.27032000  0.06278000  0.34971000  1.0 0.1393137041
H  H142  1  0.25522000  0.12876000  0.25981000  1.0 0.146001837
H  H143  1  0.24790000  0.16522000  0.31381000  1.0 0.1294365179
H  H144  1  0.32069000  0.18331000  0.26991000  1.0 0.1393137041
H  H145  1  0.37718000  0.99225000  0.95422000  1.0 0.277276295
H  H146  1  0.29680000  0.98685000  0.98847000  1.0 0.2579592827
H  H147  1  0.41123000  0.99629000  0.06297000  1.0 0.1294365179
H  H148  1  0.46499000  0.03113000  0.01790000  1.0 0.1393137041
H  H149  1  0.36894000  0.05440000  0.03775000  1.0 0.1393137041
H  H150  1  0.34989000  0.89126000  0.97571000  1.0 0.1294365179
H  H151  1  0.44810000  0.91200000  0.99414000  1.0 0.1393137041
H  H152  1  0.36766000  0.90845000  0.03633000  1.0 0.1294365179
H  H153  1  0.59452000  0.63086000  0.67243000  1.0 0.2539674404
H  H154  1  0.61283000  0.58665000  0.71277000  1.0 0.277276295
H  H155  1  0.63246000  0.53245000  0.65247000  1.0 0.1294365179
H  H156  1  0.65013000  0.58597000  0.61289000  1.0 0.1195545701
H  H157  1  0.72968000  0.56278000  0.65029000  1.0 0.1393137041
H  H158  1  0.74478000  0.62876000  0.74019000  1.0 0.146001837
H  H159  1  0.75210000  0.66522000  0.68619000  1.0 0.1294365179
H  H160  1  0.67931000  0.68331000  0.73009000  1.0 0.1393137041
H  H161  1  0.87718000  0.49225000  0.54578000  1.0 0.277276295
H  H162  1  0.79680000  0.48685000  0.51153000  1.0 0.2579592827
H  H163  1  0.91123000  0.49629000  0.43703000  1.0 0.1294365179
H  H164  1  0.96499000  0.53113000  0.48210000  1.0 0.1393137041
H  H165  1  0.86894000  0.55440000  0.46225000  1.0 0.1393137041
H  H166  1  0.84989000  0.39126000  0.52429000  1.0 0.1294365179
H  H167  1  0.94810000  0.41200000  0.50586000  1.0 0.1393137041
H  H168  1  0.86766000  0.40845000  0.46367000  1.0 0.1294365179
H  H169  1  0.09452000  0.13086000  0.82757000  1.0 0.2539674404
H  H170  1  0.11283000  0.08665000  0.78723000  1.0 0.277276295
H  H171  1  0.13246000  0.03245000  0.84753000  1.0 0.1294365179
H  H172  1  0.15013000  0.08597000  0.88711000  1.0 0.1195545701
H  H173  1  0.22968000  0.06278000  0.84971000  1.0 0.1393137041
H  H174  1  0.24478000  0.12876000  0.75981000  1.0 0.146001837
H  H175  1  0.25210000  0.16522000  0.81381000  1.0 0.1294365179
H  H176  1  0.17931000  0.18331000  0.76991000  1.0 0.1393137041
H  H177  1  0.12282000  0.99225000  0.45422000  1.0 0.277276295
H  H178  1  0.20320000  0.98685000  0.48847000  1.0 0.2579592827
H  H179  1  0.08877000  0.99629000  0.56297000  1.0 0.1294365179
H  H180  1  0.03501000  0.03113000  0.51790000  1.0 0.1393137041
H  H181  1  0.13106000  0.05440000  0.53775000  1.0 0.1393137041
H  H182  1  0.15011000  0.89126000  0.47571000  1.0 0.1294365179
H  H183  1  0.05190000  0.91200000  0.49414000  1.0 0.1393137041
H  H184  1  0.13234000  0.90845000  0.53633000  1.0 0.1294365179
H  H185  1  0.90548000  0.63086000  0.17243000  1.0 0.2539674404
H  H186  1  0.88717000  0.58665000  0.21277000  1.0 0.277276295
H  H187  1  0.86754000  0.53245000  0.15247000  1.0 0.1294365179
H  H188  1  0.84987000  0.58597000  0.11289000  1.0 0.1195545701
H  H189  1  0.77032000  0.56278000  0.15029000  1.0 0.1393137041
H  H190  1  0.75522000  0.62876000  0.24019000  1.0 0.146001837
H  H191  1  0.74790000  0.66522000  0.18619000  1.0 0.1294365179
H  H192  1  0.82069000  0.68331000  0.23009000  1.0 0.1393137041
C  C1  1  0.41310000  0.38840000  0.08860000  1.0 0.5797953271
C  C2  1  0.35970000  0.38750000  0.03750000  1.0 -0.0432315555
C  C3  1  0.34440000  0.44030000  0.00760000  1.0 -0.0985184198
C  C4  1  0.29100000  0.43640000  0.96250000  1.0 -0.1581253352
C  C5  1  0.25190000  0.38190000  0.94470000  1.0 0.0788384851
C  C6  1  0.26700000  0.33140000  0.97610000  1.0 -0.1501753056
C  C7  1  0.31700000  0.33530000  0.02280000  1.0 -0.0985184198
C  C8  1  0.19840000  0.37780000  0.89290000  1.0 0.0603646028
C  C9  1  0.14180000  0.42540000  0.87900000  1.0 -0.1501753056
C  C10  1  0.08980000  0.42750000  0.83250000  1.0 -0.0985184198
C  C11  1  0.09130000  0.37350000  0.80000000  1.0 -0.0097422912
C  C12  1  0.14500000  0.32750000  0.81430000  1.0 -0.0985184198
C  C13  1  0.19620000  0.33040000  0.86180000  1.0 -0.1413574118
C  C14  1  0.03510000  0.37540000  0.74720000  1.0 0.5983364943
C  C15  1  0.92760000  0.18690000  0.72850000  1.0 0.5677827361
C  C16  1  0.86920000  0.19200000  0.77900000  1.0 -0.0097422912
C  C17  1  0.87150000  0.14380000  0.81840000  1.0 -0.1098422396
C  C18  1  0.82150000  0.14650000  0.86290000  1.0 -0.1413574118
C  C19  1  0.75860000  0.19620000  0.87240000  1.0 0.0788384851
C  C20  1  0.75420000  0.24130000  0.83450000  1.0 -0.1581253352
C  C21  1  0.80660000  0.24010000  0.78690000  1.0 -0.1098422396
C  C22  1  0.70010000  0.19540000  0.92250000  1.0 0.0788384851
C  C23  1  0.68290000  0.25000000  0.94760000  1.0 -0.1581253352
C  C24  1  0.62620000  0.25030000  0.99670000  1.0 -0.0896130812
C  C25  1  0.59250000  0.19710000  0.01830000  1.0 -0.060964828
C  C26  1  0.61780000  0.14370000  0.99250000  1.0 -0.0896130812
C  C27  1  0.67160000  0.14230000  0.94390000  1.0 -0.1581253352
C  C28  1  0.53970000  0.19700000  0.06850000  1.0 0.5797953271
C  C29  1  0.82590000  0.37470000  0.64050000  1.0 0.5797953271
C  C30  1  0.73020000  0.34570000  0.63740000  1.0 -0.0294196706
C  C31  1  0.65510000  0.38590000  0.63300000  1.0 -0.1246287685
C  C32  1  0.56850000  0.36140000  0.62800000  1.0 -0.1581253352
C  C33  1  0.55160000  0.30050000  0.63570000  1.0 0.0667684551
C  C34  1  0.62730000  0.26110000  0.64230000  1.0 -0.1581253352
C  C35  1  0.71740000  0.28670000  0.64150000  1.0 -0.0806255278
C  C36  1  0.45520000  0.27590000  0.63840000  1.0 0.0603646028
C  C37  1  0.38110000  0.31030000  0.66190000  1.0 -0.1246287685
C  C38  1  0.30010000  0.28950000  0.66640000  1.0 -0.0896130812
C  C39  1  0.27710000  0.22990000  0.65160000  1.0 -0.0294196706
C  C40  1  0.43750000  0.21890000  0.62620000  1.0 -0.1413574118
C  C41  1  0.34600000  0.20030000  0.62830000  1.0 -0.1098422396
C  C42  1  0.18090000  0.20860000  0.65700000  1.0 0.5677827361
C  C43  1  0.06350000  0.01030000  0.69000000  1.0 0.5641417864
C  C44  1  0.04150000  0.94390000  0.68400000  1.0 -0.0179639987
C  C45  1  0.98800000  0.92710000  0.64070000  1.0 -0.1098422396
C  C46  1  0.96650000  0.86370000  0.63620000  1.0 -0.1581253352
C  C47  1  0.00350000  0.82370000  0.67140000  1.0 0.0667684551
C  C48  1  0.05380000  0.84430000  0.71500000  1.0 -0.1501753056
C  C49  1  0.07540000  0.90350000  0.72010000  1.0 -0.0896130812
C  C50  1  0.97550000  0.76160000  0.66300000  1.0 0.0854039032
C  C51  1  0.95720000  0.73470000  0.61390000  1.0 -0.1694340226
C  C52  1  0.94270000  0.67440000  0.60750000  1.0 -0.060964828
C  C53  1  0.94720000  0.62660000  0.65170000  1.0 -0.1328868654
C  C54  1  0.95880000  0.65880000  0.70150000  1.0 -0.060964828
C  C55  1  0.97570000  0.71920000  0.70830000  1.0 -0.1694340226
C  C56  1  0.94350000  0.57030000  0.63760000  1.0 0.4918598596
C  C57  1  0.08690000  0.38840000  0.58860000  1.0 0.5797953271
C  C58  1  0.14030000  0.38750000  0.53750000  1.0 -0.0432315555
C  C59  1  0.15560000  0.44030000  0.50760000  1.0 -0.0985184198
C  C60  1  0.20900000  0.43640000  0.46250000  1.0 -0.1581253352
C  C61  1  0.24810000  0.38190000  0.44470000  1.0 0.0788384851
C  C62  1  0.23300000  0.33140000  0.47610000  1.0 -0.1501753056
C  C63  1  0.18300000  0.33530000  0.52280000  1.0 -0.0985184198
C  C64  1  0.30160000  0.37780000  0.39290000  1.0 0.0603646028
C  C65  1  0.35820000  0.42540000  0.37900000  1.0 -0.1501753056
C  C66  1  0.41020000  0.42750000  0.33250000  1.0 -0.0985184198
C  C67  1  0.40870000  0.37350000  0.30000000  1.0 -0.0097422912
C  C68  1  0.35500000  0.32750000  0.31430000  1.0 -0.0985184198
C  C69  1  0.30380000  0.33040000  0.36180000  1.0 -0.1413574118
C  C70  1  0.46490000  0.37540000  0.24720000  1.0 0.5983364943
C  C71  1  0.57240000  0.18690000  0.22850000  1.0 0.5677827361
C  C72  1  0.63080000  0.19200000  0.27900000  1.0 -0.0097422912
C  C73  1  0.62850000  0.14380000  0.31840000  1.0 -0.1098422396
C  C74  1  0.67850000  0.14650000  0.36290000  1.0 -0.1413574118
C  C75  1  0.74140000  0.19620000  0.37240000  1.0 0.0788384851
C  C76  1  0.74580000  0.24130000  0.33450000  1.0 -0.1581253352
C  C77  1  0.69340000  0.24010000  0.28690000  1.0 -0.1098422396
C  C78  1  0.79990000  0.19540000  0.42250000  1.0 0.0788384851
C  C79  1  0.81710000  0.25000000  0.44760000  1.0 -0.1581253352
C  C80  1  0.87380000  0.25030000  0.49670000  1.0 -0.0896130812
C  C81  1  0.90750000  0.19710000  0.51830000  1.0 -0.060964828
C  C82  1  0.88220000  0.14370000  0.49250000  1.0 -0.0896130812
C  C83  1  0.82840000  0.14230000  0.44390000  1.0 -0.1581253352
C  C84  1  0.96030000  0.19700000  0.56850000  1.0 0.5797953271
C  C85  1  0.67410000  0.37470000  0.14050000  1.0 0.5797953271
C  C86  1  0.76980000  0.34570000  0.13740000  1.0 -0.0294196706
C  C87  1  0.84490000  0.38590000  0.13300000  1.0 -0.1246287685
C  C88  1  0.93150000  0.36140000  0.12800000  1.0 -0.1581253352
C  C89  1  0.94840000  0.30050000  0.13570000  1.0 0.0667684551
C  C90  1  0.87270000  0.26110000  0.14230000  1.0 -0.1581253352
C  C91  1  0.78260000  0.28670000  0.14150000  1.0 -0.0806255278
C  C92  1  0.04480000  0.27590000  0.13840000  1.0 0.0603646028
C  C93  1  0.11890000  0.31030000  0.16190000  1.0 -0.1246287685
C  C94  1  0.19990000  0.28950000  0.16640000  1.0 -0.0896130812
C  C95  1  0.22290000  0.22990000  0.15160000  1.0 -0.0294196706
C  C96  1  0.06250000  0.21890000  0.12620000  1.0 -0.1413574118
C  C97  1  0.15400000  0.20030000  0.12830000  1.0 -0.1098422396
C  C98  1  0.31910000  0.20860000  0.15700000  1.0 0.5677827361
C  C99  1  0.43650000  0.01030000  0.19000000  1.0 0.5641417864
C  C100  1  0.45850000  0.94390000  0.18400000  1.0 -0.0179639987
C  C101  1  0.51200000  0.92710000  0.14070000  1.0 -0.1098422396
C  C102  1  0.53350000  0.86370000  0.13620000  1.0 -0.1581253352
C  C103  1  0.49650000  0.82370000  0.17140000  1.0 0.0667684551
C  C104  1  0.44620000  0.84430000  0.21500000  1.0 -0.1501753056
C  C105  1  0.42460000  0.90350000  0.22010000  1.0 -0.0896130812
C  C106  1  0.52450000  0.76160000  0.16300000  1.0 0.0854039032
C  C107  1  0.54280000  0.73470000  0.11390000  1.0 -0.1694340226
C  C108  1  0.55730000  0.67440000  0.10750000  1.0 -0.060964828
C  C109  1  0.55280000  0.62660000  0.15170000  1.0 -0.1328868654
C  C110  1  0.54120000  0.65880000  0.20150000  1.0 -0.060964828
C  C111  1  0.52430000  0.71920000  0.20830000  1.0 -0.1694340226
C  C112  1  0.55650000  0.57030000  0.13760000  1.0 0.4918598596
C  C113  1  0.58690000  0.88840000  0.91140000  1.0 0.5797953271
C  C114  1  0.64030000  0.88750000  0.96250000  1.0 -0.0432315555
C  C115  1  0.65560000  0.94030000  0.99240000  1.0 -0.0985184198
C  C116  1  0.70900000  0.93640000  0.03750000  1.0 -0.1581253352
C  C117  1  0.74810000  0.88190000  0.05530000  1.0 0.0788384851
C  C118  1  0.73300000  0.83140000  0.02390000  1.0 -0.1501753056
C  C119  1  0.68300000  0.83530000  0.97720000  1.0 -0.0985184198
C  C120  1  0.80160000  0.87780000  0.10710000  1.0 0.0603646028
C  C121  1  0.85820000  0.92540000  0.12100000  1.0 -0.1501753056
C  C122  1  0.91020000  0.92750000  0.16750000  1.0 -0.0985184198
C  C123  1  0.90870000  0.87350000  0.20000000  1.0 -0.0097422912
C  C124  1  0.85500000  0.82750000  0.18570000  1.0 -0.0985184198
C  C125  1  0.80380000  0.83040000  0.13820000  1.0 -0.1413574118
C  C126  1  0.96490000  0.87540000  0.25280000  1.0 0.5983364943
C  C127  1  0.07240000  0.68690000  0.27150000  1.0 0.5677827361
C  C128  1  0.13080000  0.69200000  0.22100000  1.0 -0.0097422912
C  C129  1  0.12850000  0.64380000  0.18160000  1.0 -0.1098422396
C  C130  1  0.17850000  0.64650000  0.13710000  1.0 -0.1413574118
C  C131  1  0.24140000  0.69620000  0.12760000  1.0 0.0788384851
C  C132  1  0.24580000  0.74130000  0.16550000  1.0 -0.1581253352
C  C133  1  0.19340000  0.74010000  0.21310000  1.0 -0.1098422396
C  C134  1  0.29990000  0.69540000  0.07750000  1.0 0.0788384851
C  C135  1  0.31710000  0.75000000  0.05240000  1.0 -0.1581253352
C  C136  1  0.37380000  0.75030000  0.00330000  1.0 -0.0896130812
C  C137  1  0.40750000  0.69710000  0.98170000  1.0 -0.060964828
C  C138  1  0.38220000  0.64370000  0.00750000  1.0 -0.0896130812
C  C139  1  0.32840000  0.64230000  0.05610000  1.0 -0.1581253352
C  C140  1  0.46030000  0.69700000  0.93150000  1.0 0.5797953271
C  C141  1  0.17410000  0.87470000  0.35950000  1.0 0.5797953271
C  C142  1  0.26980000  0.84570000  0.36260000  1.0 -0.0294196706
C  C143  1  0.34490000  0.88590000  0.36700000  1.0 -0.1246287685
C  C144  1  0.43150000  0.86140000  0.37200000  1.0 -0.1581253352
C  C145  1  0.44840000  0.80050000  0.36430000  1.0 0.0667684551
C  C146  1  0.37270000  0.76110000  0.35770000  1.0 -0.1694340226
C  C147  1  0.28260000  0.78670000  0.35850000  1.0 -0.0806255278
C  C148  1  0.54480000  0.77590000  0.36160000  1.0 0.0603646028
C  C149  1  0.61890000  0.81030000  0.33810000  1.0 -0.1246287685
C  C150  1  0.69990000  0.78950000  0.33360000  1.0 -0.0896130812
C  C151  1  0.72290000  0.72990000  0.34840000  1.0 -0.0294196706
C  C152  1  0.56250000  0.71890000  0.37380000  1.0 -0.1413574118
C  C153  1  0.65400000  0.70030000  0.37170000  1.0 -0.1098422396
C  C154  1  0.81910000  0.70860000  0.34300000  1.0 0.5677827361
C  C155  1  0.93650000  0.51030000  0.31000000  1.0 0.5641417864
C  C156  1  0.95850000  0.44390000  0.31600000  1.0 -0.0179639987
C  C157  1  0.01200000  0.42710000  0.35930000  1.0 -0.1098422396
C  C158  1  0.03350000  0.36370000  0.36380000  1.0 -0.1581253352
C  C159  1  0.99650000  0.32370000  0.32860000  1.0 0.0667684551
C  C160  1  0.94620000  0.34430000  0.28500000  1.0 -0.1501753056
C  C161  1  0.92460000  0.40350000  0.27990000  1.0 -0.0896130812
C  C162  1  0.02450000  0.26160000  0.33700000  1.0 0.0854039032
C  C163  1  0.04280000  0.23470000  0.38610000  1.0 -0.1694340226
C  C164  1  0.05730000  0.17440000  0.39250000  1.0 -0.060964828
C  C165  1  0.05280000  0.12660000  0.34830000  1.0 -0.1328868654
C  C166  1  0.04120000  0.15880000  0.29850000  1.0 -0.060964828
C  C167  1  0.02430000  0.21920000  0.29170000  1.0 -0.1694340226
C  C168  1  0.05650000  0.07030000  0.36240000  1.0 0.4918598596
C  C169  1  0.91310000  0.88840000  0.41140000  1.0 0.5797953271
C  C170  1  0.85970000  0.88750000  0.46250000  1.0 -0.0432315555
C  C171  1  0.84440000  0.94030000  0.49240000  1.0 -0.0985184198
C  C172  1  0.79100000  0.93640000  0.53750000  1.0 -0.1581253352
C  C173  1  0.75190000  0.88190000  0.55530000  1.0 0.0788384851
C  C174  1  0.76700000  0.83140000  0.52390000  1.0 -0.1501753056
C  C175  1  0.81700000  0.83530000  0.47720000  1.0 -0.0985184198
C  C176  1  0.69840000  0.87780000  0.60710000  1.0 0.0603646028
C  C177  1  0.64180000  0.92540000  0.62100000  1.0 -0.1501753056
C  C178  1  0.58980000  0.92750000  0.66750000  1.0 -0.0985184198
C  C179  1  0.59130000  0.87350000  0.70000000  1.0 -0.0097422912
C  C180  1  0.64500000  0.82750000  0.68570000  1.0 -0.0985184198
C  C181  1  0.69620000  0.83040000  0.63820000  1.0 -0.1413574118
C  C182  1  0.53510000  0.87540000  0.75280000  1.0 0.5983364943
C  C183  1  0.42760000  0.68690000  0.77150000  1.0 0.5677827361
C  C184  1  0.36920000  0.69200000  0.72100000  1.0 -0.0097422912
C  C185  1  0.37150000  0.64380000  0.68160000  1.0 -0.1098422396
C  C186  1  0.32150000  0.64650000  0.63710000  1.0 -0.1413574118
C  C187  1  0.25860000  0.69620000  0.62760000  1.0 0.0788384851
C  C188  1  0.25420000  0.74130000  0.66550000  1.0 -0.1581253352
C  C189  1  0.30660000  0.74010000  0.71310000  1.0 -0.1098422396
C  C190  1  0.20010000  0.69540000  0.57750000  1.0 0.0788384851
C  C191  1  0.18290000  0.75000000  0.55240000  1.0 -0.1581253352
C  C192  1  0.12620000  0.75030000  0.50330000  1.0 -0.0896130812
C  C193  1  0.09250000  0.69710000  0.48170000  1.0 -0.060964828
C  C194  1  0.11780000  0.64370000  0.50750000  1.0 -0.0896130812
C  C195  1  0.17160000  0.64230000  0.55610000  1.0 -0.1581253352
C  C196  1  0.03970000  0.69700000  0.43150000  1.0 0.5797953271
C  C197  1  0.32590000  0.87470000  0.85950000  1.0 0.5797953271
C  C198  1  0.23020000  0.84570000  0.86260000  1.0 -0.0294196706
C  C199  1  0.15510000  0.88590000  0.86700000  1.0 -0.1246287685
C  C200  1  0.06850000  0.86140000  0.87200000  1.0 -0.1581253352
C  C201  1  0.05160000  0.80050000  0.86430000  1.0 0.0667684551
C  C202  1  0.12730000  0.76110000  0.85770000  1.0 -0.1694340226
C  C203  1  0.21740000  0.78670000  0.85850000  1.0 -0.0806255278
C  C204  1  0.95520000  0.77590000  0.86160000  1.0 0.0603646028
C  C205  1  0.88110000  0.81030000  0.83810000  1.0 -0.1246287685
C  C206  1  0.80010000  0.78950000  0.83360000  1.0 -0.0896130812
C  C207  1  0.77710000  0.72990000  0.84840000  1.0 -0.0294196706
C  C208  1  0.93750000  0.71890000  0.87380000  1.0 -0.1413574118
C  C209  1  0.84600000  0.70030000  0.87170000  1.0 -0.1098422396
C  C210  1  0.68090000  0.70860000  0.84300000  1.0 0.5677827361
C  C211  1  0.56350000  0.51030000  0.81000000  1.0 0.5641417864
C  C212  1  0.54150000  0.44390000  0.81600000  1.0 -0.0179639987
C  C213  1  0.48800000  0.42710000  0.85930000  1.0 -0.1098422396
C  C214  1  0.46650000  0.36370000  0.86380000  1.0 -0.1581253352
C  C215  1  0.50350000  0.32370000  0.82860000  1.0 0.0667684551
C  C216  1  0.55380000  0.34430000  0.78500000  1.0 -0.1501753056
C  C217  1  0.57540000  0.40350000  0.77990000  1.0 -0.0896130812
C  C218  1  0.47550000  0.26160000  0.83700000  1.0 0.0854039032
C  C219  1  0.45720000  0.23470000  0.88610000  1.0 -0.1694340226
C  C220  1  0.44270000  0.17440000  0.89250000  1.0 -0.060964828
C  C221  1  0.44720000  0.12660000  0.84830000  1.0 -0.1328868654
C  C222  1  0.45880000  0.15880000  0.79850000  1.0 -0.060964828
C  C223  1  0.47570000  0.21920000  0.79170000  1.0 -0.1694340226
C  C224  1  0.44350000  0.07030000  0.86240000  1.0 0.4918598596
C  C225  1  0.59500000  0.51940000  0.96960000  1.0 -0.3021434781
C  C226  1  0.61680000  0.41750000  0.00060000  1.0 -0.3130817351
C  C227  1  0.33540000  0.06960000  0.35220000  1.0 -0.2447621759
C  C228  1  0.28940000  0.15040000  0.28670000  1.0 -0.3326796826
C  C229  1  0.40500000  0.01940000  0.03040000  1.0 -0.3021434781
C  C230  1  0.38320000  0.91750000  0.99940000  1.0 -0.3130817351
C  C231  1  0.66460000  0.56960000  0.64780000  1.0 -0.2447621759
C  C232  1  0.71060000  0.65040000  0.71330000  1.0 -0.3326796826
C  C233  1  0.90500000  0.51940000  0.46960000  1.0 -0.3021434781
C  C234  1  0.88320000  0.41750000  0.50060000  1.0 -0.3130817351
C  C235  1  0.16460000  0.06960000  0.85220000  1.0 -0.2447621759
C  C236  1  0.21060000  0.15040000  0.78670000  1.0 -0.3326796826
C  C237  1  0.09500000  0.01940000  0.53040000  1.0 -0.3021434781
C  C238  1  0.11680000  0.91750000  0.49940000  1.0 -0.3130817351
C  C239  1  0.83540000  0.56960000  0.14780000  1.0 -0.2447621759
C  C240  1  0.78940000  0.65040000  0.21330000  1.0 -0.3326796826
N  N1  1  0.64240000  0.48190000  0.01300000  1.0 -0.0896130812
N  N2  1  0.36140000  0.10800000  0.31360000  1.0 -0.0806255278
N  N3  1  0.35760000  0.98190000  0.98700000  1.0 -0.0896130812
N  N4  1  0.63860000  0.60800000  0.68640000  1.0 -0.0806255278
N  N5  1  0.85760000  0.48190000  0.51300000  1.0 -0.0896130812
N  N6  1  0.13860000  0.10800000  0.81360000  1.0 -0.0806255278
N  N7  1  0.14240000  0.98190000  0.48700000  1.0 -0.0896130812
N  N8  1  0.86140000  0.60800000  0.18640000  1.0 -0.0806255278
O  O1  1  0.45930000  0.43960000  0.09530000  1.0 -0.5980468032
O  O2  1  0.40790000  0.34990000  0.12350000  1.0 -0.5275041298
O  O3  1  0.02110000  0.42660000  0.72740000  1.0 -0.5387311813
O  O4  1  0.00860000  0.32490000  0.73150000  1.0 -0.5490194993
O  O5  1  0.89140000  0.33510000  0.63030000  1.0 -0.6226239439
O  O6  1  0.83460000  0.43000000  0.65250000  1.0 -0.5624759656
O  O7  1  0.91390000  0.22660000  0.69300000  1.0 -0.5696498987
O  O8  1  0.98240000  0.14680000  0.72620000  1.0 -0.5207298559
O  O9  1  0.50420000  0.24370000  0.08270000  1.0 -0.5275041298
O  O10  1  0.53100000  0.14660000  0.09190000  1.0 -0.5490194993
O  O11  1  0.12120000  0.23890000  0.67890000  1.0 -0.5387311813
O  O12  1  0.16830000  0.15490000  0.64410000  1.0 -0.5207298559
O  O13  1  0.03550000  0.04560000  0.65150000  1.0 -0.5624759656
O  O14  1  0.10040000  0.02880000  0.73140000  1.0 -0.5490194993
O  O15  1  0.91030000  0.55390000  0.59510000  1.0 -0.5275041298
O  O16  1  0.95870000  0.53770000  0.67900000  1.0 -0.498078936
O  O17  1  0.04070000  0.43960000  0.59530000  1.0 -0.5980468032
O  O18  1  0.09210000  0.34990000  0.62350000  1.0 -0.5275041298
O  O19  1  0.47890000  0.42660000  0.22740000  1.0 -0.5387311813
O  O20  1  0.49140000  0.32490000  0.23150000  1.0 -0.5490194993
O  O21  1  0.60860000  0.33510000  0.13030000  1.0 -0.6226239439
O  O22  1  0.66540000  0.43000000  0.15250000  1.0 -0.5624759656
O  O23  1  0.58610000  0.22660000  0.19300000  1.0 -0.5696498987
O  O24  1  0.51760000  0.14680000  0.22620000  1.0 -0.5207298559
O  O25  1  0.99580000  0.24370000  0.58270000  1.0 -0.5275041298
O  O26  1  0.96900000  0.14660000  0.59190000  1.0 -0.5490194993
O  O27  1  0.37880000  0.23890000  0.17890000  1.0 -0.5387311813
O  O28  1  0.33170000  0.15490000  0.14410000  1.0 -0.5207298559
O  O29  1  0.46450000  0.04560000  0.15150000  1.0 -0.5624759656
O  O30  1  0.39960000  0.02880000  0.23140000  1.0 -0.5490194993
O  O31  1  0.58970000  0.55390000  0.09510000  1.0 -0.5275041298
O  O32  1  0.54130000  0.53770000  0.17900000  1.0 -0.498078936
O  O33  1  0.54070000  0.93960000  0.90470000  1.0 -0.5980468032
O  O34  1  0.59210000  0.84990000  0.87650000  1.0 -0.5275041298
O  O35  1  0.97890000  0.92660000  0.27260000  1.0 -0.5387311813
O  O36  1  0.99140000  0.82490000  0.26850000  1.0 -0.5490194993
O  O37  1  0.10860000  0.83510000  0.36970000  1.0 -0.6226239439
O  O38  1  0.16540000  0.93000000  0.34750000  1.0 -0.5624759656
O  O39  1  0.08610000  0.72660000  0.30700000  1.0 -0.5696498987
O  O40  1  0.01760000  0.64680000  0.27380000  1.0 -0.5207298559
O  O41  1  0.49580000  0.74370000  0.91730000  1.0 -0.5275041298
O  O42  1  0.46900000  0.64660000  0.90810000  1.0 -0.5490194993
O  O43  1  0.87880000  0.73890000  0.32110000  1.0 -0.5387311813
O  O44  1  0.83170000  0.65490000  0.35590000  1.0 -0.5207298559
O  O45  1  0.96450000  0.54560000  0.34850000  1.0 -0.5624759656
O  O46  1  0.89960000  0.52880000  0.26860000  1.0 -0.5490194993
O  O47  1  0.08970000  0.05390000  0.40490000  1.0 -0.5275041298
O  O48  1  0.04130000  0.03770000  0.32100000  1.0 -0.498078936
O  O49  1  0.95930000  0.93960000  0.40470000  1.0 -0.5980468032
O  O50  1  0.90790000  0.84990000  0.37650000  1.0 -0.5275041298
O  O51  1  0.52110000  0.92660000  0.77260000  1.0 -0.5387311813
O  O52  1  0.50860000  0.82490000  0.76850000  1.0 -0.5490194993
O  O53  1  0.39140000  0.83510000  0.86970000  1.0 -0.6226239439
O  O54  1  0.33460000  0.93000000  0.84750000  1.0 -0.5624759656
O  O55  1  0.41390000  0.72660000  0.80700000  1.0 -0.5696498987
O  O56  1  0.48240000  0.64680000  0.77380000  1.0 -0.5207298559
O  O57  1  0.00420000  0.74370000  0.41730000  1.0 -0.5275041298
O  O58  1  0.03100000  0.64660000  0.40810000  1.0 -0.5490194993
O  O59  1  0.62120000  0.73890000  0.82110000  1.0 -0.5387311813
O  O60  1  0.66830000  0.65490000  0.85590000  1.0 -0.5207298559
O  O61  1  0.53550000  0.54560000  0.84850000  1.0 -0.5624759656
O  O62  1  0.60040000  0.52880000  0.76860000  1.0 -0.5490194993
O  O63  1  0.41030000  0.05390000  0.90490000  1.0 -0.5275041298
O  O64  1  0.45870000  0.03770000  0.82100000  1.0 -0.498078936
