# DDEC6 charges by PACMAN v1.1 (https://github.com/mtap-research/PACMAN-charge/)
data_cg100226u_si_003_ion_pacman
_symmetry_space_group_name_H-M   'P 1'
_cell_length_a   31.32680000
_cell_length_b   31.32680000
_cell_length_c   31.32680000
_cell_angle_alpha   90.00000000
_cell_angle_beta   90.00000000
_cell_angle_gamma   90.00000000
_symmetry_Int_Tables_number   1
_chemical_formula_structural   ZnB2H30C38(N2F)8
_chemical_formula_sum   'Zn24 B48 H720 C912 N384 F192'
_cell_volume   30743.13153798
_cell_formula_units_Z   24
loop_
 _symmetry_equiv_pos_site_id
 _symmetry_equiv_pos_as_xyz
  1  'x, y, z'
loop_
 _atom_site_type_symbol
 _atom_site_label
 _atom_site_symmetry_multiplicity
 _atom_site_fract_x
 _atom_site_fract_y
 _atom_site_fract_z
 _atom_site_occupancy
 _atom_site_charge
Zn  Zn1  1  0.00000000  0.75000000  0.12500000  1.0 0.6671731543
Zn  Zn2  1  0.50000000  0.25000000  0.62500000  1.0 0.6671731543
Zn  Zn3  1  0.00000000  0.25000000  0.37500000  1.0 0.6671731543
Zn  Zn4  1  0.50000000  0.75000000  0.87500000  1.0 0.6671731543
Zn  Zn5  1  0.12500000  0.00000000  0.75000000  1.0 0.6671731543
Zn  Zn6  1  0.62500000  0.50000000  0.25000000  1.0 0.6671731543
Zn  Zn7  1  0.37500000  0.00000000  0.25000000  1.0 0.6671731543
Zn  Zn8  1  0.87500000  0.50000000  0.75000000  1.0 0.6671731543
Zn  Zn9  1  0.75000000  0.12500000  0.00000000  1.0 0.6671731543
Zn  Zn10  1  0.25000000  0.62500000  0.50000000  1.0 0.6671731543
Zn  Zn11  1  0.25000000  0.37500000  0.00000000  1.0 0.6671731543
Zn  Zn12  1  0.75000000  0.87500000  0.50000000  1.0 0.6671731543
Zn  Zn13  1  0.50000000  0.25000000  0.12500000  1.0 0.6671731543
Zn  Zn14  1  0.00000000  0.75000000  0.62500000  1.0 0.6671731543
Zn  Zn15  1  0.00000000  0.25000000  0.87500000  1.0 0.6671731543
Zn  Zn16  1  0.50000000  0.75000000  0.37500000  1.0 0.6671731543
Zn  Zn17  1  0.75000000  0.37500000  0.50000000  1.0 0.6671731543
Zn  Zn18  1  0.25000000  0.87500000  0.00000000  1.0 0.6671731543
Zn  Zn19  1  0.75000000  0.62500000  0.00000000  1.0 0.6671731543
Zn  Zn20  1  0.25000000  0.12500000  0.50000000  1.0 0.6671731543
Zn  Zn21  1  0.87500000  0.00000000  0.25000000  1.0 0.6671731543
Zn  Zn22  1  0.37500000  0.50000000  0.75000000  1.0 0.6671731543
Zn  Zn23  1  0.12500000  0.50000000  0.25000000  1.0 0.6671731543
Zn  Zn24  1  0.62500000  0.00000000  0.75000000  1.0 0.6671731543
B  B1  1  0.31357000  0.87500000  0.43643000  1.0 1.0411867596
B  B2  1  0.81357000  0.62500000  0.56357000  1.0 1.0411867596
B  B3  1  0.68643000  0.37500000  0.06357000  1.0 1.0411867596
B  B4  1  0.18643000  0.12500000  0.93643000  1.0 1.0411867596
B  B5  1  0.56357000  0.81357000  0.62500000  1.0 1.0411867596
B  B6  1  0.43643000  0.31357000  0.87500000  1.0 1.0411867596
B  B7  1  0.93643000  0.18643000  0.12500000  1.0 1.0411867596
B  B8  1  0.06357000  0.68643000  0.37500000  1.0 1.0411867596
B  B9  1  0.37500000  0.06357000  0.68643000  1.0 1.0411867596
B  B10  1  0.12500000  0.93643000  0.18643000  1.0 1.0411867596
B  B11  1  0.87500000  0.43643000  0.31357000  1.0 1.0411867596
B  B12  1  0.62500000  0.56357000  0.81357000  1.0 1.0411867596
B  B13  1  0.12500000  0.06357000  0.31357000  1.0 1.0411867596
B  B14  1  0.87500000  0.56357000  0.18643000  1.0 1.0411867596
B  B15  1  0.62500000  0.43643000  0.68643000  1.0 1.0411867596
B  B16  1  0.37500000  0.93643000  0.81357000  1.0 1.0411867596
B  B17  1  0.06357000  0.31357000  0.12500000  1.0 1.0411867596
B  B18  1  0.56357000  0.18643000  0.87500000  1.0 1.0411867596
B  B19  1  0.43643000  0.68643000  0.62500000  1.0 1.0411867596
B  B20  1  0.93643000  0.81357000  0.37500000  1.0 1.0411867596
B  B21  1  0.31357000  0.12500000  0.06357000  1.0 1.0411867596
B  B22  1  0.18643000  0.87500000  0.56357000  1.0 1.0411867596
B  B23  1  0.68643000  0.62500000  0.43643000  1.0 1.0411867596
B  B24  1  0.81357000  0.37500000  0.93643000  1.0 1.0411867596
B  B25  1  0.68643000  0.12500000  0.56357000  1.0 1.0411867596
B  B26  1  0.18643000  0.37500000  0.43643000  1.0 1.0411867596
B  B27  1  0.31357000  0.62500000  0.93643000  1.0 1.0411867596
B  B28  1  0.81357000  0.87500000  0.06357000  1.0 1.0411867596
B  B29  1  0.43643000  0.18643000  0.37500000  1.0 1.0411867596
B  B30  1  0.56357000  0.68643000  0.12500000  1.0 1.0411867596
B  B31  1  0.06357000  0.81357000  0.87500000  1.0 1.0411867596
B  B32  1  0.93643000  0.31357000  0.62500000  1.0 1.0411867596
B  B33  1  0.62500000  0.93643000  0.31357000  1.0 1.0411867596
B  B34  1  0.87500000  0.06357000  0.81357000  1.0 1.0411867596
B  B35  1  0.12500000  0.56357000  0.68643000  1.0 1.0411867596
B  B36  1  0.37500000  0.43643000  0.18643000  1.0 1.0411867596
B  B37  1  0.87500000  0.93643000  0.68643000  1.0 1.0411867596
B  B38  1  0.12500000  0.43643000  0.81357000  1.0 1.0411867596
B  B39  1  0.37500000  0.56357000  0.31357000  1.0 1.0411867596
B  B40  1  0.62500000  0.06357000  0.18643000  1.0 1.0411867596
B  B41  1  0.93643000  0.68643000  0.87500000  1.0 1.0411867596
B  B42  1  0.43643000  0.81357000  0.12500000  1.0 1.0411867596
B  B43  1  0.56357000  0.31357000  0.37500000  1.0 1.0411867596
B  B44  1  0.06357000  0.18643000  0.62500000  1.0 1.0411867596
B  B45  1  0.68643000  0.87500000  0.93643000  1.0 1.0411867596
B  B46  1  0.81357000  0.12500000  0.43643000  1.0 1.0411867596
B  B47  1  0.31357000  0.37500000  0.56357000  1.0 1.0411867596
B  B48  1  0.18643000  0.62500000  0.06357000  1.0 1.0411867596
H  H1  1  0.15000000  0.71380000  0.08110000  1.0 0.1377002147
H  H2  1  0.35000000  0.28620000  0.58110000  1.0 0.1377002147
H  H3  1  0.85000000  0.21380000  0.41890000  1.0 0.1377002147
H  H4  1  0.65000000  0.78620000  0.91890000  1.0 0.1377002147
H  H5  1  0.08110000  0.15000000  0.71380000  1.0 0.1377002147
H  H6  1  0.58110000  0.35000000  0.28620000  1.0 0.1377002147
H  H7  1  0.41890000  0.85000000  0.21380000  1.0 0.1377002147
H  H8  1  0.91890000  0.65000000  0.78620000  1.0 0.1377002147
H  H9  1  0.71380000  0.08110000  0.15000000  1.0 0.1377002147
H  H10  1  0.28620000  0.58110000  0.35000000  1.0 0.1377002147
H  H11  1  0.21380000  0.41890000  0.85000000  1.0 0.1377002147
H  H12  1  0.78620000  0.91890000  0.65000000  1.0 0.1377002147
H  H13  1  0.46380000  0.40000000  0.16890000  1.0 0.1377002147
H  H14  1  0.03620000  0.60000000  0.66890000  1.0 0.1377002147
H  H15  1  0.96380000  0.10000000  0.83110000  1.0 0.1377002147
H  H16  1  0.53620000  0.90000000  0.33110000  1.0 0.1377002147
H  H17  1  0.90000000  0.33110000  0.53620000  1.0 0.1377002147
H  H18  1  0.10000000  0.83110000  0.96380000  1.0 0.1377002147
H  H19  1  0.60000000  0.66890000  0.03620000  1.0 0.1377002147
H  H20  1  0.40000000  0.16890000  0.46380000  1.0 0.1377002147
H  H21  1  0.83110000  0.96380000  0.10000000  1.0 0.1377002147
H  H22  1  0.33110000  0.53620000  0.90000000  1.0 0.1377002147
H  H23  1  0.16890000  0.46380000  0.40000000  1.0 0.1377002147
H  H24  1  0.66890000  0.03620000  0.60000000  1.0 0.1377002147
H  H25  1  0.65000000  0.21380000  0.58110000  1.0 0.1377002147
H  H26  1  0.85000000  0.78620000  0.08110000  1.0 0.1377002147
H  H27  1  0.35000000  0.71380000  0.91890000  1.0 0.1377002147
H  H28  1  0.15000000  0.28620000  0.41890000  1.0 0.1377002147
H  H29  1  0.58110000  0.65000000  0.21380000  1.0 0.1377002147
H  H30  1  0.08110000  0.85000000  0.78620000  1.0 0.1377002147
H  H31  1  0.91890000  0.35000000  0.71380000  1.0 0.1377002147
H  H32  1  0.41890000  0.15000000  0.28620000  1.0 0.1377002147
H  H33  1  0.21380000  0.58110000  0.65000000  1.0 0.1377002147
H  H34  1  0.78620000  0.08110000  0.85000000  1.0 0.1377002147
H  H35  1  0.71380000  0.91890000  0.35000000  1.0 0.1377002147
H  H36  1  0.28620000  0.41890000  0.15000000  1.0 0.1377002147
H  H37  1  0.96380000  0.90000000  0.66890000  1.0 0.1377002147
H  H38  1  0.53620000  0.10000000  0.16890000  1.0 0.1377002147
H  H39  1  0.46380000  0.60000000  0.33110000  1.0 0.1377002147
H  H40  1  0.03620000  0.40000000  0.83110000  1.0 0.1377002147
H  H41  1  0.40000000  0.83110000  0.03620000  1.0 0.1377002147
H  H42  1  0.60000000  0.33110000  0.46380000  1.0 0.1377002147
H  H43  1  0.10000000  0.16890000  0.53620000  1.0 0.1377002147
H  H44  1  0.90000000  0.66890000  0.96380000  1.0 0.1377002147
H  H45  1  0.33110000  0.46380000  0.60000000  1.0 0.1377002147
H  H46  1  0.83110000  0.03620000  0.40000000  1.0 0.1377002147
H  H47  1  0.66890000  0.96380000  0.90000000  1.0 0.1377002147
H  H48  1  0.16890000  0.53620000  0.10000000  1.0 0.1377002147
H  H49  1  0.85000000  0.28620000  0.91890000  1.0 0.1377002147
H  H50  1  0.65000000  0.71380000  0.41890000  1.0 0.1377002147
H  H51  1  0.15000000  0.78620000  0.58110000  1.0 0.1377002147
H  H52  1  0.35000000  0.21380000  0.08110000  1.0 0.1377002147
H  H53  1  0.91890000  0.85000000  0.28620000  1.0 0.1377002147
H  H54  1  0.41890000  0.65000000  0.71380000  1.0 0.1377002147
H  H55  1  0.58110000  0.15000000  0.78620000  1.0 0.1377002147
H  H56  1  0.08110000  0.35000000  0.21380000  1.0 0.1377002147
H  H57  1  0.28620000  0.91890000  0.85000000  1.0 0.1377002147
H  H58  1  0.71380000  0.41890000  0.65000000  1.0 0.1377002147
H  H59  1  0.78620000  0.58110000  0.15000000  1.0 0.1377002147
H  H60  1  0.21380000  0.08110000  0.35000000  1.0 0.1377002147
H  H61  1  0.53620000  0.60000000  0.83110000  1.0 0.1377002147
H  H62  1  0.96380000  0.40000000  0.33110000  1.0 0.1377002147
H  H63  1  0.03620000  0.90000000  0.16890000  1.0 0.1377002147
H  H64  1  0.46380000  0.10000000  0.66890000  1.0 0.1377002147
H  H65  1  0.10000000  0.66890000  0.46380000  1.0 0.1377002147
H  H66  1  0.90000000  0.16890000  0.03620000  1.0 0.1377002147
H  H67  1  0.40000000  0.33110000  0.96380000  1.0 0.1377002147
H  H68  1  0.60000000  0.83110000  0.53620000  1.0 0.1377002147
H  H69  1  0.16890000  0.03620000  0.90000000  1.0 0.1377002147
H  H70  1  0.66890000  0.46380000  0.10000000  1.0 0.1377002147
H  H71  1  0.83110000  0.53620000  0.60000000  1.0 0.1377002147
H  H72  1  0.33110000  0.96380000  0.40000000  1.0 0.1377002147
H  H73  1  0.35000000  0.78620000  0.41890000  1.0 0.1377002147
H  H74  1  0.15000000  0.21380000  0.91890000  1.0 0.1377002147
H  H75  1  0.65000000  0.28620000  0.08110000  1.0 0.1377002147
H  H76  1  0.85000000  0.71380000  0.58110000  1.0 0.1377002147
H  H77  1  0.41890000  0.35000000  0.78620000  1.0 0.1377002147
H  H78  1  0.91890000  0.15000000  0.21380000  1.0 0.1377002147
H  H79  1  0.08110000  0.65000000  0.28620000  1.0 0.1377002147
H  H80  1  0.58110000  0.85000000  0.71380000  1.0 0.1377002147
H  H81  1  0.78620000  0.41890000  0.35000000  1.0 0.1377002147
H  H82  1  0.21380000  0.91890000  0.15000000  1.0 0.1377002147
H  H83  1  0.28620000  0.08110000  0.65000000  1.0 0.1377002147
H  H84  1  0.71380000  0.58110000  0.85000000  1.0 0.1377002147
H  H85  1  0.03620000  0.10000000  0.33110000  1.0 0.1377002147
H  H86  1  0.46380000  0.90000000  0.83110000  1.0 0.1377002147
H  H87  1  0.53620000  0.40000000  0.66890000  1.0 0.1377002147
H  H88  1  0.96380000  0.60000000  0.16890000  1.0 0.1377002147
H  H89  1  0.60000000  0.16890000  0.96380000  1.0 0.1377002147
H  H90  1  0.40000000  0.66890000  0.53620000  1.0 0.1377002147
H  H91  1  0.90000000  0.83110000  0.46380000  1.0 0.1377002147
H  H92  1  0.10000000  0.33110000  0.03620000  1.0 0.1377002147
H  H93  1  0.66890000  0.53620000  0.40000000  1.0 0.1377002147
H  H94  1  0.16890000  0.96380000  0.60000000  1.0 0.1377002147
H  H95  1  0.33110000  0.03620000  0.10000000  1.0 0.1377002147
H  H96  1  0.83110000  0.46380000  0.90000000  1.0 0.1377002147
H  H97  1  0.00830000  0.79280000  0.95490000  1.0 0.1284745643
H  H98  1  0.49170000  0.20720000  0.45490000  1.0 0.1284745643
H  H99  1  0.99170000  0.29280000  0.54510000  1.0 0.1284745643
H  H100  1  0.50830000  0.70720000  0.04510000  1.0 0.1284745643
H  H101  1  0.95490000  0.00830000  0.79280000  1.0 0.1284745643
H  H102  1  0.45490000  0.49170000  0.20720000  1.0 0.1284745643
H  H103  1  0.54510000  0.99170000  0.29280000  1.0 0.1284745643
H  H104  1  0.04510000  0.50830000  0.70720000  1.0 0.1284745643
H  H105  1  0.79280000  0.95490000  0.00830000  1.0 0.1284745643
H  H106  1  0.20720000  0.45490000  0.49170000  1.0 0.1284745643
H  H107  1  0.29280000  0.54510000  0.99170000  1.0 0.1284745643
H  H108  1  0.70720000  0.04510000  0.50830000  1.0 0.1284745643
H  H109  1  0.54280000  0.25830000  0.29510000  1.0 0.1284745643
H  H110  1  0.95720000  0.74170000  0.79510000  1.0 0.1284745643
H  H111  1  0.04280000  0.24170000  0.70490000  1.0 0.1284745643
H  H112  1  0.45720000  0.75830000  0.20490000  1.0 0.1284745643
H  H113  1  0.75830000  0.20490000  0.45720000  1.0 0.1284745643
H  H114  1  0.24170000  0.70490000  0.04280000  1.0 0.1284745643
H  H115  1  0.74170000  0.79510000  0.95720000  1.0 0.1284745643
H  H116  1  0.25830000  0.29510000  0.54280000  1.0 0.1284745643
H  H117  1  0.70490000  0.04280000  0.24170000  1.0 0.1284745643
H  H118  1  0.20490000  0.45720000  0.75830000  1.0 0.1284745643
H  H119  1  0.29510000  0.54280000  0.25830000  1.0 0.1284745643
H  H120  1  0.79510000  0.95720000  0.74170000  1.0 0.1284745643
H  H121  1  0.50830000  0.29280000  0.45490000  1.0 0.1284745643
H  H122  1  0.99170000  0.70720000  0.95490000  1.0 0.1284745643
H  H123  1  0.49170000  0.79280000  0.04510000  1.0 0.1284745643
H  H124  1  0.00830000  0.20720000  0.54510000  1.0 0.1284745643
H  H125  1  0.45490000  0.50830000  0.29280000  1.0 0.1284745643
H  H126  1  0.95490000  0.99170000  0.70720000  1.0 0.1284745643
H  H127  1  0.04510000  0.49170000  0.79280000  1.0 0.1284745643
H  H128  1  0.54510000  0.00830000  0.20720000  1.0 0.1284745643
H  H129  1  0.29280000  0.45490000  0.50830000  1.0 0.1284745643
H  H130  1  0.70720000  0.95490000  0.99170000  1.0 0.1284745643
H  H131  1  0.79280000  0.04510000  0.49170000  1.0 0.1284745643
H  H132  1  0.20720000  0.54510000  0.00830000  1.0 0.1284745643
H  H133  1  0.04280000  0.75830000  0.79510000  1.0 0.1284745643
H  H134  1  0.45720000  0.24170000  0.29510000  1.0 0.1284745643
H  H135  1  0.54280000  0.74170000  0.20490000  1.0 0.1284745643
H  H136  1  0.95720000  0.25830000  0.70490000  1.0 0.1284745643
H  H137  1  0.25830000  0.70490000  0.95720000  1.0 0.1284745643
H  H138  1  0.74170000  0.20490000  0.54280000  1.0 0.1284745643
H  H139  1  0.24170000  0.29510000  0.45720000  1.0 0.1284745643
H  H140  1  0.75830000  0.79510000  0.04280000  1.0 0.1284745643
H  H141  1  0.20490000  0.54280000  0.74170000  1.0 0.1284745643
H  H142  1  0.70490000  0.95720000  0.25830000  1.0 0.1284745643
H  H143  1  0.79510000  0.04280000  0.75830000  1.0 0.1284745643
H  H144  1  0.29510000  0.45720000  0.24170000  1.0 0.1284745643
H  H145  1  0.99170000  0.20720000  0.04510000  1.0 0.1284745643
H  H146  1  0.50830000  0.79280000  0.54510000  1.0 0.1284745643
H  H147  1  0.00830000  0.70720000  0.45490000  1.0 0.1284745643
H  H148  1  0.49170000  0.29280000  0.95490000  1.0 0.1284745643
H  H149  1  0.04510000  0.99170000  0.20720000  1.0 0.1284745643
H  H150  1  0.54510000  0.50830000  0.79280000  1.0 0.1284745643
H  H151  1  0.45490000  0.00830000  0.70720000  1.0 0.1284745643
H  H152  1  0.95490000  0.49170000  0.29280000  1.0 0.1284745643
H  H153  1  0.20720000  0.04510000  0.99170000  1.0 0.1284745643
H  H154  1  0.79280000  0.54510000  0.50830000  1.0 0.1284745643
H  H155  1  0.70720000  0.45490000  0.00830000  1.0 0.1284745643
H  H156  1  0.29280000  0.95490000  0.49170000  1.0 0.1284745643
H  H157  1  0.45720000  0.74170000  0.70490000  1.0 0.1284745643
H  H158  1  0.04280000  0.25830000  0.20490000  1.0 0.1284745643
H  H159  1  0.95720000  0.75830000  0.29510000  1.0 0.1284745643
H  H160  1  0.54280000  0.24170000  0.79510000  1.0 0.1284745643
H  H161  1  0.24170000  0.79510000  0.54280000  1.0 0.1284745643
H  H162  1  0.75830000  0.29510000  0.95720000  1.0 0.1284745643
H  H163  1  0.25830000  0.20490000  0.04280000  1.0 0.1284745643
H  H164  1  0.74170000  0.70490000  0.45720000  1.0 0.1284745643
H  H165  1  0.29510000  0.95720000  0.75830000  1.0 0.1284745643
H  H166  1  0.79510000  0.54280000  0.24170000  1.0 0.1284745643
H  H167  1  0.70490000  0.45720000  0.74170000  1.0 0.1284745643
H  H168  1  0.20490000  0.04280000  0.25830000  1.0 0.1284745643
H  H169  1  0.49170000  0.70720000  0.54510000  1.0 0.1284745643
H  H170  1  0.00830000  0.29280000  0.04510000  1.0 0.1284745643
H  H171  1  0.50830000  0.20720000  0.95490000  1.0 0.1284745643
H  H172  1  0.99170000  0.79280000  0.45490000  1.0 0.1284745643
H  H173  1  0.54510000  0.49170000  0.70720000  1.0 0.1284745643
H  H174  1  0.04510000  0.00830000  0.29280000  1.0 0.1284745643
H  H175  1  0.95490000  0.50830000  0.20720000  1.0 0.1284745643
H  H176  1  0.45490000  0.99170000  0.79280000  1.0 0.1284745643
H  H177  1  0.70720000  0.54510000  0.49170000  1.0 0.1284745643
H  H178  1  0.29280000  0.04510000  0.00830000  1.0 0.1284745643
H  H179  1  0.20720000  0.95490000  0.50830000  1.0 0.1284745643
H  H180  1  0.79280000  0.45490000  0.99170000  1.0 0.1284745643
H  H181  1  0.95720000  0.24170000  0.20490000  1.0 0.1284745643
H  H182  1  0.54280000  0.75830000  0.70490000  1.0 0.1284745643
H  H183  1  0.45720000  0.25830000  0.79510000  1.0 0.1284745643
H  H184  1  0.04280000  0.74170000  0.29510000  1.0 0.1284745643
H  H185  1  0.74170000  0.29510000  0.04280000  1.0 0.1284745643
H  H186  1  0.25830000  0.79510000  0.45720000  1.0 0.1284745643
H  H187  1  0.75830000  0.70490000  0.54280000  1.0 0.1284745643
H  H188  1  0.24170000  0.20490000  0.95720000  1.0 0.1284745643
H  H189  1  0.79510000  0.45720000  0.25830000  1.0 0.1284745643
H  H190  1  0.29510000  0.04280000  0.74170000  1.0 0.1284745643
H  H191  1  0.20490000  0.95720000  0.24170000  1.0 0.1284745643
H  H192  1  0.70490000  0.54280000  0.75830000  1.0 0.1284745643
H  H193  1  0.09530000  0.71740000  0.13790000  1.0 0.1284745643
H  H194  1  0.40470000  0.28260000  0.63790000  1.0 0.1284745643
H  H195  1  0.90470000  0.21740000  0.36210000  1.0 0.1284745643
H  H196  1  0.59530000  0.78260000  0.86210000  1.0 0.1284745643
H  H197  1  0.13790000  0.09530000  0.71740000  1.0 0.1284745643
H  H198  1  0.63790000  0.40470000  0.28260000  1.0 0.1284745643
H  H199  1  0.36210000  0.90470000  0.21740000  1.0 0.1284745643
H  H200  1  0.86210000  0.59530000  0.78260000  1.0 0.1284745643
H  H201  1  0.71740000  0.13790000  0.09530000  1.0 0.1284745643
H  H202  1  0.28260000  0.63790000  0.40470000  1.0 0.1284745643
H  H203  1  0.21740000  0.36210000  0.90470000  1.0 0.1284745643
H  H204  1  0.78260000  0.86210000  0.59530000  1.0 0.1284745643
H  H205  1  0.46740000  0.34530000  0.11210000  1.0 0.1284745643
H  H206  1  0.03260000  0.65470000  0.61210000  1.0 0.1284745643
H  H207  1  0.96740000  0.15470000  0.88790000  1.0 0.1284745643
H  H208  1  0.53260000  0.84530000  0.38790000  1.0 0.1284745643
H  H209  1  0.84530000  0.38790000  0.53260000  1.0 0.1284745643
H  H210  1  0.15470000  0.88790000  0.96740000  1.0 0.1284745643
H  H211  1  0.65470000  0.61210000  0.03260000  1.0 0.1284745643
H  H212  1  0.34530000  0.11210000  0.46740000  1.0 0.1284745643
H  H213  1  0.88790000  0.96740000  0.15470000  1.0 0.1284745643
H  H214  1  0.38790000  0.53260000  0.84530000  1.0 0.1284745643
H  H215  1  0.11210000  0.46740000  0.34530000  1.0 0.1284745643
H  H216  1  0.61210000  0.03260000  0.65470000  1.0 0.1284745643
H  H217  1  0.59530000  0.21740000  0.63790000  1.0 0.1284745643
H  H218  1  0.90470000  0.78260000  0.13790000  1.0 0.1284745643
H  H219  1  0.40470000  0.71740000  0.86210000  1.0 0.1284745643
H  H220  1  0.09530000  0.28260000  0.36210000  1.0 0.1284745643
H  H221  1  0.63790000  0.59530000  0.21740000  1.0 0.1284745643
H  H222  1  0.13790000  0.90470000  0.78260000  1.0 0.1284745643
H  H223  1  0.86210000  0.40470000  0.71740000  1.0 0.1284745643
H  H224  1  0.36210000  0.09530000  0.28260000  1.0 0.1284745643
H  H225  1  0.21740000  0.63790000  0.59530000  1.0 0.1284745643
H  H226  1  0.78260000  0.13790000  0.90470000  1.0 0.1284745643
H  H227  1  0.71740000  0.86210000  0.40470000  1.0 0.1284745643
H  H228  1  0.28260000  0.36210000  0.09530000  1.0 0.1284745643
H  H229  1  0.96740000  0.84530000  0.61210000  1.0 0.1284745643
H  H230  1  0.53260000  0.15470000  0.11210000  1.0 0.1284745643
H  H231  1  0.46740000  0.65470000  0.38790000  1.0 0.1284745643
H  H232  1  0.03260000  0.34530000  0.88790000  1.0 0.1284745643
H  H233  1  0.34530000  0.88790000  0.03260000  1.0 0.1284745643
H  H234  1  0.65470000  0.38790000  0.46740000  1.0 0.1284745643
H  H235  1  0.15470000  0.11210000  0.53260000  1.0 0.1284745643
H  H236  1  0.84530000  0.61210000  0.96740000  1.0 0.1284745643
H  H237  1  0.38790000  0.46740000  0.65470000  1.0 0.1284745643
H  H238  1  0.88790000  0.03260000  0.34530000  1.0 0.1284745643
H  H239  1  0.61210000  0.96740000  0.84530000  1.0 0.1284745643
H  H240  1  0.11210000  0.53260000  0.15470000  1.0 0.1284745643
H  H241  1  0.90470000  0.28260000  0.86210000  1.0 0.1284745643
H  H242  1  0.59530000  0.71740000  0.36210000  1.0 0.1284745643
H  H243  1  0.09530000  0.78260000  0.63790000  1.0 0.1284745643
H  H244  1  0.40470000  0.21740000  0.13790000  1.0 0.1284745643
H  H245  1  0.86210000  0.90470000  0.28260000  1.0 0.1284745643
H  H246  1  0.36210000  0.59530000  0.71740000  1.0 0.1284745643
H  H247  1  0.63790000  0.09530000  0.78260000  1.0 0.1284745643
H  H248  1  0.13790000  0.40470000  0.21740000  1.0 0.1284745643
H  H249  1  0.28260000  0.86210000  0.90470000  1.0 0.1284745643
H  H250  1  0.71740000  0.36210000  0.59530000  1.0 0.1284745643
H  H251  1  0.78260000  0.63790000  0.09530000  1.0 0.1284745643
H  H252  1  0.21740000  0.13790000  0.40470000  1.0 0.1284745643
H  H253  1  0.53260000  0.65470000  0.88790000  1.0 0.1284745643
H  H254  1  0.96740000  0.34530000  0.38790000  1.0 0.1284745643
H  H255  1  0.03260000  0.84530000  0.11210000  1.0 0.1284745643
H  H256  1  0.46740000  0.15470000  0.61210000  1.0 0.1284745643
H  H257  1  0.15470000  0.61210000  0.46740000  1.0 0.1284745643
H  H258  1  0.84530000  0.11210000  0.03260000  1.0 0.1284745643
H  H259  1  0.34530000  0.38790000  0.96740000  1.0 0.1284745643
H  H260  1  0.65470000  0.88790000  0.53260000  1.0 0.1284745643
H  H261  1  0.11210000  0.03260000  0.84530000  1.0 0.1284745643
H  H262  1  0.61210000  0.46740000  0.15470000  1.0 0.1284745643
H  H263  1  0.88790000  0.53260000  0.65470000  1.0 0.1284745643
H  H264  1  0.38790000  0.96740000  0.34530000  1.0 0.1284745643
H  H265  1  0.40470000  0.78260000  0.36210000  1.0 0.1284745643
H  H266  1  0.09530000  0.21740000  0.86210000  1.0 0.1284745643
H  H267  1  0.59530000  0.28260000  0.13790000  1.0 0.1284745643
H  H268  1  0.90470000  0.71740000  0.63790000  1.0 0.1284745643
H  H269  1  0.36210000  0.40470000  0.78260000  1.0 0.1284745643
H  H270  1  0.86210000  0.09530000  0.21740000  1.0 0.1284745643
H  H271  1  0.13790000  0.59530000  0.28260000  1.0 0.1284745643
H  H272  1  0.63790000  0.90470000  0.71740000  1.0 0.1284745643
H  H273  1  0.78260000  0.36210000  0.40470000  1.0 0.1284745643
H  H274  1  0.21740000  0.86210000  0.09530000  1.0 0.1284745643
H  H275  1  0.28260000  0.13790000  0.59530000  1.0 0.1284745643
H  H276  1  0.71740000  0.63790000  0.90470000  1.0 0.1284745643
H  H277  1  0.03260000  0.15470000  0.38790000  1.0 0.1284745643
H  H278  1  0.46740000  0.84530000  0.88790000  1.0 0.1284745643
H  H279  1  0.53260000  0.34530000  0.61210000  1.0 0.1284745643
H  H280  1  0.96740000  0.65470000  0.11210000  1.0 0.1284745643
H  H281  1  0.65470000  0.11210000  0.96740000  1.0 0.1284745643
H  H282  1  0.34530000  0.61210000  0.53260000  1.0 0.1284745643
H  H283  1  0.84530000  0.88790000  0.46740000  1.0 0.1284745643
H  H284  1  0.15470000  0.38790000  0.03260000  1.0 0.1284745643
H  H285  1  0.61210000  0.53260000  0.34530000  1.0 0.1284745643
H  H286  1  0.11210000  0.96740000  0.65470000  1.0 0.1284745643
H  H287  1  0.38790000  0.03260000  0.15470000  1.0 0.1284745643
H  H288  1  0.88790000  0.46740000  0.84530000  1.0 0.1284745643
H  H385  1  0.94620000  0.84820000  0.05480000  1.0 0.1284745643
H  H386  1  0.55380000  0.15180000  0.55480000  1.0 0.1284745643
H  H387  1  0.05380000  0.34820000  0.44520000  1.0 0.1284745643
H  H388  1  0.44620000  0.65180000  0.94520000  1.0 0.1284745643
H  H389  1  0.05480000  0.94620000  0.84820000  1.0 0.1284745643
H  H390  1  0.55480000  0.55380000  0.15180000  1.0 0.1284745643
H  H391  1  0.44520000  0.05380000  0.34820000  1.0 0.1284745643
H  H392  1  0.94520000  0.44620000  0.65180000  1.0 0.1284745643
H  H393  1  0.84820000  0.05480000  0.94620000  1.0 0.1284745643
H  H394  1  0.15180000  0.55480000  0.55380000  1.0 0.1284745643
H  H395  1  0.34820000  0.44520000  0.05380000  1.0 0.1284745643
H  H396  1  0.65180000  0.94520000  0.44620000  1.0 0.1284745643
H  H397  1  0.59820000  0.19620000  0.19520000  1.0 0.1284745643
H  H398  1  0.90180000  0.80380000  0.69520000  1.0 0.1284745643
H  H399  1  0.09820000  0.30380000  0.80480000  1.0 0.1284745643
H  H400  1  0.40180000  0.69620000  0.30480000  1.0 0.1284745643
H  H401  1  0.69620000  0.30480000  0.40180000  1.0 0.1284745643
H  H402  1  0.30380000  0.80480000  0.09820000  1.0 0.1284745643
H  H403  1  0.80380000  0.69520000  0.90180000  1.0 0.1284745643
H  H404  1  0.19620000  0.19520000  0.59820000  1.0 0.1284745643
H  H405  1  0.80480000  0.09820000  0.30380000  1.0 0.1284745643
H  H406  1  0.30480000  0.40180000  0.69620000  1.0 0.1284745643
H  H407  1  0.19520000  0.59820000  0.19620000  1.0 0.1284745643
H  H408  1  0.69520000  0.90180000  0.80380000  1.0 0.1284745643
H  H409  1  0.44620000  0.34820000  0.55480000  1.0 0.1284745643
H  H410  1  0.05380000  0.65180000  0.05480000  1.0 0.1284745643
H  H411  1  0.55380000  0.84820000  0.94520000  1.0 0.1284745643
H  H412  1  0.94620000  0.15180000  0.44520000  1.0 0.1284745643
H  H413  1  0.55480000  0.44620000  0.34820000  1.0 0.1284745643
H  H414  1  0.05480000  0.05380000  0.65180000  1.0 0.1284745643
H  H415  1  0.94520000  0.55380000  0.84820000  1.0 0.1284745643
H  H416  1  0.44520000  0.94620000  0.15180000  1.0 0.1284745643
H  H417  1  0.34820000  0.55480000  0.44620000  1.0 0.1284745643
H  H418  1  0.65180000  0.05480000  0.05380000  1.0 0.1284745643
H  H419  1  0.84820000  0.94520000  0.55380000  1.0 0.1284745643
H  H420  1  0.15180000  0.44520000  0.94620000  1.0 0.1284745643
H  H421  1  0.09820000  0.69620000  0.69520000  1.0 0.1284745643
H  H422  1  0.40180000  0.30380000  0.19520000  1.0 0.1284745643
H  H423  1  0.59820000  0.80380000  0.30480000  1.0 0.1284745643
H  H424  1  0.90180000  0.19620000  0.80480000  1.0 0.1284745643
H  H425  1  0.19620000  0.80480000  0.90180000  1.0 0.1284745643
H  H426  1  0.80380000  0.30480000  0.59820000  1.0 0.1284745643
H  H427  1  0.30380000  0.19520000  0.40180000  1.0 0.1284745643
H  H428  1  0.69620000  0.69520000  0.09820000  1.0 0.1284745643
H  H429  1  0.30480000  0.59820000  0.80380000  1.0 0.1284745643
H  H430  1  0.80480000  0.90180000  0.19620000  1.0 0.1284745643
H  H431  1  0.69520000  0.09820000  0.69620000  1.0 0.1284745643
H  H432  1  0.19520000  0.40180000  0.30380000  1.0 0.1284745643
H  H433  1  0.05380000  0.15180000  0.94520000  1.0 0.1284745643
H  H434  1  0.44620000  0.84820000  0.44520000  1.0 0.1284745643
H  H435  1  0.94620000  0.65180000  0.55480000  1.0 0.1284745643
H  H436  1  0.55380000  0.34820000  0.05480000  1.0 0.1284745643
H  H437  1  0.94520000  0.05380000  0.15180000  1.0 0.1284745643
H  H438  1  0.44520000  0.44620000  0.84820000  1.0 0.1284745643
H  H439  1  0.55480000  0.94620000  0.65180000  1.0 0.1284745643
H  H440  1  0.05480000  0.55380000  0.34820000  1.0 0.1284745643
H  H441  1  0.15180000  0.94520000  0.05380000  1.0 0.1284745643
H  H442  1  0.84820000  0.44520000  0.44620000  1.0 0.1284745643
H  H443  1  0.65180000  0.55480000  0.94620000  1.0 0.1284745643
H  H444  1  0.34820000  0.05480000  0.55380000  1.0 0.1284745643
H  H445  1  0.40180000  0.80380000  0.80480000  1.0 0.1284745643
H  H446  1  0.09820000  0.19620000  0.30480000  1.0 0.1284745643
H  H447  1  0.90180000  0.69620000  0.19520000  1.0 0.1284745643
H  H448  1  0.59820000  0.30380000  0.69520000  1.0 0.1284745643
H  H449  1  0.30380000  0.69520000  0.59820000  1.0 0.1284745643
H  H450  1  0.69620000  0.19520000  0.90180000  1.0 0.1284745643
H  H451  1  0.19620000  0.30480000  0.09820000  1.0 0.1284745643
H  H452  1  0.80380000  0.80480000  0.40180000  1.0 0.1284745643
H  H453  1  0.19520000  0.90180000  0.69620000  1.0 0.1284745643
H  H454  1  0.69520000  0.59820000  0.30380000  1.0 0.1284745643
H  H455  1  0.80480000  0.40180000  0.80380000  1.0 0.1284745643
H  H456  1  0.30480000  0.09820000  0.19620000  1.0 0.1284745643
H  H457  1  0.55380000  0.65180000  0.44520000  1.0 0.1284745643
H  H458  1  0.94620000  0.34820000  0.94520000  1.0 0.1284745643
H  H459  1  0.44620000  0.15180000  0.05480000  1.0 0.1284745643
H  H460  1  0.05380000  0.84820000  0.55480000  1.0 0.1284745643
H  H461  1  0.44520000  0.55380000  0.65180000  1.0 0.1284745643
H  H462  1  0.94520000  0.94620000  0.34820000  1.0 0.1284745643
H  H463  1  0.05480000  0.44620000  0.15180000  1.0 0.1284745643
H  H464  1  0.55480000  0.05380000  0.84820000  1.0 0.1284745643
H  H465  1  0.65180000  0.44520000  0.55380000  1.0 0.1284745643
H  H466  1  0.34820000  0.94520000  0.94620000  1.0 0.1284745643
H  H467  1  0.15180000  0.05480000  0.44620000  1.0 0.1284745643
H  H468  1  0.84820000  0.55480000  0.05380000  1.0 0.1284745643
H  H469  1  0.90180000  0.30380000  0.30480000  1.0 0.1284745643
H  H470  1  0.59820000  0.69620000  0.80480000  1.0 0.1284745643
H  H471  1  0.40180000  0.19620000  0.69520000  1.0 0.1284745643
H  H472  1  0.09820000  0.80380000  0.19520000  1.0 0.1284745643
H  H473  1  0.80380000  0.19520000  0.09820000  1.0 0.1284745643
H  H474  1  0.19620000  0.69520000  0.40180000  1.0 0.1284745643
H  H475  1  0.69620000  0.80480000  0.59820000  1.0 0.1284745643
H  H476  1  0.30380000  0.30480000  0.90180000  1.0 0.1284745643
H  H477  1  0.69520000  0.40180000  0.19620000  1.0 0.1284745643
H  H478  1  0.19520000  0.09820000  0.80380000  1.0 0.1284745643
H  H479  1  0.30480000  0.90180000  0.30380000  1.0 0.1284745643
H  H480  1  0.80480000  0.59820000  0.69620000  1.0 0.1284745643
H  H481  1  0.89630000  0.87730000  0.00710000  1.0 0.1236763675
H  H482  1  0.60370000  0.12270000  0.50710000  1.0 0.1236763675
H  H483  1  0.10370000  0.37730000  0.49290000  1.0 0.1236763675
H  H484  1  0.39630000  0.62270000  0.99290000  1.0 0.1236763675
H  H485  1  0.00710000  0.89630000  0.87730000  1.0 0.1236763675
H  H486  1  0.50710000  0.60370000  0.12270000  1.0 0.1236763675
H  H487  1  0.49290000  0.10370000  0.37730000  1.0 0.1236763675
H  H488  1  0.99290000  0.39630000  0.62270000  1.0 0.1236763675
H  H489  1  0.87730000  0.00710000  0.89630000  1.0 0.1236763675
H  H490  1  0.12270000  0.50710000  0.60370000  1.0 0.1236763675
H  H491  1  0.37730000  0.49290000  0.10370000  1.0 0.1236763675
H  H492  1  0.62270000  0.99290000  0.39630000  1.0 0.1236763675
H  H493  1  0.62730000  0.14630000  0.24290000  1.0 0.1236763675
H  H494  1  0.87270000  0.85370000  0.74290000  1.0 0.1236763675
H  H495  1  0.12730000  0.35370000  0.75710000  1.0 0.1236763675
H  H496  1  0.37270000  0.64630000  0.25710000  1.0 0.1236763675
H  H497  1  0.64630000  0.25710000  0.37270000  1.0 0.1236763675
H  H498  1  0.35370000  0.75710000  0.12730000  1.0 0.1236763675
H  H499  1  0.85370000  0.74290000  0.87270000  1.0 0.1236763675
H  H500  1  0.14630000  0.24290000  0.62730000  1.0 0.1236763675
H  H501  1  0.75710000  0.12730000  0.35370000  1.0 0.1236763675
H  H502  1  0.25710000  0.37270000  0.64630000  1.0 0.1236763675
H  H503  1  0.24290000  0.62730000  0.14630000  1.0 0.1236763675
H  H504  1  0.74290000  0.87270000  0.85370000  1.0 0.1236763675
H  H505  1  0.39630000  0.37730000  0.50710000  1.0 0.1236763675
H  H506  1  0.10370000  0.62270000  0.00710000  1.0 0.1236763675
H  H507  1  0.60370000  0.87730000  0.99290000  1.0 0.1236763675
H  H508  1  0.89630000  0.12270000  0.49290000  1.0 0.1236763675
H  H509  1  0.50710000  0.39630000  0.37730000  1.0 0.1236763675
H  H510  1  0.00710000  0.10370000  0.62270000  1.0 0.1236763675
H  H511  1  0.99290000  0.60370000  0.87730000  1.0 0.1236763675
H  H512  1  0.49290000  0.89630000  0.12270000  1.0 0.1236763675
H  H513  1  0.37730000  0.50710000  0.39630000  1.0 0.1236763675
H  H514  1  0.62270000  0.00710000  0.10370000  1.0 0.1236763675
H  H515  1  0.87730000  0.99290000  0.60370000  1.0 0.1236763675
H  H516  1  0.12270000  0.49290000  0.89630000  1.0 0.1236763675
H  H517  1  0.12730000  0.64630000  0.74290000  1.0 0.1236763675
H  H518  1  0.37270000  0.35370000  0.24290000  1.0 0.1236763675
H  H519  1  0.62730000  0.85370000  0.25710000  1.0 0.1236763675
H  H520  1  0.87270000  0.14630000  0.75710000  1.0 0.1236763675
H  H521  1  0.14630000  0.75710000  0.87270000  1.0 0.1236763675
H  H522  1  0.85370000  0.25710000  0.62730000  1.0 0.1236763675
H  H523  1  0.35370000  0.24290000  0.37270000  1.0 0.1236763675
H  H524  1  0.64630000  0.74290000  0.12730000  1.0 0.1236763675
H  H525  1  0.25710000  0.62730000  0.85370000  1.0 0.1236763675
H  H526  1  0.75710000  0.87270000  0.14630000  1.0 0.1236763675
H  H527  1  0.74290000  0.12730000  0.64630000  1.0 0.1236763675
H  H528  1  0.24290000  0.37270000  0.35370000  1.0 0.1236763675
H  H529  1  0.10370000  0.12270000  0.99290000  1.0 0.1236763675
H  H530  1  0.39630000  0.87730000  0.49290000  1.0 0.1236763675
H  H531  1  0.89630000  0.62270000  0.50710000  1.0 0.1236763675
H  H532  1  0.60370000  0.37730000  0.00710000  1.0 0.1236763675
H  H533  1  0.99290000  0.10370000  0.12270000  1.0 0.1236763675
H  H534  1  0.49290000  0.39630000  0.87730000  1.0 0.1236763675
H  H535  1  0.50710000  0.89630000  0.62270000  1.0 0.1236763675
H  H536  1  0.00710000  0.60370000  0.37730000  1.0 0.1236763675
H  H537  1  0.12270000  0.99290000  0.10370000  1.0 0.1236763675
H  H538  1  0.87730000  0.49290000  0.39630000  1.0 0.1236763675
H  H539  1  0.62270000  0.50710000  0.89630000  1.0 0.1236763675
H  H540  1  0.37730000  0.00710000  0.60370000  1.0 0.1236763675
H  H541  1  0.37270000  0.85370000  0.75710000  1.0 0.1236763675
H  H542  1  0.12730000  0.14630000  0.25710000  1.0 0.1236763675
H  H543  1  0.87270000  0.64630000  0.24290000  1.0 0.1236763675
H  H544  1  0.62730000  0.35370000  0.74290000  1.0 0.1236763675
H  H545  1  0.35370000  0.74290000  0.62730000  1.0 0.1236763675
H  H546  1  0.64630000  0.24290000  0.87270000  1.0 0.1236763675
H  H547  1  0.14630000  0.25710000  0.12730000  1.0 0.1236763675
H  H548  1  0.85370000  0.75710000  0.37270000  1.0 0.1236763675
H  H549  1  0.24290000  0.87270000  0.64630000  1.0 0.1236763675
H  H550  1  0.74290000  0.62730000  0.35370000  1.0 0.1236763675
H  H551  1  0.75710000  0.37270000  0.85370000  1.0 0.1236763675
H  H552  1  0.25710000  0.12730000  0.14630000  1.0 0.1236763675
H  H553  1  0.60370000  0.62270000  0.49290000  1.0 0.1236763675
H  H554  1  0.89630000  0.37730000  0.99290000  1.0 0.1236763675
H  H555  1  0.39630000  0.12270000  0.00710000  1.0 0.1236763675
H  H556  1  0.10370000  0.87730000  0.50710000  1.0 0.1236763675
H  H557  1  0.49290000  0.60370000  0.62270000  1.0 0.1236763675
H  H558  1  0.99290000  0.89630000  0.37730000  1.0 0.1236763675
H  H559  1  0.00710000  0.39630000  0.12270000  1.0 0.1236763675
H  H560  1  0.50710000  0.10370000  0.87730000  1.0 0.1236763675
H  H561  1  0.62270000  0.49290000  0.60370000  1.0 0.1236763675
H  H562  1  0.37730000  0.99290000  0.89630000  1.0 0.1236763675
H  H563  1  0.12270000  0.00710000  0.39630000  1.0 0.1236763675
H  H564  1  0.87730000  0.50710000  0.10370000  1.0 0.1236763675
H  H565  1  0.87270000  0.35370000  0.25710000  1.0 0.1236763675
H  H566  1  0.62730000  0.64630000  0.75710000  1.0 0.1236763675
H  H567  1  0.37270000  0.14630000  0.74290000  1.0 0.1236763675
H  H568  1  0.12730000  0.85370000  0.24290000  1.0 0.1236763675
H  H569  1  0.85370000  0.24290000  0.12730000  1.0 0.1236763675
H  H570  1  0.14630000  0.74290000  0.37270000  1.0 0.1236763675
H  H571  1  0.64630000  0.75710000  0.62730000  1.0 0.1236763675
H  H572  1  0.35370000  0.25710000  0.87270000  1.0 0.1236763675
H  H573  1  0.74290000  0.37270000  0.14630000  1.0 0.1236763675
H  H574  1  0.24290000  0.12730000  0.85370000  1.0 0.1236763675
H  H575  1  0.25710000  0.87270000  0.35370000  1.0 0.1236763675
H  H576  1  0.75710000  0.62730000  0.64630000  1.0 0.1236763675
H  H577  1  0.90310000  0.86440000  0.93400000  1.0 0.1087992188
H  H578  1  0.59690000  0.13560000  0.43400000  1.0 0.1087992188
H  H579  1  0.09690000  0.36440000  0.56600000  1.0 0.1087992188
H  H580  1  0.40310000  0.63560000  0.06600000  1.0 0.1087992188
H  H581  1  0.93400000  0.90310000  0.86440000  1.0 0.1087992188
H  H582  1  0.43400000  0.59690000  0.13560000  1.0 0.1087992188
H  H583  1  0.56600000  0.09690000  0.36440000  1.0 0.1087992188
H  H584  1  0.06600000  0.40310000  0.63560000  1.0 0.1087992188
H  H585  1  0.86440000  0.93400000  0.90310000  1.0 0.1087992188
H  H586  1  0.13560000  0.43400000  0.59690000  1.0 0.1087992188
H  H587  1  0.36440000  0.56600000  0.09690000  1.0 0.1087992188
H  H588  1  0.63560000  0.06600000  0.40310000  1.0 0.1087992188
H  H589  1  0.61440000  0.15310000  0.31600000  1.0 0.1087992188
H  H590  1  0.88560000  0.84690000  0.81600000  1.0 0.1087992188
H  H591  1  0.11440000  0.34690000  0.68400000  1.0 0.1087992188
H  H592  1  0.38560000  0.65310000  0.18400000  1.0 0.1087992188
H  H593  1  0.65310000  0.18400000  0.38560000  1.0 0.1087992188
H  H594  1  0.34690000  0.68400000  0.11440000  1.0 0.1087992188
H  H595  1  0.84690000  0.81600000  0.88560000  1.0 0.1087992188
H  H596  1  0.15310000  0.31600000  0.61440000  1.0 0.1087992188
H  H597  1  0.68400000  0.11440000  0.34690000  1.0 0.1087992188
H  H598  1  0.18400000  0.38560000  0.65310000  1.0 0.1087992188
H  H599  1  0.31600000  0.61440000  0.15310000  1.0 0.1087992188
H  H600  1  0.81600000  0.88560000  0.84690000  1.0 0.1087992188
H  H601  1  0.40310000  0.36440000  0.43400000  1.0 0.1087992188
H  H602  1  0.09690000  0.63560000  0.93400000  1.0 0.1087992188
H  H603  1  0.59690000  0.86440000  0.06600000  1.0 0.1087992188
H  H604  1  0.90310000  0.13560000  0.56600000  1.0 0.1087992188
H  H605  1  0.43400000  0.40310000  0.36440000  1.0 0.1087992188
H  H606  1  0.93400000  0.09690000  0.63560000  1.0 0.1087992188
H  H607  1  0.06600000  0.59690000  0.86440000  1.0 0.1087992188
H  H608  1  0.56600000  0.90310000  0.13560000  1.0 0.1087992188
H  H609  1  0.36440000  0.43400000  0.40310000  1.0 0.1087992188
H  H610  1  0.63560000  0.93400000  0.09690000  1.0 0.1087992188
H  H611  1  0.86440000  0.06600000  0.59690000  1.0 0.1087992188
H  H612  1  0.13560000  0.56600000  0.90310000  1.0 0.1087992188
H  H613  1  0.11440000  0.65310000  0.81600000  1.0 0.1087992188
H  H614  1  0.38560000  0.34690000  0.31600000  1.0 0.1087992188
H  H615  1  0.61440000  0.84690000  0.18400000  1.0 0.1087992188
H  H616  1  0.88560000  0.15310000  0.68400000  1.0 0.1087992188
H  H617  1  0.15310000  0.68400000  0.88560000  1.0 0.1087992188
H  H618  1  0.84690000  0.18400000  0.61440000  1.0 0.1087992188
H  H619  1  0.34690000  0.31600000  0.38560000  1.0 0.1087992188
H  H620  1  0.65310000  0.81600000  0.11440000  1.0 0.1087992188
H  H621  1  0.18400000  0.61440000  0.84690000  1.0 0.1087992188
H  H622  1  0.68400000  0.88560000  0.15310000  1.0 0.1087992188
H  H623  1  0.81600000  0.11440000  0.65310000  1.0 0.1087992188
H  H624  1  0.31600000  0.38560000  0.34690000  1.0 0.1087992188
H  H625  1  0.09690000  0.13560000  0.06600000  1.0 0.1087992188
H  H626  1  0.40310000  0.86440000  0.56600000  1.0 0.1087992188
H  H627  1  0.90310000  0.63560000  0.43400000  1.0 0.1087992188
H  H628  1  0.59690000  0.36440000  0.93400000  1.0 0.1087992188
H  H629  1  0.06600000  0.09690000  0.13560000  1.0 0.1087992188
H  H630  1  0.56600000  0.40310000  0.86440000  1.0 0.1087992188
H  H631  1  0.43400000  0.90310000  0.63560000  1.0 0.1087992188
H  H632  1  0.93400000  0.59690000  0.36440000  1.0 0.1087992188
H  H633  1  0.13560000  0.06600000  0.09690000  1.0 0.1087992188
H  H634  1  0.86440000  0.56600000  0.40310000  1.0 0.1087992188
H  H635  1  0.63560000  0.43400000  0.90310000  1.0 0.1087992188
H  H636  1  0.36440000  0.93400000  0.59690000  1.0 0.1087992188
H  H637  1  0.38560000  0.84690000  0.68400000  1.0 0.1087992188
H  H638  1  0.11440000  0.15310000  0.18400000  1.0 0.1087992188
H  H639  1  0.88560000  0.65310000  0.31600000  1.0 0.1087992188
H  H640  1  0.61440000  0.34690000  0.81600000  1.0 0.1087992188
H  H641  1  0.34690000  0.81600000  0.61440000  1.0 0.1087992188
H  H642  1  0.65310000  0.31600000  0.88560000  1.0 0.1087992188
H  H643  1  0.15310000  0.18400000  0.11440000  1.0 0.1087992188
H  H644  1  0.84690000  0.68400000  0.38560000  1.0 0.1087992188
H  H645  1  0.31600000  0.88560000  0.65310000  1.0 0.1087992188
H  H646  1  0.81600000  0.61440000  0.34690000  1.0 0.1087992188
H  H647  1  0.68400000  0.38560000  0.84690000  1.0 0.1087992188
H  H648  1  0.18400000  0.11440000  0.15310000  1.0 0.1087992188
H  H649  1  0.59690000  0.63560000  0.56600000  1.0 0.1087992188
H  H650  1  0.90310000  0.36440000  0.06600000  1.0 0.1087992188
H  H651  1  0.40310000  0.13560000  0.93400000  1.0 0.1087992188
H  H652  1  0.09690000  0.86440000  0.43400000  1.0 0.1087992188
H  H653  1  0.56600000  0.59690000  0.63560000  1.0 0.1087992188
H  H654  1  0.06600000  0.90310000  0.36440000  1.0 0.1087992188
H  H655  1  0.93400000  0.40310000  0.13560000  1.0 0.1087992188
H  H656  1  0.43400000  0.09690000  0.86440000  1.0 0.1087992188
H  H657  1  0.63560000  0.56600000  0.59690000  1.0 0.1087992188
H  H658  1  0.36440000  0.06600000  0.90310000  1.0 0.1087992188
H  H659  1  0.13560000  0.93400000  0.40310000  1.0 0.1087992188
H  H660  1  0.86440000  0.43400000  0.09690000  1.0 0.1087992188
H  H661  1  0.88560000  0.34690000  0.18400000  1.0 0.1087992188
H  H662  1  0.61440000  0.65310000  0.68400000  1.0 0.1087992188
H  H663  1  0.38560000  0.15310000  0.81600000  1.0 0.1087992188
H  H664  1  0.11440000  0.84690000  0.31600000  1.0 0.1087992188
H  H665  1  0.84690000  0.31600000  0.11440000  1.0 0.1087992188
H  H666  1  0.15310000  0.81600000  0.38560000  1.0 0.1087992188
H  H667  1  0.65310000  0.68400000  0.61440000  1.0 0.1087992188
H  H668  1  0.34690000  0.18400000  0.88560000  1.0 0.1087992188
H  H669  1  0.81600000  0.38560000  0.15310000  1.0 0.1087992188
H  H670  1  0.31600000  0.11440000  0.84690000  1.0 0.1087992188
H  H671  1  0.18400000  0.88560000  0.34690000  1.0 0.1087992188
H  H672  1  0.68400000  0.61440000  0.65310000  1.0 0.1087992188
H  H673  1  0.95890000  0.82320000  0.90820000  1.0 0.1284745643
H  H674  1  0.54110000  0.17680000  0.40820000  1.0 0.1284745643
H  H675  1  0.04110000  0.32320000  0.59180000  1.0 0.1284745643
H  H676  1  0.45890000  0.67680000  0.09180000  1.0 0.1284745643
H  H677  1  0.90820000  0.95890000  0.82320000  1.0 0.1284745643
H  H678  1  0.40820000  0.54110000  0.17680000  1.0 0.1284745643
H  H679  1  0.59180000  0.04110000  0.32320000  1.0 0.1284745643
H  H680  1  0.09180000  0.45890000  0.67680000  1.0 0.1284745643
H  H681  1  0.82320000  0.90820000  0.95890000  1.0 0.1284745643
H  H682  1  0.17680000  0.40820000  0.54110000  1.0 0.1284745643
H  H683  1  0.32320000  0.59180000  0.04110000  1.0 0.1284745643
H  H684  1  0.67680000  0.09180000  0.45890000  1.0 0.1284745643
H  H685  1  0.57320000  0.20890000  0.34180000  1.0 0.1284745643
H  H686  1  0.92680000  0.79110000  0.84180000  1.0 0.1284745643
H  H687  1  0.07320000  0.29110000  0.65820000  1.0 0.1284745643
H  H688  1  0.42680000  0.70890000  0.15820000  1.0 0.1284745643
H  H689  1  0.70890000  0.15820000  0.42680000  1.0 0.1284745643
H  H690  1  0.29110000  0.65820000  0.07320000  1.0 0.1284745643
H  H691  1  0.79110000  0.84180000  0.92680000  1.0 0.1284745643
H  H692  1  0.20890000  0.34180000  0.57320000  1.0 0.1284745643
H  H693  1  0.65820000  0.07320000  0.29110000  1.0 0.1284745643
H  H694  1  0.15820000  0.42680000  0.70890000  1.0 0.1284745643
H  H695  1  0.34180000  0.57320000  0.20890000  1.0 0.1284745643
H  H696  1  0.84180000  0.92680000  0.79110000  1.0 0.1284745643
H  H697  1  0.45890000  0.32320000  0.40820000  1.0 0.1284745643
H  H698  1  0.04110000  0.67680000  0.90820000  1.0 0.1284745643
H  H699  1  0.54110000  0.82320000  0.09180000  1.0 0.1284745643
H  H700  1  0.95890000  0.17680000  0.59180000  1.0 0.1284745643
H  H701  1  0.40820000  0.45890000  0.32320000  1.0 0.1284745643
H  H702  1  0.90820000  0.04110000  0.67680000  1.0 0.1284745643
H  H703  1  0.09180000  0.54110000  0.82320000  1.0 0.1284745643
H  H704  1  0.59180000  0.95890000  0.17680000  1.0 0.1284745643
H  H705  1  0.32320000  0.40820000  0.45890000  1.0 0.1284745643
H  H706  1  0.67680000  0.90820000  0.04110000  1.0 0.1284745643
H  H707  1  0.82320000  0.09180000  0.54110000  1.0 0.1284745643
H  H708  1  0.17680000  0.59180000  0.95890000  1.0 0.1284745643
H  H709  1  0.07320000  0.70890000  0.84180000  1.0 0.1284745643
H  H710  1  0.42680000  0.29110000  0.34180000  1.0 0.1284745643
H  H711  1  0.57320000  0.79110000  0.15820000  1.0 0.1284745643
H  H712  1  0.92680000  0.20890000  0.65820000  1.0 0.1284745643
H  H713  1  0.20890000  0.65820000  0.92680000  1.0 0.1284745643
H  H714  1  0.79110000  0.15820000  0.57320000  1.0 0.1284745643
H  H715  1  0.29110000  0.34180000  0.42680000  1.0 0.1284745643
H  H716  1  0.70890000  0.84180000  0.07320000  1.0 0.1284745643
H  H717  1  0.15820000  0.57320000  0.79110000  1.0 0.1284745643
H  H718  1  0.65820000  0.92680000  0.20890000  1.0 0.1284745643
H  H719  1  0.84180000  0.07320000  0.70890000  1.0 0.1284745643
H  H720  1  0.34180000  0.42680000  0.29110000  1.0 0.1284745643
H  H721  1  0.04110000  0.17680000  0.09180000  1.0 0.1284745643
H  H722  1  0.45890000  0.82320000  0.59180000  1.0 0.1284745643
H  H723  1  0.95890000  0.67680000  0.40820000  1.0 0.1284745643
H  H724  1  0.54110000  0.32320000  0.90820000  1.0 0.1284745643
H  H725  1  0.09180000  0.04110000  0.17680000  1.0 0.1284745643
H  H726  1  0.59180000  0.45890000  0.82320000  1.0 0.1284745643
H  H727  1  0.40820000  0.95890000  0.67680000  1.0 0.1284745643
H  H728  1  0.90820000  0.54110000  0.32320000  1.0 0.1284745643
H  H729  1  0.17680000  0.09180000  0.04110000  1.0 0.1284745643
H  H730  1  0.82320000  0.59180000  0.45890000  1.0 0.1284745643
H  H731  1  0.67680000  0.40820000  0.95890000  1.0 0.1284745643
H  H732  1  0.32320000  0.90820000  0.54110000  1.0 0.1284745643
H  H733  1  0.42680000  0.79110000  0.65820000  1.0 0.1284745643
H  H734  1  0.07320000  0.20890000  0.15820000  1.0 0.1284745643
H  H735  1  0.92680000  0.70890000  0.34180000  1.0 0.1284745643
H  H736  1  0.57320000  0.29110000  0.84180000  1.0 0.1284745643
H  H737  1  0.29110000  0.84180000  0.57320000  1.0 0.1284745643
H  H738  1  0.70890000  0.34180000  0.92680000  1.0 0.1284745643
H  H739  1  0.20890000  0.15820000  0.07320000  1.0 0.1284745643
H  H740  1  0.79110000  0.65820000  0.42680000  1.0 0.1284745643
H  H741  1  0.34180000  0.92680000  0.70890000  1.0 0.1284745643
H  H742  1  0.84180000  0.57320000  0.29110000  1.0 0.1284745643
H  H743  1  0.65820000  0.42680000  0.79110000  1.0 0.1284745643
H  H744  1  0.15820000  0.07320000  0.20890000  1.0 0.1284745643
H  H745  1  0.54110000  0.67680000  0.59180000  1.0 0.1284745643
H  H746  1  0.95890000  0.32320000  0.09180000  1.0 0.1284745643
H  H747  1  0.45890000  0.17680000  0.90820000  1.0 0.1284745643
H  H748  1  0.04110000  0.82320000  0.40820000  1.0 0.1284745643
H  H749  1  0.59180000  0.54110000  0.67680000  1.0 0.1284745643
H  H750  1  0.09180000  0.95890000  0.32320000  1.0 0.1284745643
H  H751  1  0.90820000  0.45890000  0.17680000  1.0 0.1284745643
H  H752  1  0.40820000  0.04110000  0.82320000  1.0 0.1284745643
H  H753  1  0.67680000  0.59180000  0.54110000  1.0 0.1284745643
H  H754  1  0.32320000  0.09180000  0.95890000  1.0 0.1284745643
H  H755  1  0.17680000  0.90820000  0.45890000  1.0 0.1284745643
H  H756  1  0.82320000  0.40820000  0.04110000  1.0 0.1284745643
H  H757  1  0.92680000  0.29110000  0.15820000  1.0 0.1284745643
H  H758  1  0.57320000  0.70890000  0.65820000  1.0 0.1284745643
H  H759  1  0.42680000  0.20890000  0.84180000  1.0 0.1284745643
H  H760  1  0.07320000  0.79110000  0.34180000  1.0 0.1284745643
H  H761  1  0.79110000  0.34180000  0.07320000  1.0 0.1284745643
H  H762  1  0.20890000  0.84180000  0.42680000  1.0 0.1284745643
H  H763  1  0.70890000  0.65820000  0.57320000  1.0 0.1284745643
H  H764  1  0.29110000  0.15820000  0.92680000  1.0 0.1284745643
H  H765  1  0.84180000  0.42680000  0.20890000  1.0 0.1284745643
H  H766  1  0.34180000  0.07320000  0.79110000  1.0 0.1284745643
H  H767  1  0.15820000  0.92680000  0.29110000  1.0 0.1284745643
H  H768  1  0.65820000  0.57320000  0.70890000  1.0 0.1284745643
H  H289  1  0.14710000  0.72990000  0.99820000  0.5 0.1377002147
H  H290  1  0.35290000  0.27010000  0.49820000  0.5 0.1377002147
H  H291  1  0.85290000  0.22990000  0.50180000  0.5 0.1377002147
H  H292  1  0.64710000  0.77010000  0.00180000  0.5 0.1377002147
H  H293  1  0.99820000  0.14710000  0.72990000  0.5 0.1377002147
H  H294  1  0.49820000  0.35290000  0.27010000  0.5 0.1377002147
H  H295  1  0.50180000  0.85290000  0.22990000  0.5 0.1377002147
H  H296  1  0.00180000  0.64710000  0.77010000  0.5 0.1377002147
H  H297  1  0.72990000  0.99820000  0.14710000  0.5 0.1377002147
H  H298  1  0.27010000  0.49820000  0.35290000  0.5 0.1377002147
H  H299  1  0.22990000  0.50180000  0.85290000  0.5 0.1377002147
H  H300  1  0.77010000  0.00180000  0.64710000  0.5 0.1377002147
H  H301  1  0.47990000  0.39710000  0.25180000  0.5 0.1377002147
H  H302  1  0.02010000  0.60290000  0.75180000  0.5 0.1377002147
H  H303  1  0.97990000  0.10290000  0.74820000  0.5 0.1377002147
H  H304  1  0.52010000  0.89710000  0.24820000  0.5 0.1377002147
H  H305  1  0.89710000  0.24820000  0.52010000  0.5 0.1377002147
H  H306  1  0.10290000  0.74820000  0.97990000  0.5 0.1377002147
H  H307  1  0.60290000  0.75180000  0.02010000  0.5 0.1377002147
H  H308  1  0.39710000  0.25180000  0.47990000  0.5 0.1377002147
H  H309  1  0.74820000  0.97990000  0.10290000  0.5 0.1377002147
H  H310  1  0.24820000  0.52010000  0.89710000  0.5 0.1377002147
H  H311  1  0.25180000  0.47990000  0.39710000  0.5 0.1377002147
H  H312  1  0.75180000  0.02010000  0.60290000  0.5 0.1377002147
H  H313  1  0.64710000  0.22990000  0.49820000  0.5 0.1377002147
H  H314  1  0.85290000  0.77010000  0.99820000  0.5 0.1377002147
H  H315  1  0.35290000  0.72990000  0.00180000  0.5 0.1377002147
H  H316  1  0.14710000  0.27010000  0.50180000  0.5 0.1377002147
H  H317  1  0.49820000  0.64710000  0.22990000  0.5 0.1377002147
H  H318  1  0.99820000  0.85290000  0.77010000  0.5 0.1377002147
H  H319  1  0.00180000  0.35290000  0.72990000  0.5 0.1377002147
H  H320  1  0.50180000  0.14710000  0.27010000  0.5 0.1377002147
H  H321  1  0.22990000  0.49820000  0.64710000  0.5 0.1377002147
H  H322  1  0.77010000  0.99820000  0.85290000  0.5 0.1377002147
H  H323  1  0.72990000  0.00180000  0.35290000  0.5 0.1377002147
H  H324  1  0.27010000  0.50180000  0.14710000  0.5 0.1377002147
H  H325  1  0.97990000  0.89710000  0.75180000  0.5 0.1377002147
H  H326  1  0.52010000  0.10290000  0.25180000  0.5 0.1377002147
H  H327  1  0.47990000  0.60290000  0.24820000  0.5 0.1377002147
H  H328  1  0.02010000  0.39710000  0.74820000  0.5 0.1377002147
H  H329  1  0.39710000  0.74820000  0.02010000  0.5 0.1377002147
H  H330  1  0.60290000  0.24820000  0.47990000  0.5 0.1377002147
H  H331  1  0.10290000  0.25180000  0.52010000  0.5 0.1377002147
H  H332  1  0.89710000  0.75180000  0.97990000  0.5 0.1377002147
H  H333  1  0.24820000  0.47990000  0.60290000  0.5 0.1377002147
H  H334  1  0.74820000  0.02010000  0.39710000  0.5 0.1377002147
H  H335  1  0.75180000  0.97990000  0.89710000  0.5 0.1377002147
H  H336  1  0.25180000  0.52010000  0.10290000  0.5 0.1377002147
H  H337  1  0.85290000  0.27010000  0.00180000  0.5 0.1377002147
H  H338  1  0.64710000  0.72990000  0.50180000  0.5 0.1377002147
H  H339  1  0.14710000  0.77010000  0.49820000  0.5 0.1377002147
H  H340  1  0.35290000  0.22990000  0.99820000  0.5 0.1377002147
H  H341  1  0.00180000  0.85290000  0.27010000  0.5 0.1377002147
H  H342  1  0.50180000  0.64710000  0.72990000  0.5 0.1377002147
H  H343  1  0.49820000  0.14710000  0.77010000  0.5 0.1377002147
H  H344  1  0.99820000  0.35290000  0.22990000  0.5 0.1377002147
H  H345  1  0.27010000  0.00180000  0.85290000  0.5 0.1377002147
H  H346  1  0.72990000  0.50180000  0.64710000  0.5 0.1377002147
H  H347  1  0.77010000  0.49820000  0.14710000  0.5 0.1377002147
H  H348  1  0.22990000  0.99820000  0.35290000  0.5 0.1377002147
H  H349  1  0.52010000  0.60290000  0.74820000  0.5 0.1377002147
H  H350  1  0.97990000  0.39710000  0.24820000  0.5 0.1377002147
H  H351  1  0.02010000  0.89710000  0.25180000  0.5 0.1377002147
H  H352  1  0.47990000  0.10290000  0.75180000  0.5 0.1377002147
H  H353  1  0.10290000  0.75180000  0.47990000  0.5 0.1377002147
H  H354  1  0.89710000  0.25180000  0.02010000  0.5 0.1377002147
H  H355  1  0.39710000  0.24820000  0.97990000  0.5 0.1377002147
H  H356  1  0.60290000  0.74820000  0.52010000  0.5 0.1377002147
H  H357  1  0.25180000  0.02010000  0.89710000  0.5 0.1377002147
H  H358  1  0.75180000  0.47990000  0.10290000  0.5 0.1377002147
H  H359  1  0.74820000  0.52010000  0.60290000  0.5 0.1377002147
H  H360  1  0.24820000  0.97990000  0.39710000  0.5 0.1377002147
H  H361  1  0.35290000  0.77010000  0.50180000  0.5 0.1377002147
H  H362  1  0.14710000  0.22990000  0.00180000  0.5 0.1377002147
H  H363  1  0.64710000  0.27010000  0.99820000  0.5 0.1377002147
H  H364  1  0.85290000  0.72990000  0.49820000  0.5 0.1377002147
H  H365  1  0.50180000  0.35290000  0.77010000  0.5 0.1377002147
H  H366  1  0.00180000  0.14710000  0.22990000  0.5 0.1377002147
H  H367  1  0.99820000  0.64710000  0.27010000  0.5 0.1377002147
H  H368  1  0.49820000  0.85290000  0.72990000  0.5 0.1377002147
H  H369  1  0.77010000  0.50180000  0.35290000  0.5 0.1377002147
H  H370  1  0.22990000  0.00180000  0.14710000  0.5 0.1377002147
H  H371  1  0.27010000  0.99820000  0.64710000  0.5 0.1377002147
H  H372  1  0.72990000  0.49820000  0.85290000  0.5 0.1377002147
H  H373  1  0.02010000  0.10290000  0.24820000  0.5 0.1377002147
H  H374  1  0.47990000  0.89710000  0.74820000  0.5 0.1377002147
H  H375  1  0.52010000  0.39710000  0.75180000  0.5 0.1377002147
H  H376  1  0.97990000  0.60290000  0.25180000  0.5 0.1377002147
H  H377  1  0.60290000  0.25180000  0.97990000  0.5 0.1377002147
H  H378  1  0.39710000  0.75180000  0.52010000  0.5 0.1377002147
H  H379  1  0.89710000  0.74820000  0.47990000  0.5 0.1377002147
H  H380  1  0.10290000  0.24820000  0.02010000  0.5 0.1377002147
H  H381  1  0.75180000  0.52010000  0.39710000  0.5 0.1377002147
H  H382  1  0.25180000  0.97990000  0.60290000  0.5 0.1377002147
H  H383  1  0.24820000  0.02010000  0.10290000  0.5 0.1377002147
H  H384  1  0.74820000  0.47990000  0.89710000  0.5 0.1377002147
C  C1  1  0.12272000  0.72684000  0.07902000  1.0 -0.0709581455
C  C2  1  0.37728000  0.27316000  0.57902000  1.0 -0.0709581455
C  C3  1  0.87728000  0.22684000  0.42098000  1.0 -0.0709581455
C  C4  1  0.62272000  0.77316000  0.92098000  1.0 -0.0709581455
C  C5  1  0.07902000  0.12272000  0.72684000  1.0 -0.0709581455
C  C6  1  0.57902000  0.37728000  0.27316000  1.0 -0.0709581455
C  C7  1  0.42098000  0.87728000  0.22684000  1.0 -0.0709581455
C  C8  1  0.92098000  0.62272000  0.77316000  1.0 -0.0709581455
C  C9  1  0.72684000  0.07902000  0.12272000  1.0 -0.0709581455
C  C10  1  0.27316000  0.57902000  0.37728000  1.0 -0.0709581455
C  C11  1  0.22684000  0.42098000  0.87728000  1.0 -0.0709581455
C  C12  1  0.77316000  0.92098000  0.62272000  1.0 -0.0709581455
C  C13  1  0.47684000  0.37272000  0.17098000  1.0 -0.0709581455
C  C14  1  0.02316000  0.62728000  0.67098000  1.0 -0.0709581455
C  C15  1  0.97684000  0.12728000  0.82902000  1.0 -0.0709581455
C  C16  1  0.52316000  0.87272000  0.32902000  1.0 -0.0709581455
C  C17  1  0.87272000  0.32902000  0.52316000  1.0 -0.0709581455
C  C18  1  0.12728000  0.82902000  0.97684000  1.0 -0.0709581455
C  C19  1  0.62728000  0.67098000  0.02316000  1.0 -0.0709581455
C  C20  1  0.37272000  0.17098000  0.47684000  1.0 -0.0709581455
C  C21  1  0.82902000  0.97684000  0.12728000  1.0 -0.0709581455
C  C22  1  0.32902000  0.52316000  0.87272000  1.0 -0.0709581455
C  C23  1  0.17098000  0.47684000  0.37272000  1.0 -0.0709581455
C  C24  1  0.67098000  0.02316000  0.62728000  1.0 -0.0709581455
C  C25  1  0.62272000  0.22684000  0.57902000  1.0 -0.0709581455
C  C26  1  0.87728000  0.77316000  0.07902000  1.0 -0.0709581455
C  C27  1  0.37728000  0.72684000  0.92098000  1.0 -0.0709581455
C  C28  1  0.12272000  0.27316000  0.42098000  1.0 -0.0709581455
C  C29  1  0.57902000  0.62272000  0.22684000  1.0 -0.0709581455
C  C30  1  0.07902000  0.87728000  0.77316000  1.0 -0.0709581455
C  C31  1  0.92098000  0.37728000  0.72684000  1.0 -0.0709581455
C  C32  1  0.42098000  0.12272000  0.27316000  1.0 -0.0709581455
C  C33  1  0.22684000  0.57902000  0.62272000  1.0 -0.0709581455
C  C34  1  0.77316000  0.07902000  0.87728000  1.0 -0.0709581455
C  C35  1  0.72684000  0.92098000  0.37728000  1.0 -0.0709581455
C  C36  1  0.27316000  0.42098000  0.12272000  1.0 -0.0709581455
C  C37  1  0.97684000  0.87272000  0.67098000  1.0 -0.0709581455
C  C38  1  0.52316000  0.12728000  0.17098000  1.0 -0.0709581455
C  C39  1  0.47684000  0.62728000  0.32902000  1.0 -0.0709581455
C  C40  1  0.02316000  0.37272000  0.82902000  1.0 -0.0709581455
C  C41  1  0.37272000  0.82902000  0.02316000  1.0 -0.0709581455
C  C42  1  0.62728000  0.32902000  0.47684000  1.0 -0.0709581455
C  C43  1  0.12728000  0.17098000  0.52316000  1.0 -0.0709581455
C  C44  1  0.87272000  0.67098000  0.97684000  1.0 -0.0709581455
C  C45  1  0.32902000  0.47684000  0.62728000  1.0 -0.0709581455
C  C46  1  0.82902000  0.02316000  0.37272000  1.0 -0.0709581455
C  C47  1  0.67098000  0.97684000  0.87272000  1.0 -0.0709581455
C  C48  1  0.17098000  0.52316000  0.12728000  1.0 -0.0709581455
C  C49  1  0.87728000  0.27316000  0.92098000  1.0 -0.0709581455
C  C50  1  0.62272000  0.72684000  0.42098000  1.0 -0.0709581455
C  C51  1  0.12272000  0.77316000  0.57902000  1.0 -0.0709581455
C  C52  1  0.37728000  0.22684000  0.07902000  1.0 -0.0709581455
C  C53  1  0.92098000  0.87728000  0.27316000  1.0 -0.0709581455
C  C54  1  0.42098000  0.62272000  0.72684000  1.0 -0.0709581455
C  C55  1  0.57902000  0.12272000  0.77316000  1.0 -0.0709581455
C  C56  1  0.07902000  0.37728000  0.22684000  1.0 -0.0709581455
C  C57  1  0.27316000  0.92098000  0.87728000  1.0 -0.0709581455
C  C58  1  0.72684000  0.42098000  0.62272000  1.0 -0.0709581455
C  C59  1  0.77316000  0.57902000  0.12272000  1.0 -0.0709581455
C  C60  1  0.22684000  0.07902000  0.37728000  1.0 -0.0709581455
C  C61  1  0.52316000  0.62728000  0.82902000  1.0 -0.0709581455
C  C62  1  0.97684000  0.37272000  0.32902000  1.0 -0.0709581455
C  C63  1  0.02316000  0.87272000  0.17098000  1.0 -0.0709581455
C  C64  1  0.47684000  0.12728000  0.67098000  1.0 -0.0709581455
C  C65  1  0.12728000  0.67098000  0.47684000  1.0 -0.0709581455
C  C66  1  0.87272000  0.17098000  0.02316000  1.0 -0.0709581455
C  C67  1  0.37272000  0.32902000  0.97684000  1.0 -0.0709581455
C  C68  1  0.62728000  0.82902000  0.52316000  1.0 -0.0709581455
C  C69  1  0.17098000  0.02316000  0.87272000  1.0 -0.0709581455
C  C70  1  0.67098000  0.47684000  0.12728000  1.0 -0.0709581455
C  C71  1  0.82902000  0.52316000  0.62728000  1.0 -0.0709581455
C  C72  1  0.32902000  0.97684000  0.37272000  1.0 -0.0709581455
C  C73  1  0.37728000  0.77316000  0.42098000  1.0 -0.0709581455
C  C74  1  0.12272000  0.22684000  0.92098000  1.0 -0.0709581455
C  C75  1  0.62272000  0.27316000  0.07902000  1.0 -0.0709581455
C  C76  1  0.87728000  0.72684000  0.57902000  1.0 -0.0709581455
C  C77  1  0.42098000  0.37728000  0.77316000  1.0 -0.0709581455
C  C78  1  0.92098000  0.12272000  0.22684000  1.0 -0.0709581455
C  C79  1  0.07902000  0.62272000  0.27316000  1.0 -0.0709581455
C  C80  1  0.57902000  0.87728000  0.72684000  1.0 -0.0709581455
C  C81  1  0.77316000  0.42098000  0.37728000  1.0 -0.0709581455
C  C82  1  0.22684000  0.92098000  0.12272000  1.0 -0.0709581455
C  C83  1  0.27316000  0.07902000  0.62272000  1.0 -0.0709581455
C  C84  1  0.72684000  0.57902000  0.87728000  1.0 -0.0709581455
C  C85  1  0.02316000  0.12728000  0.32902000  1.0 -0.0709581455
C  C86  1  0.47684000  0.87272000  0.82902000  1.0 -0.0709581455
C  C87  1  0.52316000  0.37272000  0.67098000  1.0 -0.0709581455
C  C88  1  0.97684000  0.62728000  0.17098000  1.0 -0.0709581455
C  C89  1  0.62728000  0.17098000  0.97684000  1.0 -0.0709581455
C  C90  1  0.37272000  0.67098000  0.52316000  1.0 -0.0709581455
C  C91  1  0.87272000  0.82902000  0.47684000  1.0 -0.0709581455
C  C92  1  0.12728000  0.32902000  0.02316000  1.0 -0.0709581455
C  C93  1  0.67098000  0.52316000  0.37272000  1.0 -0.0709581455
C  C94  1  0.17098000  0.97684000  0.62728000  1.0 -0.0709581455
C  C95  1  0.32902000  0.02316000  0.12728000  1.0 -0.0709581455
C  C96  1  0.82902000  0.47684000  0.87272000  1.0 -0.0709581455
C  C97  1  0.98179000  0.81814000  0.00929000  1.0 0.1580426089
C  C98  1  0.51821000  0.18186000  0.50929000  1.0 0.1580426089
C  C99  1  0.01821000  0.31814000  0.49071000  1.0 0.1580426089
C  C100  1  0.48179000  0.68186000  0.99071000  1.0 0.1580426089
C  C101  1  0.00929000  0.98179000  0.81814000  1.0 0.1580426089
C  C102  1  0.50929000  0.51821000  0.18186000  1.0 0.1580426089
C  C103  1  0.49071000  0.01821000  0.31814000  1.0 0.1580426089
C  C104  1  0.99071000  0.48179000  0.68186000  1.0 0.1580426089
C  C105  1  0.81814000  0.00929000  0.98179000  1.0 0.1580426089
C  C106  1  0.18186000  0.50929000  0.51821000  1.0 0.1580426089
C  C107  1  0.31814000  0.49071000  0.01821000  1.0 0.1580426089
C  C108  1  0.68186000  0.99071000  0.48179000  1.0 0.1580426089
C  C109  1  0.56814000  0.23179000  0.24071000  1.0 0.1580426089
C  C110  1  0.93186000  0.76821000  0.74071000  1.0 0.1580426089
C  C111  1  0.06814000  0.26821000  0.75929000  1.0 0.1580426089
C  C112  1  0.43186000  0.73179000  0.25929000  1.0 0.1580426089
C  C113  1  0.73179000  0.25929000  0.43186000  1.0 0.1580426089
C  C114  1  0.26821000  0.75929000  0.06814000  1.0 0.1580426089
C  C115  1  0.76821000  0.74071000  0.93186000  1.0 0.1580426089
C  C116  1  0.23179000  0.24071000  0.56814000  1.0 0.1580426089
C  C117  1  0.75929000  0.06814000  0.26821000  1.0 0.1580426089
C  C118  1  0.25929000  0.43186000  0.73179000  1.0 0.1580426089
C  C119  1  0.24071000  0.56814000  0.23179000  1.0 0.1580426089
C  C120  1  0.74071000  0.93186000  0.76821000  1.0 0.1580426089
C  C121  1  0.48179000  0.31814000  0.50929000  1.0 0.1580426089
C  C122  1  0.01821000  0.68186000  0.00929000  1.0 0.1580426089
C  C123  1  0.51821000  0.81814000  0.99071000  1.0 0.1580426089
C  C124  1  0.98179000  0.18186000  0.49071000  1.0 0.1580426089
C  C125  1  0.50929000  0.48179000  0.31814000  1.0 0.1580426089
C  C126  1  0.00929000  0.01821000  0.68186000  1.0 0.1580426089
C  C127  1  0.99071000  0.51821000  0.81814000  1.0 0.1580426089
C  C128  1  0.49071000  0.98179000  0.18186000  1.0 0.1580426089
C  C129  1  0.31814000  0.50929000  0.48179000  1.0 0.1580426089
C  C130  1  0.68186000  0.00929000  0.01821000  1.0 0.1580426089
C  C131  1  0.81814000  0.99071000  0.51821000  1.0 0.1580426089
C  C132  1  0.18186000  0.49071000  0.98179000  1.0 0.1580426089
C  C133  1  0.06814000  0.73179000  0.74071000  1.0 0.1580426089
C  C134  1  0.43186000  0.26821000  0.24071000  1.0 0.1580426089
C  C135  1  0.56814000  0.76821000  0.25929000  1.0 0.1580426089
C  C136  1  0.93186000  0.23179000  0.75929000  1.0 0.1580426089
C  C137  1  0.23179000  0.75929000  0.93186000  1.0 0.1580426089
C  C138  1  0.76821000  0.25929000  0.56814000  1.0 0.1580426089
C  C139  1  0.26821000  0.24071000  0.43186000  1.0 0.1580426089
C  C140  1  0.73179000  0.74071000  0.06814000  1.0 0.1580426089
C  C141  1  0.25929000  0.56814000  0.76821000  1.0 0.1580426089
C  C142  1  0.75929000  0.93186000  0.23179000  1.0 0.1580426089
C  C143  1  0.74071000  0.06814000  0.73179000  1.0 0.1580426089
C  C144  1  0.24071000  0.43186000  0.26821000  1.0 0.1580426089
C  C145  1  0.01821000  0.18186000  0.99071000  1.0 0.1580426089
C  C146  1  0.48179000  0.81814000  0.49071000  1.0 0.1580426089
C  C147  1  0.98179000  0.68186000  0.50929000  1.0 0.1580426089
C  C148  1  0.51821000  0.31814000  0.00929000  1.0 0.1580426089
C  C149  1  0.99071000  0.01821000  0.18186000  1.0 0.1580426089
C  C150  1  0.49071000  0.48179000  0.81814000  1.0 0.1580426089
C  C151  1  0.50929000  0.98179000  0.68186000  1.0 0.1580426089
C  C152  1  0.00929000  0.51821000  0.31814000  1.0 0.1580426089
C  C153  1  0.18186000  0.99071000  0.01821000  1.0 0.1580426089
C  C154  1  0.81814000  0.49071000  0.48179000  1.0 0.1580426089
C  C155  1  0.68186000  0.50929000  0.98179000  1.0 0.1580426089
C  C156  1  0.31814000  0.00929000  0.51821000  1.0 0.1580426089
C  C157  1  0.43186000  0.76821000  0.75929000  1.0 0.1580426089
C  C158  1  0.06814000  0.23179000  0.25929000  1.0 0.1580426089
C  C159  1  0.93186000  0.73179000  0.24071000  1.0 0.1580426089
C  C160  1  0.56814000  0.26821000  0.74071000  1.0 0.1580426089
C  C161  1  0.26821000  0.74071000  0.56814000  1.0 0.1580426089
C  C162  1  0.73179000  0.24071000  0.93186000  1.0 0.1580426089
C  C163  1  0.23179000  0.25929000  0.06814000  1.0 0.1580426089
C  C164  1  0.76821000  0.75929000  0.43186000  1.0 0.1580426089
C  C165  1  0.24071000  0.93186000  0.73179000  1.0 0.1580426089
C  C166  1  0.74071000  0.56814000  0.26821000  1.0 0.1580426089
C  C167  1  0.75929000  0.43186000  0.76821000  1.0 0.1580426089
C  C168  1  0.25929000  0.06814000  0.23179000  1.0 0.1580426089
C  C169  1  0.51821000  0.68186000  0.49071000  1.0 0.1580426089
C  C170  1  0.98179000  0.31814000  0.99071000  1.0 0.1580426089
C  C171  1  0.48179000  0.18186000  0.00929000  1.0 0.1580426089
C  C172  1  0.01821000  0.81814000  0.50929000  1.0 0.1580426089
C  C173  1  0.49071000  0.51821000  0.68186000  1.0 0.1580426089
C  C174  1  0.99071000  0.98179000  0.31814000  1.0 0.1580426089
C  C175  1  0.00929000  0.48179000  0.18186000  1.0 0.1580426089
C  C176  1  0.50929000  0.01821000  0.81814000  1.0 0.1580426089
C  C177  1  0.68186000  0.49071000  0.51821000  1.0 0.1580426089
C  C178  1  0.31814000  0.99071000  0.98179000  1.0 0.1580426089
C  C179  1  0.18186000  0.00929000  0.48179000  1.0 0.1580426089
C  C180  1  0.81814000  0.50929000  0.01821000  1.0 0.1580426089
C  C181  1  0.93186000  0.26821000  0.25929000  1.0 0.1580426089
C  C182  1  0.56814000  0.73179000  0.75929000  1.0 0.1580426089
C  C183  1  0.43186000  0.23179000  0.74071000  1.0 0.1580426089
C  C184  1  0.06814000  0.76821000  0.24071000  1.0 0.1580426089
C  C185  1  0.76821000  0.24071000  0.06814000  1.0 0.1580426089
C  C186  1  0.23179000  0.74071000  0.43186000  1.0 0.1580426089
C  C187  1  0.73179000  0.75929000  0.56814000  1.0 0.1580426089
C  C188  1  0.26821000  0.25929000  0.93186000  1.0 0.1580426089
C  C189  1  0.74071000  0.43186000  0.23179000  1.0 0.1580426089
C  C190  1  0.24071000  0.06814000  0.76821000  1.0 0.1580426089
C  C191  1  0.25929000  0.93186000  0.26821000  1.0 0.1580426089
C  C192  1  0.75929000  0.56814000  0.73179000  1.0 0.1580426089
C  C193  1  0.98574000  0.81017000  0.96550000  1.0 -0.1332132297
C  C194  1  0.51426000  0.18983000  0.46550000  1.0 -0.1332132297
C  C195  1  0.01426000  0.31017000  0.53450000  1.0 -0.1332132297
C  C196  1  0.48574000  0.68983000  0.03450000  1.0 -0.1332132297
C  C197  1  0.96550000  0.98574000  0.81017000  1.0 -0.1332132297
C  C198  1  0.46550000  0.51426000  0.18983000  1.0 -0.1332132297
C  C199  1  0.53450000  0.01426000  0.31017000  1.0 -0.1332132297
C  C200  1  0.03450000  0.48574000  0.68983000  1.0 -0.1332132297
C  C201  1  0.81017000  0.96550000  0.98574000  1.0 -0.1332132297
C  C202  1  0.18983000  0.46550000  0.51426000  1.0 -0.1332132297
C  C203  1  0.31017000  0.53450000  0.01426000  1.0 -0.1332132297
C  C204  1  0.68983000  0.03450000  0.48574000  1.0 -0.1332132297
C  C205  1  0.56017000  0.23574000  0.28450000  1.0 -0.1332132297
C  C206  1  0.93983000  0.76426000  0.78450000  1.0 -0.1332132297
C  C207  1  0.06017000  0.26426000  0.71550000  1.0 -0.1332132297
C  C208  1  0.43983000  0.73574000  0.21550000  1.0 -0.1332132297
C  C209  1  0.73574000  0.21550000  0.43983000  1.0 -0.1332132297
C  C210  1  0.26426000  0.71550000  0.06017000  1.0 -0.1332132297
C  C211  1  0.76426000  0.78450000  0.93983000  1.0 -0.1332132297
C  C212  1  0.23574000  0.28450000  0.56017000  1.0 -0.1332132297
C  C213  1  0.71550000  0.06017000  0.26426000  1.0 -0.1332132297
C  C214  1  0.21550000  0.43983000  0.73574000  1.0 -0.1332132297
C  C215  1  0.28450000  0.56017000  0.23574000  1.0 -0.1332132297
C  C216  1  0.78450000  0.93983000  0.76426000  1.0 -0.1332132297
C  C217  1  0.48574000  0.31017000  0.46550000  1.0 -0.1332132297
C  C218  1  0.01426000  0.68983000  0.96550000  1.0 -0.1332132297
C  C219  1  0.51426000  0.81017000  0.03450000  1.0 -0.1332132297
C  C220  1  0.98574000  0.18983000  0.53450000  1.0 -0.1332132297
C  C221  1  0.46550000  0.48574000  0.31017000  1.0 -0.1332132297
C  C222  1  0.96550000  0.01426000  0.68983000  1.0 -0.1332132297
C  C223  1  0.03450000  0.51426000  0.81017000  1.0 -0.1332132297
C  C224  1  0.53450000  0.98574000  0.18983000  1.0 -0.1332132297
C  C225  1  0.31017000  0.46550000  0.48574000  1.0 -0.1332132297
C  C226  1  0.68983000  0.96550000  0.01426000  1.0 -0.1332132297
C  C227  1  0.81017000  0.03450000  0.51426000  1.0 -0.1332132297
C  C228  1  0.18983000  0.53450000  0.98574000  1.0 -0.1332132297
C  C229  1  0.06017000  0.73574000  0.78450000  1.0 -0.1332132297
C  C230  1  0.43983000  0.26426000  0.28450000  1.0 -0.1332132297
C  C231  1  0.56017000  0.76426000  0.21550000  1.0 -0.1332132297
C  C232  1  0.93983000  0.23574000  0.71550000  1.0 -0.1332132297
C  C233  1  0.23574000  0.71550000  0.93983000  1.0 -0.1332132297
C  C234  1  0.76426000  0.21550000  0.56017000  1.0 -0.1332132297
C  C235  1  0.26426000  0.28450000  0.43983000  1.0 -0.1332132297
C  C236  1  0.73574000  0.78450000  0.06017000  1.0 -0.1332132297
C  C237  1  0.21550000  0.56017000  0.76426000  1.0 -0.1332132297
C  C238  1  0.71550000  0.93983000  0.23574000  1.0 -0.1332132297
C  C239  1  0.78450000  0.06017000  0.73574000  1.0 -0.1332132297
C  C240  1  0.28450000  0.43983000  0.26426000  1.0 -0.1332132297
C  C241  1  0.01426000  0.18983000  0.03450000  1.0 -0.1332132297
C  C242  1  0.48574000  0.81017000  0.53450000  1.0 -0.1332132297
C  C243  1  0.98574000  0.68983000  0.46550000  1.0 -0.1332132297
C  C244  1  0.51426000  0.31017000  0.96550000  1.0 -0.1332132297
C  C245  1  0.03450000  0.01426000  0.18983000  1.0 -0.1332132297
C  C246  1  0.53450000  0.48574000  0.81017000  1.0 -0.1332132297
C  C247  1  0.46550000  0.98574000  0.68983000  1.0 -0.1332132297
C  C248  1  0.96550000  0.51426000  0.31017000  1.0 -0.1332132297
C  C249  1  0.18983000  0.03450000  0.01426000  1.0 -0.1332132297
C  C250  1  0.81017000  0.53450000  0.48574000  1.0 -0.1332132297
C  C251  1  0.68983000  0.46550000  0.98574000  1.0 -0.1332132297
C  C252  1  0.31017000  0.96550000  0.51426000  1.0 -0.1332132297
C  C253  1  0.43983000  0.76426000  0.71550000  1.0 -0.1332132297
C  C254  1  0.06017000  0.23574000  0.21550000  1.0 -0.1332132297
C  C255  1  0.93983000  0.73574000  0.28450000  1.0 -0.1332132297
C  C256  1  0.56017000  0.26426000  0.78450000  1.0 -0.1332132297
C  C257  1  0.26426000  0.78450000  0.56017000  1.0 -0.1332132297
C  C258  1  0.73574000  0.28450000  0.93983000  1.0 -0.1332132297
C  C259  1  0.23574000  0.21550000  0.06017000  1.0 -0.1332132297
C  C260  1  0.76426000  0.71550000  0.43983000  1.0 -0.1332132297
C  C261  1  0.28450000  0.93983000  0.73574000  1.0 -0.1332132297
C  C262  1  0.78450000  0.56017000  0.26426000  1.0 -0.1332132297
C  C263  1  0.71550000  0.43983000  0.76426000  1.0 -0.1332132297
C  C264  1  0.21550000  0.06017000  0.23574000  1.0 -0.1332132297
C  C265  1  0.51426000  0.68983000  0.53450000  1.0 -0.1332132297
C  C266  1  0.98574000  0.31017000  0.03450000  1.0 -0.1332132297
C  C267  1  0.48574000  0.18983000  0.96550000  1.0 -0.1332132297
C  C268  1  0.01426000  0.81017000  0.46550000  1.0 -0.1332132297
C  C269  1  0.53450000  0.51426000  0.68983000  1.0 -0.1332132297
C  C270  1  0.03450000  0.98574000  0.31017000  1.0 -0.1332132297
C  C271  1  0.96550000  0.48574000  0.18983000  1.0 -0.1332132297
C  C272  1  0.46550000  0.01426000  0.81017000  1.0 -0.1332132297
C  C273  1  0.68983000  0.53450000  0.51426000  1.0 -0.1332132297
C  C274  1  0.31017000  0.03450000  0.98574000  1.0 -0.1332132297
C  C275  1  0.18983000  0.96550000  0.48574000  1.0 -0.1332132297
C  C276  1  0.81017000  0.46550000  0.01426000  1.0 -0.1332132297
C  C277  1  0.93983000  0.26426000  0.21550000  1.0 -0.1332132297
C  C278  1  0.56017000  0.73574000  0.71550000  1.0 -0.1332132297
C  C279  1  0.43983000  0.23574000  0.78450000  1.0 -0.1332132297
C  C280  1  0.06017000  0.76426000  0.28450000  1.0 -0.1332132297
C  C281  1  0.76426000  0.28450000  0.06017000  1.0 -0.1332132297
C  C282  1  0.23574000  0.78450000  0.43983000  1.0 -0.1332132297
C  C283  1  0.73574000  0.71550000  0.56017000  1.0 -0.1332132297
C  C284  1  0.26426000  0.21550000  0.93983000  1.0 -0.1332132297
C  C285  1  0.78450000  0.43983000  0.23574000  1.0 -0.1332132297
C  C286  1  0.28450000  0.06017000  0.76426000  1.0 -0.1332132297
C  C287  1  0.21550000  0.93983000  0.26426000  1.0 -0.1332132297
C  C288  1  0.71550000  0.56017000  0.73574000  1.0 -0.1332132297
C  C289  1  0.09255000  0.72915000  0.11006000  1.0 -0.0151566391
C  C290  1  0.40745000  0.27085000  0.61006000  1.0 -0.0148124446
C  C291  1  0.90745000  0.22915000  0.38994000  1.0 -0.0148124446
C  C292  1  0.59255000  0.77085000  0.88994000  1.0 -0.0148124446
C  C293  1  0.11006000  0.09255000  0.72915000  1.0 -0.0148124446
C  C294  1  0.61006000  0.40745000  0.27085000  1.0 -0.0148124446
C  C295  1  0.38994000  0.90745000  0.22915000  1.0 -0.0151566391
C  C296  1  0.88994000  0.59255000  0.77085000  1.0 -0.0148124446
C  C297  1  0.72915000  0.11006000  0.09255000  1.0 -0.0148124446
C  C298  1  0.27085000  0.61006000  0.40745000  1.0 -0.0151566391
C  C299  1  0.22915000  0.38994000  0.90745000  1.0 -0.0151566391
C  C300  1  0.77085000  0.88994000  0.59255000  1.0 -0.0151566391
C  C301  1  0.47915000  0.34255000  0.13994000  1.0 -0.0148124446
C  C302  1  0.02085000  0.65745000  0.63994000  1.0 -0.0151566391
C  C303  1  0.97915000  0.15745000  0.86006000  1.0 -0.0148124446
C  C304  1  0.52085000  0.84255000  0.36006000  1.0 -0.0151566391
C  C305  1  0.84255000  0.36006000  0.52085000  1.0 -0.0148124446
C  C306  1  0.15745000  0.86006000  0.97915000  1.0 -0.0151566391
C  C307  1  0.65745000  0.63994000  0.02085000  1.0 -0.0151566391
C  C308  1  0.34255000  0.13994000  0.47915000  1.0 -0.0148124446
C  C309  1  0.86006000  0.97915000  0.15745000  1.0 -0.0148124446
C  C310  1  0.36006000  0.52085000  0.84255000  1.0 -0.0148124446
C  C311  1  0.13994000  0.47915000  0.34255000  1.0 -0.0151566391
C  C312  1  0.63994000  0.02085000  0.65745000  1.0 -0.0148124446
C  C313  1  0.59255000  0.22915000  0.61006000  1.0 -0.0148124446
C  C314  1  0.90745000  0.77085000  0.11006000  1.0 -0.0151566391
C  C315  1  0.40745000  0.72915000  0.88994000  1.0 -0.0151566391
C  C316  1  0.09255000  0.27085000  0.38994000  1.0 -0.0151566391
C  C317  1  0.61006000  0.59255000  0.22915000  1.0 -0.0151566391
C  C318  1  0.11006000  0.90745000  0.77085000  1.0 -0.0151566391
C  C319  1  0.88994000  0.40745000  0.72915000  1.0 -0.0148124446
C  C320  1  0.38994000  0.09255000  0.27085000  1.0 -0.0148124446
C  C321  1  0.22915000  0.61006000  0.59255000  1.0 -0.0151566391
C  C322  1  0.77085000  0.11006000  0.90745000  1.0 -0.0148124446
C  C323  1  0.72915000  0.88994000  0.40745000  1.0 -0.0151566391
C  C324  1  0.27085000  0.38994000  0.09255000  1.0 -0.0151566391
C  C325  1  0.97915000  0.84255000  0.63994000  1.0 -0.0148124446
C  C326  1  0.52085000  0.15745000  0.13994000  1.0 -0.0151566391
C  C327  1  0.47915000  0.65745000  0.36006000  1.0 -0.0151566391
C  C328  1  0.02085000  0.34255000  0.86006000  1.0 -0.0148124446
C  C329  1  0.34255000  0.86006000  0.02085000  1.0 -0.0151566391
C  C330  1  0.65745000  0.36006000  0.47915000  1.0 -0.0148124446
C  C331  1  0.15745000  0.13994000  0.52085000  1.0 -0.0151566391
C  C332  1  0.84255000  0.63994000  0.97915000  1.0 -0.0148124446
C  C333  1  0.36006000  0.47915000  0.65745000  1.0 -0.0148124446
C  C334  1  0.86006000  0.02085000  0.34255000  1.0 -0.0148124446
C  C335  1  0.63994000  0.97915000  0.84255000  1.0 -0.0148124446
C  C336  1  0.13994000  0.52085000  0.15745000  1.0 -0.0151566391
C  C337  1  0.90745000  0.27085000  0.88994000  1.0 -0.0148124446
C  C338  1  0.59255000  0.72915000  0.38994000  1.0 -0.0151566391
C  C339  1  0.09255000  0.77085000  0.61006000  1.0 -0.0151566391
C  C340  1  0.40745000  0.22915000  0.11006000  1.0 -0.0148124446
C  C341  1  0.88994000  0.90745000  0.27085000  1.0 -0.0148124446
C  C342  1  0.38994000  0.59255000  0.72915000  1.0 -0.0148124446
C  C343  1  0.61006000  0.09255000  0.77085000  1.0 -0.0148124446
C  C344  1  0.11006000  0.40745000  0.22915000  1.0 -0.0151566391
C  C345  1  0.27085000  0.88994000  0.90745000  1.0 -0.0151566391
C  C346  1  0.72915000  0.38994000  0.59255000  1.0 -0.0148124446
C  C347  1  0.77085000  0.61006000  0.09255000  1.0 -0.0148124446
C  C348  1  0.22915000  0.11006000  0.40745000  1.0 -0.0148124446
C  C349  1  0.52085000  0.65745000  0.86006000  1.0 -0.0148124446
C  C350  1  0.97915000  0.34255000  0.36006000  1.0 -0.0148124446
C  C351  1  0.02085000  0.84255000  0.13994000  1.0 -0.0151566391
C  C352  1  0.47915000  0.15745000  0.63994000  1.0 -0.0148124446
C  C353  1  0.15745000  0.63994000  0.47915000  1.0 -0.0151566391
C  C354  1  0.84255000  0.13994000  0.02085000  1.0 -0.0148124446
C  C355  1  0.34255000  0.36006000  0.97915000  1.0 -0.0148124446
C  C356  1  0.65745000  0.86006000  0.52085000  1.0 -0.0151566391
C  C357  1  0.13994000  0.02085000  0.84255000  1.0 -0.0148124446
C  C358  1  0.63994000  0.47915000  0.15745000  1.0 -0.0148124446
C  C359  1  0.86006000  0.52085000  0.65745000  1.0 -0.0148124446
C  C360  1  0.36006000  0.97915000  0.34255000  1.0 -0.0151566391
C  C361  1  0.40745000  0.77085000  0.38994000  1.0 -0.0151566391
C  C362  1  0.09255000  0.22915000  0.88994000  1.0 -0.0148124446
C  C363  1  0.59255000  0.27085000  0.11006000  1.0 -0.0148124446
C  C364  1  0.90745000  0.72915000  0.61006000  1.0 -0.0148124446
C  C365  1  0.38994000  0.40745000  0.77085000  1.0 -0.0148124446
C  C366  1  0.88994000  0.09255000  0.22915000  1.0 -0.0148124446
C  C367  1  0.11006000  0.59255000  0.27085000  1.0 -0.0151566391
C  C368  1  0.61006000  0.90745000  0.72915000  1.0 -0.0148124446
C  C369  1  0.77085000  0.38994000  0.40745000  1.0 -0.0148124446
C  C370  1  0.22915000  0.88994000  0.09255000  1.0 -0.0151566391
C  C371  1  0.27085000  0.11006000  0.59255000  1.0 -0.0148124446
C  C372  1  0.72915000  0.61006000  0.90745000  1.0 -0.0148124446
C  C373  1  0.02085000  0.15745000  0.36006000  1.0 -0.0148124446
C  C374  1  0.47915000  0.84255000  0.86006000  1.0 -0.0148124446
C  C375  1  0.52085000  0.34255000  0.63994000  1.0 -0.0148124446
C  C376  1  0.97915000  0.65745000  0.13994000  1.0 -0.0151566391
C  C377  1  0.65745000  0.13994000  0.97915000  1.0 -0.0148124446
C  C378  1  0.34255000  0.63994000  0.52085000  1.0 -0.0151566391
C  C379  1  0.84255000  0.86006000  0.47915000  1.0 -0.0148124446
C  C380  1  0.15745000  0.36006000  0.02085000  1.0 -0.0151566391
C  C381  1  0.63994000  0.52085000  0.34255000  1.0 -0.0151566391
C  C382  1  0.13994000  0.97915000  0.65745000  1.0 -0.0151566391
C  C383  1  0.36006000  0.02085000  0.15745000  1.0 -0.0148124446
C  C384  1  0.86006000  0.47915000  0.84255000  1.0 -0.0148124446
C  C385  1  0.06663000  0.76189000  0.05554000  1.0 0.3187720859
C  C386  1  0.43337000  0.23811000  0.55554000  1.0 0.3187720859
C  C387  1  0.93337000  0.26189000  0.44446000  1.0 0.3187720859
C  C388  1  0.56663000  0.73811000  0.94446000  1.0 0.3187720859
C  C389  1  0.05554000  0.06663000  0.76189000  1.0 0.3187720859
C  C390  1  0.55554000  0.43337000  0.23811000  1.0 0.3187720859
C  C391  1  0.44446000  0.93337000  0.26189000  1.0 0.3187720859
C  C392  1  0.94446000  0.56663000  0.73811000  1.0 0.3187720859
C  C393  1  0.76189000  0.05554000  0.06663000  1.0 0.3187720859
C  C394  1  0.23811000  0.55554000  0.43337000  1.0 0.3187720859
C  C395  1  0.26189000  0.44446000  0.93337000  1.0 0.3187720859
C  C396  1  0.73811000  0.94446000  0.56663000  1.0 0.3187720859
C  C397  1  0.51189000  0.31663000  0.19446000  1.0 0.3187720859
C  C398  1  0.98811000  0.68337000  0.69446000  1.0 0.3187720859
C  C399  1  0.01189000  0.18337000  0.80554000  1.0 0.3187720859
C  C400  1  0.48811000  0.81663000  0.30554000  1.0 0.3187720859
C  C401  1  0.81663000  0.30554000  0.48811000  1.0 0.3187720859
C  C402  1  0.18337000  0.80554000  0.01189000  1.0 0.3187720859
C  C403  1  0.68337000  0.69446000  0.98811000  1.0 0.3187720859
C  C404  1  0.31663000  0.19446000  0.51189000  1.0 0.3187720859
C  C405  1  0.80554000  0.01189000  0.18337000  1.0 0.3187720859
C  C406  1  0.30554000  0.48811000  0.81663000  1.0 0.3187720859
C  C407  1  0.19446000  0.51189000  0.31663000  1.0 0.3187720859
C  C408  1  0.69446000  0.98811000  0.68337000  1.0 0.3187720859
C  C409  1  0.56663000  0.26189000  0.55554000  1.0 0.3187720859
C  C410  1  0.93337000  0.73811000  0.05554000  1.0 0.3187720859
C  C411  1  0.43337000  0.76189000  0.94446000  1.0 0.3187720859
C  C412  1  0.06663000  0.23811000  0.44446000  1.0 0.3187720859
C  C413  1  0.55554000  0.56663000  0.26189000  1.0 0.3187720859
C  C414  1  0.05554000  0.93337000  0.73811000  1.0 0.3187720859
C  C415  1  0.94446000  0.43337000  0.76189000  1.0 0.3187720859
C  C416  1  0.44446000  0.06663000  0.23811000  1.0 0.3187720859
C  C417  1  0.26189000  0.55554000  0.56663000  1.0 0.3187720859
C  C418  1  0.73811000  0.05554000  0.93337000  1.0 0.3187720859
C  C419  1  0.76189000  0.94446000  0.43337000  1.0 0.3187720859
C  C420  1  0.23811000  0.44446000  0.06663000  1.0 0.3187720859
C  C421  1  0.01189000  0.81663000  0.69446000  1.0 0.3187720859
C  C422  1  0.48811000  0.18337000  0.19446000  1.0 0.3187720859
C  C423  1  0.51189000  0.68337000  0.30554000  1.0 0.3187720859
C  C424  1  0.98811000  0.31663000  0.80554000  1.0 0.3187720859
C  C425  1  0.31663000  0.80554000  0.98811000  1.0 0.3187720859
C  C426  1  0.68337000  0.30554000  0.51189000  1.0 0.3187720859
C  C427  1  0.18337000  0.19446000  0.48811000  1.0 0.3187720859
C  C428  1  0.81663000  0.69446000  0.01189000  1.0 0.3187720859
C  C429  1  0.30554000  0.51189000  0.68337000  1.0 0.3187720859
C  C430  1  0.80554000  0.98811000  0.31663000  1.0 0.3187720859
C  C431  1  0.69446000  0.01189000  0.81663000  1.0 0.3187720859
C  C432  1  0.19446000  0.48811000  0.18337000  1.0 0.3187720859
C  C433  1  0.93337000  0.23811000  0.94446000  1.0 0.3187720859
C  C434  1  0.56663000  0.76189000  0.44446000  1.0 0.3187720859
C  C435  1  0.06663000  0.73811000  0.55554000  1.0 0.3187720859
C  C436  1  0.43337000  0.26189000  0.05554000  1.0 0.3187720859
C  C437  1  0.94446000  0.93337000  0.23811000  1.0 0.3187720859
C  C438  1  0.44446000  0.56663000  0.76189000  1.0 0.3187720859
C  C439  1  0.55554000  0.06663000  0.73811000  1.0 0.3187720859
C  C440  1  0.05554000  0.43337000  0.26189000  1.0 0.3187720859
C  C441  1  0.23811000  0.94446000  0.93337000  1.0 0.3187720859
C  C442  1  0.76189000  0.44446000  0.56663000  1.0 0.3187720859
C  C443  1  0.73811000  0.55554000  0.06663000  1.0 0.3187720859
C  C444  1  0.26189000  0.05554000  0.43337000  1.0 0.3187720859
C  C445  1  0.48811000  0.68337000  0.80554000  1.0 0.3187720859
C  C446  1  0.01189000  0.31663000  0.30554000  1.0 0.3187720859
C  C447  1  0.98811000  0.81663000  0.19446000  1.0 0.3187720859
C  C448  1  0.51189000  0.18337000  0.69446000  1.0 0.3187720859
C  C449  1  0.18337000  0.69446000  0.51189000  1.0 0.3187720859
C  C450  1  0.81663000  0.19446000  0.98811000  1.0 0.3187720859
C  C451  1  0.31663000  0.30554000  0.01189000  1.0 0.3187720859
C  C452  1  0.68337000  0.80554000  0.48811000  1.0 0.3187720859
C  C453  1  0.19446000  0.98811000  0.81663000  1.0 0.3187720859
C  C454  1  0.69446000  0.51189000  0.18337000  1.0 0.3187720859
C  C455  1  0.80554000  0.48811000  0.68337000  1.0 0.3187720859
C  C456  1  0.30554000  0.01189000  0.31663000  1.0 0.3187720859
C  C457  1  0.43337000  0.73811000  0.44446000  1.0 0.3187720859
C  C458  1  0.06663000  0.26189000  0.94446000  1.0 0.3187720859
C  C459  1  0.56663000  0.23811000  0.05554000  1.0 0.3187720859
C  C460  1  0.93337000  0.76189000  0.55554000  1.0 0.3187720859
C  C461  1  0.44446000  0.43337000  0.73811000  1.0 0.3187720859
C  C462  1  0.94446000  0.06663000  0.26189000  1.0 0.3187720859
C  C463  1  0.05554000  0.56663000  0.23811000  1.0 0.3187720859
C  C464  1  0.55554000  0.93337000  0.76189000  1.0 0.3187720859
C  C465  1  0.73811000  0.44446000  0.43337000  1.0 0.3187720859
C  C466  1  0.26189000  0.94446000  0.06663000  1.0 0.3187720859
C  C467  1  0.23811000  0.05554000  0.56663000  1.0 0.3187720859
C  C468  1  0.76189000  0.55554000  0.93337000  1.0 0.3187720859
C  C469  1  0.98811000  0.18337000  0.30554000  1.0 0.3187720859
C  C470  1  0.51189000  0.81663000  0.80554000  1.0 0.3187720859
C  C471  1  0.48811000  0.31663000  0.69446000  1.0 0.3187720859
C  C472  1  0.01189000  0.68337000  0.19446000  1.0 0.3187720859
C  C473  1  0.68337000  0.19446000  0.01189000  1.0 0.3187720859
C  C474  1  0.31663000  0.69446000  0.48811000  1.0 0.3187720859
C  C475  1  0.81663000  0.80554000  0.51189000  1.0 0.3187720859
C  C476  1  0.18337000  0.30554000  0.98811000  1.0 0.3187720859
C  C477  1  0.69446000  0.48811000  0.31663000  1.0 0.3187720859
C  C478  1  0.19446000  0.01189000  0.68337000  1.0 0.3187720859
C  C479  1  0.30554000  0.98811000  0.18337000  1.0 0.3187720859
C  C480  1  0.80554000  0.51189000  0.81663000  1.0 0.3187720859
C  C481  1  0.12500000  0.75220000  0.00220000  1.0 0.0139242666
C  C482  1  0.37500000  0.24780000  0.50220000  1.0 0.0139242666
C  C483  1  0.87500000  0.25220000  0.49780000  1.0 0.0139242666
C  C484  1  0.62500000  0.74780000  0.99780000  1.0 0.0139242666
C  C485  1  0.00220000  0.12500000  0.75220000  1.0 0.0139242666
C  C486  1  0.50220000  0.37500000  0.24780000  1.0 0.0139242666
C  C487  1  0.49780000  0.87500000  0.25220000  1.0 0.0139242666
C  C488  1  0.99780000  0.62500000  0.74780000  1.0 0.0139242666
C  C489  1  0.75220000  0.00220000  0.12500000  1.0 0.0139242666
C  C490  1  0.24780000  0.50220000  0.37500000  1.0 0.0139242666
C  C491  1  0.25220000  0.49780000  0.87500000  1.0 0.0139242666
C  C492  1  0.74780000  0.99780000  0.62500000  1.0 0.0139242666
C  C493  1  0.62500000  0.25220000  0.50220000  1.0 0.0139242666
C  C494  1  0.87500000  0.74780000  0.00220000  1.0 0.0139242666
C  C495  1  0.37500000  0.75220000  0.99780000  1.0 0.0139242666
C  C496  1  0.12500000  0.24780000  0.49780000  1.0 0.0139242666
C  C497  1  0.50220000  0.62500000  0.25220000  1.0 0.0139242666
C  C498  1  0.00220000  0.87500000  0.74780000  1.0 0.0139242666
C  C499  1  0.99780000  0.37500000  0.75220000  1.0 0.0139242666
C  C500  1  0.49780000  0.12500000  0.24780000  1.0 0.0139242666
C  C501  1  0.25220000  0.50220000  0.62500000  1.0 0.0139242666
C  C502  1  0.74780000  0.00220000  0.87500000  1.0 0.0139242666
C  C503  1  0.75220000  0.99780000  0.37500000  1.0 0.0139242666
C  C504  1  0.24780000  0.49780000  0.12500000  1.0 0.0139242666
C  C505  1  0.87500000  0.24780000  0.99780000  1.0 0.0139242666
C  C506  1  0.62500000  0.75220000  0.49780000  1.0 0.0139242666
C  C507  1  0.12500000  0.74780000  0.50220000  1.0 0.0139242666
C  C508  1  0.37500000  0.25220000  0.00220000  1.0 0.0139242666
C  C509  1  0.99780000  0.87500000  0.24780000  1.0 0.0139242666
C  C510  1  0.49780000  0.62500000  0.75220000  1.0 0.0139242666
C  C511  1  0.50220000  0.12500000  0.74780000  1.0 0.0139242666
C  C512  1  0.00220000  0.37500000  0.25220000  1.0 0.0139242666
C  C513  1  0.24780000  0.99780000  0.87500000  1.0 0.0139242666
C  C514  1  0.75220000  0.49780000  0.62500000  1.0 0.0139242666
C  C515  1  0.74780000  0.50220000  0.12500000  1.0 0.0139242666
C  C516  1  0.25220000  0.00220000  0.37500000  1.0 0.0139242666
C  C517  1  0.37500000  0.74780000  0.49780000  1.0 0.0139242666
C  C518  1  0.12500000  0.25220000  0.99780000  1.0 0.0139242666
C  C519  1  0.62500000  0.24780000  0.00220000  1.0 0.0139242666
C  C520  1  0.87500000  0.75220000  0.50220000  1.0 0.0139242666
C  C521  1  0.49780000  0.37500000  0.74780000  1.0 0.0139242666
C  C522  1  0.99780000  0.12500000  0.25220000  1.0 0.0139242666
C  C523  1  0.00220000  0.62500000  0.24780000  1.0 0.0139242666
C  C524  1  0.50220000  0.87500000  0.75220000  1.0 0.0139242666
C  C525  1  0.74780000  0.49780000  0.37500000  1.0 0.0139242666
C  C526  1  0.25220000  0.99780000  0.12500000  1.0 0.0139242666
C  C527  1  0.24780000  0.00220000  0.62500000  1.0 0.0139242666
C  C528  1  0.75220000  0.50220000  0.87500000  1.0 0.0139242666
C  C529  1  0.94870000  0.84305000  0.02503000  1.0 -0.1471280484
C  C530  1  0.55130000  0.15695000  0.52503000  1.0 -0.1471280484
C  C531  1  0.05130000  0.34305000  0.47497000  1.0 -0.1471280484
C  C532  1  0.44870000  0.65695000  0.97497000  1.0 -0.1471280484
C  C533  1  0.02503000  0.94870000  0.84305000  1.0 -0.1471280484
C  C534  1  0.52503000  0.55130000  0.15695000  1.0 -0.1471280484
C  C535  1  0.47497000  0.05130000  0.34305000  1.0 -0.1471280484
C  C536  1  0.97497000  0.44870000  0.65695000  1.0 -0.1471280484
C  C537  1  0.84305000  0.02503000  0.94870000  1.0 -0.1471280484
C  C538  1  0.15695000  0.52503000  0.55130000  1.0 -0.1471280484
C  C539  1  0.34305000  0.47497000  0.05130000  1.0 -0.1471280484
C  C540  1  0.65695000  0.97497000  0.44870000  1.0 -0.1471280484
C  C541  1  0.59305000  0.19870000  0.22497000  1.0 -0.1471280484
C  C542  1  0.90695000  0.80130000  0.72497000  1.0 -0.1471280484
C  C543  1  0.09305000  0.30130000  0.77503000  1.0 -0.1471280484
C  C544  1  0.40695000  0.69870000  0.27503000  1.0 -0.1471280484
C  C545  1  0.69870000  0.27503000  0.40695000  1.0 -0.1471280484
C  C546  1  0.30130000  0.77503000  0.09305000  1.0 -0.1471280484
C  C547  1  0.80130000  0.72497000  0.90695000  1.0 -0.1471280484
C  C548  1  0.19870000  0.22497000  0.59305000  1.0 -0.1471280484
C  C549  1  0.77503000  0.09305000  0.30130000  1.0 -0.1471280484
C  C550  1  0.27503000  0.40695000  0.69870000  1.0 -0.1471280484
C  C551  1  0.22497000  0.59305000  0.19870000  1.0 -0.1471280484
C  C552  1  0.72497000  0.90695000  0.80130000  1.0 -0.1471280484
C  C553  1  0.44870000  0.34305000  0.52503000  1.0 -0.1471280484
C  C554  1  0.05130000  0.65695000  0.02503000  1.0 -0.1471280484
C  C555  1  0.55130000  0.84305000  0.97497000  1.0 -0.1471280484
C  C556  1  0.94870000  0.15695000  0.47497000  1.0 -0.1471280484
C  C557  1  0.52503000  0.44870000  0.34305000  1.0 -0.1471280484
C  C558  1  0.02503000  0.05130000  0.65695000  1.0 -0.1471280484
C  C559  1  0.97497000  0.55130000  0.84305000  1.0 -0.1471280484
C  C560  1  0.47497000  0.94870000  0.15695000  1.0 -0.1471280484
C  C561  1  0.34305000  0.52503000  0.44870000  1.0 -0.1471280484
C  C562  1  0.65695000  0.02503000  0.05130000  1.0 -0.1471280484
C  C563  1  0.84305000  0.97497000  0.55130000  1.0 -0.1471280484
C  C564  1  0.15695000  0.47497000  0.94870000  1.0 -0.1471280484
C  C565  1  0.09305000  0.69870000  0.72497000  1.0 -0.1471280484
C  C566  1  0.40695000  0.30130000  0.22497000  1.0 -0.1471280484
C  C567  1  0.59305000  0.80130000  0.27503000  1.0 -0.1471280484
C  C568  1  0.90695000  0.19870000  0.77503000  1.0 -0.1471280484
C  C569  1  0.19870000  0.77503000  0.90695000  1.0 -0.1471280484
C  C570  1  0.80130000  0.27503000  0.59305000  1.0 -0.1471280484
C  C571  1  0.30130000  0.22497000  0.40695000  1.0 -0.1471280484
C  C572  1  0.69870000  0.72497000  0.09305000  1.0 -0.1471280484
C  C573  1  0.27503000  0.59305000  0.80130000  1.0 -0.1471280484
C  C574  1  0.77503000  0.90695000  0.19870000  1.0 -0.1471280484
C  C575  1  0.72497000  0.09305000  0.69870000  1.0 -0.1471280484
C  C576  1  0.22497000  0.40695000  0.30130000  1.0 -0.1471280484
C  C577  1  0.05130000  0.15695000  0.97497000  1.0 -0.1471280484
C  C578  1  0.44870000  0.84305000  0.47497000  1.0 -0.1471280484
C  C579  1  0.94870000  0.65695000  0.52503000  1.0 -0.1471280484
C  C580  1  0.55130000  0.34305000  0.02503000  1.0 -0.1471280484
C  C581  1  0.97497000  0.05130000  0.15695000  1.0 -0.1471280484
C  C582  1  0.47497000  0.44870000  0.84305000  1.0 -0.1471280484
C  C583  1  0.52503000  0.94870000  0.65695000  1.0 -0.1471280484
C  C584  1  0.02503000  0.55130000  0.34305000  1.0 -0.1471280484
C  C585  1  0.15695000  0.97497000  0.05130000  1.0 -0.1471280484
C  C586  1  0.84305000  0.47497000  0.44870000  1.0 -0.1471280484
C  C587  1  0.65695000  0.52503000  0.94870000  1.0 -0.1471280484
C  C588  1  0.34305000  0.02503000  0.55130000  1.0 -0.1471280484
C  C589  1  0.40695000  0.80130000  0.77503000  1.0 -0.1471280484
C  C590  1  0.09305000  0.19870000  0.27503000  1.0 -0.1471280484
C  C591  1  0.90695000  0.69870000  0.22497000  1.0 -0.1471280484
C  C592  1  0.59305000  0.30130000  0.72497000  1.0 -0.1471280484
C  C593  1  0.30130000  0.72497000  0.59305000  1.0 -0.1471280484
C  C594  1  0.69870000  0.22497000  0.90695000  1.0 -0.1471280484
C  C595  1  0.19870000  0.27503000  0.09305000  1.0 -0.1471280484
C  C596  1  0.80130000  0.77503000  0.40695000  1.0 -0.1471280484
C  C597  1  0.22497000  0.90695000  0.69870000  1.0 -0.1471280484
C  C598  1  0.72497000  0.59305000  0.30130000  1.0 -0.1471280484
C  C599  1  0.77503000  0.40695000  0.80130000  1.0 -0.1471280484
C  C600  1  0.27503000  0.09305000  0.19870000  1.0 -0.1471280484
C  C601  1  0.55130000  0.65695000  0.47497000  1.0 -0.1471280484
C  C602  1  0.94870000  0.34305000  0.97497000  1.0 -0.1471280484
C  C603  1  0.44870000  0.15695000  0.02503000  1.0 -0.1471280484
C  C604  1  0.05130000  0.84305000  0.52503000  1.0 -0.1471280484
C  C605  1  0.47497000  0.55130000  0.65695000  1.0 -0.1471280484
C  C606  1  0.97497000  0.94870000  0.34305000  1.0 -0.1471280484
C  C607  1  0.02503000  0.44870000  0.15695000  1.0 -0.1471280484
C  C608  1  0.52503000  0.05130000  0.84305000  1.0 -0.1471280484
C  C609  1  0.65695000  0.47497000  0.55130000  1.0 -0.1471280484
C  C610  1  0.34305000  0.97497000  0.94870000  1.0 -0.1471280484
C  C611  1  0.15695000  0.02503000  0.44870000  1.0 -0.1471280484
C  C612  1  0.84305000  0.52503000  0.05130000  1.0 -0.1471280484
C  C613  1  0.90695000  0.30130000  0.27503000  1.0 -0.1471280484
C  C614  1  0.59305000  0.69870000  0.77503000  1.0 -0.1471280484
C  C615  1  0.40695000  0.19870000  0.72497000  1.0 -0.1471280484
C  C616  1  0.09305000  0.80130000  0.22497000  1.0 -0.1471280484
C  C617  1  0.80130000  0.22497000  0.09305000  1.0 -0.1471280484
C  C618  1  0.19870000  0.72497000  0.40695000  1.0 -0.1471280484
C  C619  1  0.69870000  0.77503000  0.59305000  1.0 -0.1471280484
C  C620  1  0.30130000  0.27503000  0.90695000  1.0 -0.1471280484
C  C621  1  0.72497000  0.40695000  0.19870000  1.0 -0.1471280484
C  C622  1  0.22497000  0.09305000  0.80130000  1.0 -0.1471280484
C  C623  1  0.27503000  0.90695000  0.30130000  1.0 -0.1471280484
C  C624  1  0.77503000  0.59305000  0.69870000  1.0 -0.1471280484
C  C625  1  0.91921000  0.86031000  0.99671000  1.0 -0.0776333918
C  C626  1  0.58079000  0.13969000  0.49671000  1.0 -0.0776333918
C  C627  1  0.08079000  0.36031000  0.50329000  1.0 -0.0776333918
C  C628  1  0.41921000  0.63969000  0.00329000  1.0 -0.0776333918
C  C629  1  0.99671000  0.91921000  0.86031000  1.0 -0.0776333918
C  C630  1  0.49671000  0.58079000  0.13969000  1.0 -0.0776333918
C  C631  1  0.50329000  0.08079000  0.36031000  1.0 -0.0776333918
C  C632  1  0.00329000  0.41921000  0.63969000  1.0 -0.0776333918
C  C633  1  0.86031000  0.99671000  0.91921000  1.0 -0.0776333918
C  C634  1  0.13969000  0.49671000  0.58079000  1.0 -0.0776333918
C  C635  1  0.36031000  0.50329000  0.08079000  1.0 -0.0776333918
C  C636  1  0.63969000  0.00329000  0.41921000  1.0 -0.0776333918
C  C637  1  0.61031000  0.16921000  0.25329000  1.0 -0.0776333918
C  C638  1  0.88969000  0.83079000  0.75329000  1.0 -0.0776333918
C  C639  1  0.11031000  0.33079000  0.74671000  1.0 -0.0776333918
C  C640  1  0.38969000  0.66921000  0.24671000  1.0 -0.0776333918
C  C641  1  0.66921000  0.24671000  0.38969000  1.0 -0.0776333918
C  C642  1  0.33079000  0.74671000  0.11031000  1.0 -0.0776333918
C  C643  1  0.83079000  0.75329000  0.88969000  1.0 -0.0776333918
C  C644  1  0.16921000  0.25329000  0.61031000  1.0 -0.0776333918
C  C645  1  0.74671000  0.11031000  0.33079000  1.0 -0.0776333918
C  C646  1  0.24671000  0.38969000  0.66921000  1.0 -0.0776333918
C  C647  1  0.25329000  0.61031000  0.16921000  1.0 -0.0776333918
C  C648  1  0.75329000  0.88969000  0.83079000  1.0 -0.0776333918
C  C649  1  0.41921000  0.36031000  0.49671000  1.0 -0.0776333918
C  C650  1  0.08079000  0.63969000  0.99671000  1.0 -0.0776333918
C  C651  1  0.58079000  0.86031000  0.00329000  1.0 -0.0776333918
C  C652  1  0.91921000  0.13969000  0.50329000  1.0 -0.0776333918
C  C653  1  0.49671000  0.41921000  0.36031000  1.0 -0.0776333918
C  C654  1  0.99671000  0.08079000  0.63969000  1.0 -0.0776333918
C  C655  1  0.00329000  0.58079000  0.86031000  1.0 -0.0776333918
C  C656  1  0.50329000  0.91921000  0.13969000  1.0 -0.0776333918
C  C657  1  0.36031000  0.49671000  0.41921000  1.0 -0.0776333918
C  C658  1  0.63969000  0.99671000  0.08079000  1.0 -0.0776333918
C  C659  1  0.86031000  0.00329000  0.58079000  1.0 -0.0776333918
C  C660  1  0.13969000  0.50329000  0.91921000  1.0 -0.0776333918
C  C661  1  0.11031000  0.66921000  0.75329000  1.0 -0.0776333918
C  C662  1  0.38969000  0.33079000  0.25329000  1.0 -0.0776333918
C  C663  1  0.61031000  0.83079000  0.24671000  1.0 -0.0776333918
C  C664  1  0.88969000  0.16921000  0.74671000  1.0 -0.0776333918
C  C665  1  0.16921000  0.74671000  0.88969000  1.0 -0.0776333918
C  C666  1  0.83079000  0.24671000  0.61031000  1.0 -0.0776333918
C  C667  1  0.33079000  0.25329000  0.38969000  1.0 -0.0776333918
C  C668  1  0.66921000  0.75329000  0.11031000  1.0 -0.0776333918
C  C669  1  0.24671000  0.61031000  0.83079000  1.0 -0.0776333918
C  C670  1  0.74671000  0.88969000  0.16921000  1.0 -0.0776333918
C  C671  1  0.75329000  0.11031000  0.66921000  1.0 -0.0776333918
C  C672  1  0.25329000  0.38969000  0.33079000  1.0 -0.0776333918
C  C673  1  0.08079000  0.13969000  0.00329000  1.0 -0.0776333918
C  C674  1  0.41921000  0.86031000  0.50329000  1.0 -0.0776333918
C  C675  1  0.91921000  0.63969000  0.49671000  1.0 -0.0776333918
C  C676  1  0.58079000  0.36031000  0.99671000  1.0 -0.0776333918
C  C677  1  0.00329000  0.08079000  0.13969000  1.0 -0.0776333918
C  C678  1  0.50329000  0.41921000  0.86031000  1.0 -0.0776333918
C  C679  1  0.49671000  0.91921000  0.63969000  1.0 -0.0776333918
C  C680  1  0.99671000  0.58079000  0.36031000  1.0 -0.0776333918
C  C681  1  0.13969000  0.00329000  0.08079000  1.0 -0.0776333918
C  C682  1  0.86031000  0.50329000  0.41921000  1.0 -0.0776333918
C  C683  1  0.63969000  0.49671000  0.91921000  1.0 -0.0776333918
C  C684  1  0.36031000  0.99671000  0.58079000  1.0 -0.0776333918
C  C685  1  0.38969000  0.83079000  0.74671000  1.0 -0.0776333918
C  C686  1  0.11031000  0.16921000  0.24671000  1.0 -0.0776333918
C  C687  1  0.88969000  0.66921000  0.25329000  1.0 -0.0776333918
C  C688  1  0.61031000  0.33079000  0.75329000  1.0 -0.0776333918
C  C689  1  0.33079000  0.75329000  0.61031000  1.0 -0.0776333918
C  C690  1  0.66921000  0.25329000  0.88969000  1.0 -0.0776333918
C  C691  1  0.16921000  0.24671000  0.11031000  1.0 -0.0776333918
C  C692  1  0.83079000  0.74671000  0.38969000  1.0 -0.0776333918
C  C693  1  0.25329000  0.88969000  0.66921000  1.0 -0.0776333918
C  C694  1  0.75329000  0.61031000  0.33079000  1.0 -0.0776333918
C  C695  1  0.74671000  0.38969000  0.83079000  1.0 -0.0776333918
C  C696  1  0.24671000  0.11031000  0.16921000  1.0 -0.0776333918
C  C697  1  0.58079000  0.63969000  0.50329000  1.0 -0.0776333918
C  C698  1  0.91921000  0.36031000  0.00329000  1.0 -0.0776333918
C  C699  1  0.41921000  0.13969000  0.99671000  1.0 -0.0776333918
C  C700  1  0.08079000  0.86031000  0.49671000  1.0 -0.0776333918
C  C701  1  0.50329000  0.58079000  0.63969000  1.0 -0.0776333918
C  C702  1  0.00329000  0.91921000  0.36031000  1.0 -0.0776333918
C  C703  1  0.99671000  0.41921000  0.13969000  1.0 -0.0776333918
C  C704  1  0.49671000  0.08079000  0.86031000  1.0 -0.0776333918
C  C705  1  0.63969000  0.50329000  0.58079000  1.0 -0.0776333918
C  C706  1  0.36031000  0.00329000  0.91921000  1.0 -0.0776333918
C  C707  1  0.13969000  0.99671000  0.41921000  1.0 -0.0776333918
C  C708  1  0.86031000  0.49671000  0.08079000  1.0 -0.0776333918
C  C709  1  0.88969000  0.33079000  0.24671000  1.0 -0.0776333918
C  C710  1  0.61031000  0.66921000  0.74671000  1.0 -0.0776333918
C  C711  1  0.38969000  0.16921000  0.75329000  1.0 -0.0776333918
C  C712  1  0.11031000  0.83079000  0.25329000  1.0 -0.0776333918
C  C713  1  0.83079000  0.25329000  0.11031000  1.0 -0.0776333918
C  C714  1  0.16921000  0.75329000  0.38969000  1.0 -0.0776333918
C  C715  1  0.66921000  0.74671000  0.61031000  1.0 -0.0776333918
C  C716  1  0.33079000  0.24671000  0.88969000  1.0 -0.0776333918
C  C717  1  0.75329000  0.38969000  0.16921000  1.0 -0.0776333918
C  C718  1  0.25329000  0.11031000  0.83079000  1.0 -0.0776333918
C  C719  1  0.24671000  0.88969000  0.33079000  1.0 -0.0776333918
C  C720  1  0.74671000  0.61031000  0.66921000  1.0 -0.0776333918
C  C721  1  0.92326000  0.85261000  0.95334000  1.0 -0.0977352187
C  C722  1  0.57674000  0.14739000  0.45334000  1.0 -0.0977352187
C  C723  1  0.07674000  0.35261000  0.54666000  1.0 -0.0977352187
C  C724  1  0.42326000  0.64739000  0.04666000  1.0 -0.0977352187
C  C725  1  0.95334000  0.92326000  0.85261000  1.0 -0.0977352187
C  C726  1  0.45334000  0.57674000  0.14739000  1.0 -0.0977352187
C  C727  1  0.54666000  0.07674000  0.35261000  1.0 -0.0977352187
C  C728  1  0.04666000  0.42326000  0.64739000  1.0 -0.0977352187
C  C729  1  0.85261000  0.95334000  0.92326000  1.0 -0.0977352187
C  C730  1  0.14739000  0.45334000  0.57674000  1.0 -0.0977352187
C  C731  1  0.35261000  0.54666000  0.07674000  1.0 -0.0977352187
C  C732  1  0.64739000  0.04666000  0.42326000  1.0 -0.0977352187
C  C733  1  0.60261000  0.17326000  0.29666000  1.0 -0.0977352187
C  C734  1  0.89739000  0.82674000  0.79666000  1.0 -0.0977352187
C  C735  1  0.10261000  0.32674000  0.70334000  1.0 -0.0977352187
C  C736  1  0.39739000  0.67326000  0.20334000  1.0 -0.0977352187
C  C737  1  0.67326000  0.20334000  0.39739000  1.0 -0.0977352187
C  C738  1  0.32674000  0.70334000  0.10261000  1.0 -0.0977352187
C  C739  1  0.82674000  0.79666000  0.89739000  1.0 -0.0977352187
C  C740  1  0.17326000  0.29666000  0.60261000  1.0 -0.0977352187
C  C741  1  0.70334000  0.10261000  0.32674000  1.0 -0.0977352187
C  C742  1  0.20334000  0.39739000  0.67326000  1.0 -0.0977352187
C  C743  1  0.29666000  0.60261000  0.17326000  1.0 -0.0977352187
C  C744  1  0.79666000  0.89739000  0.82674000  1.0 -0.0977352187
C  C745  1  0.42326000  0.35261000  0.45334000  1.0 -0.0977352187
C  C746  1  0.07674000  0.64739000  0.95334000  1.0 -0.0977352187
C  C747  1  0.57674000  0.85261000  0.04666000  1.0 -0.0977352187
C  C748  1  0.92326000  0.14739000  0.54666000  1.0 -0.0977352187
C  C749  1  0.45334000  0.42326000  0.35261000  1.0 -0.0977352187
C  C750  1  0.95334000  0.07674000  0.64739000  1.0 -0.0977352187
C  C751  1  0.04666000  0.57674000  0.85261000  1.0 -0.0977352187
C  C752  1  0.54666000  0.92326000  0.14739000  1.0 -0.0977352187
C  C753  1  0.35261000  0.45334000  0.42326000  1.0 -0.0977352187
C  C754  1  0.64739000  0.95334000  0.07674000  1.0 -0.0977352187
C  C755  1  0.85261000  0.04666000  0.57674000  1.0 -0.0977352187
C  C756  1  0.14739000  0.54666000  0.92326000  1.0 -0.0977352187
C  C757  1  0.10261000  0.67326000  0.79666000  1.0 -0.0977352187
C  C758  1  0.39739000  0.32674000  0.29666000  1.0 -0.0977352187
C  C759  1  0.60261000  0.82674000  0.20334000  1.0 -0.0977352187
C  C760  1  0.89739000  0.17326000  0.70334000  1.0 -0.0977352187
C  C761  1  0.17326000  0.70334000  0.89739000  1.0 -0.0977352187
C  C762  1  0.82674000  0.20334000  0.60261000  1.0 -0.0977352187
C  C763  1  0.32674000  0.29666000  0.39739000  1.0 -0.0977352187
C  C764  1  0.67326000  0.79666000  0.10261000  1.0 -0.0977352187
C  C765  1  0.20334000  0.60261000  0.82674000  1.0 -0.0977352187
C  C766  1  0.70334000  0.89739000  0.17326000  1.0 -0.0977352187
C  C767  1  0.79666000  0.10261000  0.67326000  1.0 -0.0977352187
C  C768  1  0.29666000  0.39739000  0.32674000  1.0 -0.0977352187
C  C769  1  0.07674000  0.14739000  0.04666000  1.0 -0.0977352187
C  C770  1  0.42326000  0.85261000  0.54666000  1.0 -0.0977352187
C  C771  1  0.92326000  0.64739000  0.45334000  1.0 -0.0977352187
C  C772  1  0.57674000  0.35261000  0.95334000  1.0 -0.0977352187
C  C773  1  0.04666000  0.07674000  0.14739000  1.0 -0.0977352187
C  C774  1  0.54666000  0.42326000  0.85261000  1.0 -0.0977352187
C  C775  1  0.45334000  0.92326000  0.64739000  1.0 -0.0977352187
C  C776  1  0.95334000  0.57674000  0.35261000  1.0 -0.0977352187
C  C777  1  0.14739000  0.04666000  0.07674000  1.0 -0.0977352187
C  C778  1  0.85261000  0.54666000  0.42326000  1.0 -0.0977352187
C  C779  1  0.64739000  0.45334000  0.92326000  1.0 -0.0977352187
C  C780  1  0.35261000  0.95334000  0.57674000  1.0 -0.0977352187
C  C781  1  0.39739000  0.82674000  0.70334000  1.0 -0.0977352187
C  C782  1  0.10261000  0.17326000  0.20334000  1.0 -0.0977352187
C  C783  1  0.89739000  0.67326000  0.29666000  1.0 -0.0977352187
C  C784  1  0.60261000  0.32674000  0.79666000  1.0 -0.0977352187
C  C785  1  0.32674000  0.79666000  0.60261000  1.0 -0.0977352187
C  C786  1  0.67326000  0.29666000  0.89739000  1.0 -0.0977352187
C  C787  1  0.17326000  0.20334000  0.10261000  1.0 -0.0977352187
C  C788  1  0.82674000  0.70334000  0.39739000  1.0 -0.0977352187
C  C789  1  0.29666000  0.89739000  0.67326000  1.0 -0.0977352187
C  C790  1  0.79666000  0.60261000  0.32674000  1.0 -0.0977352187
C  C791  1  0.70334000  0.39739000  0.82674000  1.0 -0.0977352187
C  C792  1  0.20334000  0.10261000  0.17326000  1.0 -0.0977352187
C  C793  1  0.57674000  0.64739000  0.54666000  1.0 -0.0977352187
C  C794  1  0.92326000  0.35261000  0.04666000  1.0 -0.0977352187
C  C795  1  0.42326000  0.14739000  0.95334000  1.0 -0.0977352187
C  C796  1  0.07674000  0.85261000  0.45334000  1.0 -0.0977352187
C  C797  1  0.54666000  0.57674000  0.64739000  1.0 -0.0977352187
C  C798  1  0.04666000  0.92326000  0.35261000  1.0 -0.0977352187
C  C799  1  0.95334000  0.42326000  0.14739000  1.0 -0.0977352187
C  C800  1  0.45334000  0.07674000  0.85261000  1.0 -0.0977352187
C  C801  1  0.64739000  0.54666000  0.57674000  1.0 -0.0977352187
C  C802  1  0.35261000  0.04666000  0.92326000  1.0 -0.0977352187
C  C803  1  0.14739000  0.95334000  0.42326000  1.0 -0.0977352187
C  C804  1  0.85261000  0.45334000  0.07674000  1.0 -0.0977352187
C  C805  1  0.89739000  0.32674000  0.20334000  1.0 -0.0977352187
C  C806  1  0.60261000  0.67326000  0.70334000  1.0 -0.0977352187
C  C807  1  0.39739000  0.17326000  0.79666000  1.0 -0.0977352187
C  C808  1  0.10261000  0.82674000  0.29666000  1.0 -0.0977352187
C  C809  1  0.82674000  0.29666000  0.10261000  1.0 -0.0977352187
C  C810  1  0.17326000  0.79666000  0.39739000  1.0 -0.0977352187
C  C811  1  0.67326000  0.70334000  0.60261000  1.0 -0.0977352187
C  C812  1  0.32674000  0.20334000  0.89739000  1.0 -0.0977352187
C  C813  1  0.79666000  0.39739000  0.17326000  1.0 -0.0977352187
C  C814  1  0.29666000  0.10261000  0.82674000  1.0 -0.0977352187
C  C815  1  0.20334000  0.89739000  0.32674000  1.0 -0.0977352187
C  C816  1  0.70334000  0.60261000  0.67326000  1.0 -0.0977352187
C  C817  1  0.95632000  0.82799000  0.93802000  1.0 -0.0776333918
C  C818  1  0.54368000  0.17201000  0.43802000  1.0 -0.0776333918
C  C819  1  0.04368000  0.32799000  0.56198000  1.0 -0.0776333918
C  C820  1  0.45632000  0.67201000  0.06198000  1.0 -0.0776333918
C  C821  1  0.93802000  0.95632000  0.82799000  1.0 -0.0776333918
C  C822  1  0.43802000  0.54368000  0.17201000  1.0 -0.0776333918
C  C823  1  0.56198000  0.04368000  0.32799000  1.0 -0.0776333918
C  C824  1  0.06198000  0.45632000  0.67201000  1.0 -0.0776333918
C  C825  1  0.82799000  0.93802000  0.95632000  1.0 -0.0776333918
C  C826  1  0.17201000  0.43802000  0.54368000  1.0 -0.0776333918
C  C827  1  0.32799000  0.56198000  0.04368000  1.0 -0.0776333918
C  C828  1  0.67201000  0.06198000  0.45632000  1.0 -0.0776333918
C  C829  1  0.57799000  0.20632000  0.31198000  1.0 -0.0776333918
C  C830  1  0.92201000  0.79368000  0.81198000  1.0 -0.0776333918
C  C831  1  0.07799000  0.29368000  0.68802000  1.0 -0.0776333918
C  C832  1  0.42201000  0.70632000  0.18802000  1.0 -0.0776333918
C  C833  1  0.70632000  0.18802000  0.42201000  1.0 -0.0776333918
C  C834  1  0.29368000  0.68802000  0.07799000  1.0 -0.0776333918
C  C835  1  0.79368000  0.81198000  0.92201000  1.0 -0.0776333918
C  C836  1  0.20632000  0.31198000  0.57799000  1.0 -0.0776333918
C  C837  1  0.68802000  0.07799000  0.29368000  1.0 -0.0776333918
C  C838  1  0.18802000  0.42201000  0.70632000  1.0 -0.0776333918
C  C839  1  0.31198000  0.57799000  0.20632000  1.0 -0.0776333918
C  C840  1  0.81198000  0.92201000  0.79368000  1.0 -0.0776333918
C  C841  1  0.45632000  0.32799000  0.43802000  1.0 -0.0776333918
C  C842  1  0.04368000  0.67201000  0.93802000  1.0 -0.0776333918
C  C843  1  0.54368000  0.82799000  0.06198000  1.0 -0.0776333918
C  C844  1  0.95632000  0.17201000  0.56198000  1.0 -0.0776333918
C  C845  1  0.43802000  0.45632000  0.32799000  1.0 -0.0776333918
C  C846  1  0.93802000  0.04368000  0.67201000  1.0 -0.0776333918
C  C847  1  0.06198000  0.54368000  0.82799000  1.0 -0.0776333918
C  C848  1  0.56198000  0.95632000  0.17201000  1.0 -0.0776333918
C  C849  1  0.32799000  0.43802000  0.45632000  1.0 -0.0776333918
C  C850  1  0.67201000  0.93802000  0.04368000  1.0 -0.0776333918
C  C851  1  0.82799000  0.06198000  0.54368000  1.0 -0.0776333918
C  C852  1  0.17201000  0.56198000  0.95632000  1.0 -0.0776333918
C  C853  1  0.07799000  0.70632000  0.81198000  1.0 -0.0776333918
C  C854  1  0.42201000  0.29368000  0.31198000  1.0 -0.0776333918
C  C855  1  0.57799000  0.79368000  0.18802000  1.0 -0.0776333918
C  C856  1  0.92201000  0.20632000  0.68802000  1.0 -0.0776333918
C  C857  1  0.20632000  0.68802000  0.92201000  1.0 -0.0776333918
C  C858  1  0.79368000  0.18802000  0.57799000  1.0 -0.0776333918
C  C859  1  0.29368000  0.31198000  0.42201000  1.0 -0.0776333918
C  C860  1  0.70632000  0.81198000  0.07799000  1.0 -0.0776333918
C  C861  1  0.18802000  0.57799000  0.79368000  1.0 -0.0776333918
C  C862  1  0.68802000  0.92201000  0.20632000  1.0 -0.0776333918
C  C863  1  0.81198000  0.07799000  0.70632000  1.0 -0.0776333918
C  C864  1  0.31198000  0.42201000  0.29368000  1.0 -0.0776333918
C  C865  1  0.04368000  0.17201000  0.06198000  1.0 -0.0776333918
C  C866  1  0.45632000  0.82799000  0.56198000  1.0 -0.0776333918
C  C867  1  0.95632000  0.67201000  0.43802000  1.0 -0.0776333918
C  C868  1  0.54368000  0.32799000  0.93802000  1.0 -0.0776333918
C  C869  1  0.06198000  0.04368000  0.17201000  1.0 -0.0776333918
C  C870  1  0.56198000  0.45632000  0.82799000  1.0 -0.0776333918
C  C871  1  0.43802000  0.95632000  0.67201000  1.0 -0.0776333918
C  C872  1  0.93802000  0.54368000  0.32799000  1.0 -0.0776333918
C  C873  1  0.17201000  0.06198000  0.04368000  1.0 -0.0776333918
C  C874  1  0.82799000  0.56198000  0.45632000  1.0 -0.0776333918
C  C875  1  0.67201000  0.43802000  0.95632000  1.0 -0.0776333918
C  C876  1  0.32799000  0.93802000  0.54368000  1.0 -0.0776333918
C  C877  1  0.42201000  0.79368000  0.68802000  1.0 -0.0776333918
C  C878  1  0.07799000  0.20632000  0.18802000  1.0 -0.0776333918
C  C879  1  0.92201000  0.70632000  0.31198000  1.0 -0.0776333918
C  C880  1  0.57799000  0.29368000  0.81198000  1.0 -0.0776333918
C  C881  1  0.29368000  0.81198000  0.57799000  1.0 -0.0776333918
C  C882  1  0.70632000  0.31198000  0.92201000  1.0 -0.0776333918
C  C883  1  0.20632000  0.18802000  0.07799000  1.0 -0.0776333918
C  C884  1  0.79368000  0.68802000  0.42201000  1.0 -0.0776333918
C  C885  1  0.31198000  0.92201000  0.70632000  1.0 -0.0776333918
C  C886  1  0.81198000  0.57799000  0.29368000  1.0 -0.0776333918
C  C887  1  0.68802000  0.42201000  0.79368000  1.0 -0.0776333918
C  C888  1  0.18802000  0.07799000  0.20632000  1.0 -0.0776333918
C  C889  1  0.54368000  0.67201000  0.56198000  1.0 -0.0776333918
C  C890  1  0.95632000  0.32799000  0.06198000  1.0 -0.0776333918
C  C891  1  0.45632000  0.17201000  0.93802000  1.0 -0.0776333918
C  C892  1  0.04368000  0.82799000  0.43802000  1.0 -0.0776333918
C  C893  1  0.56198000  0.54368000  0.67201000  1.0 -0.0776333918
C  C894  1  0.06198000  0.95632000  0.32799000  1.0 -0.0776333918
C  C895  1  0.93802000  0.45632000  0.17201000  1.0 -0.0776333918
C  C896  1  0.43802000  0.04368000  0.82799000  1.0 -0.0776333918
C  C897  1  0.67201000  0.56198000  0.54368000  1.0 -0.0776333918
C  C898  1  0.32799000  0.06198000  0.95632000  1.0 -0.0776333918
C  C899  1  0.17201000  0.93802000  0.45632000  1.0 -0.0776333918
C  C900  1  0.82799000  0.43802000  0.04368000  1.0 -0.0776333918
C  C901  1  0.92201000  0.29368000  0.18802000  1.0 -0.0776333918
C  C902  1  0.57799000  0.70632000  0.68802000  1.0 -0.0776333918
C  C903  1  0.42201000  0.20632000  0.81198000  1.0 -0.0776333918
C  C904  1  0.07799000  0.79368000  0.31198000  1.0 -0.0776333918
C  C905  1  0.79368000  0.31198000  0.07799000  1.0 -0.0776333918
C  C906  1  0.20632000  0.81198000  0.42201000  1.0 -0.0776333918
C  C907  1  0.70632000  0.68802000  0.57799000  1.0 -0.0776333918
C  C908  1  0.29368000  0.18802000  0.92201000  1.0 -0.0776333918
C  C909  1  0.81198000  0.42201000  0.20632000  1.0 -0.0776333918
C  C910  1  0.31198000  0.07799000  0.79368000  1.0 -0.0776333918
C  C911  1  0.18802000  0.92201000  0.29368000  1.0 -0.0776333918
C  C912  1  0.68802000  0.57799000  0.70632000  1.0 -0.0776333918
N  N1  1  0.04239000  0.78305000  0.02503000  1.0 -0.1784043737
N  N2  1  0.45761000  0.21695000  0.52503000  1.0 -0.1784043737
N  N3  1  0.95761000  0.28305000  0.47497000  1.0 -0.1784043737
N  N4  1  0.54239000  0.71695000  0.97497000  1.0 -0.1784043737
N  N5  1  0.02503000  0.04239000  0.78305000  1.0 -0.1784043737
N  N6  1  0.52503000  0.45761000  0.21695000  1.0 -0.1784043737
N  N7  1  0.47497000  0.95761000  0.28305000  1.0 -0.1784043737
N  N8  1  0.97497000  0.54239000  0.71695000  1.0 -0.1784043737
N  N9  1  0.78305000  0.02503000  0.04239000  1.0 -0.1784043737
N  N10  1  0.21695000  0.52503000  0.45761000  1.0 -0.1784043737
N  N11  1  0.28305000  0.47497000  0.95761000  1.0 -0.1784043737
N  N12  1  0.71695000  0.97497000  0.54239000  1.0 -0.1784043737
N  N13  1  0.53305000  0.29239000  0.22497000  1.0 -0.1784043737
N  N14  1  0.96695000  0.70761000  0.72497000  1.0 -0.1784043737
N  N15  1  0.03305000  0.20761000  0.77503000  1.0 -0.1784043737
N  N16  1  0.46695000  0.79239000  0.27503000  1.0 -0.1784043737
N  N17  1  0.79239000  0.27503000  0.46695000  1.0 -0.1784043737
N  N18  1  0.20761000  0.77503000  0.03305000  1.0 -0.1784043737
N  N19  1  0.70761000  0.72497000  0.96695000  1.0 -0.1784043737
N  N20  1  0.29239000  0.22497000  0.53305000  1.0 -0.1784043737
N  N21  1  0.77503000  0.03305000  0.20761000  1.0 -0.1784043737
N  N22  1  0.27503000  0.46695000  0.79239000  1.0 -0.1784043737
N  N23  1  0.22497000  0.53305000  0.29239000  1.0 -0.1784043737
N  N24  1  0.72497000  0.96695000  0.70761000  1.0 -0.1784043737
N  N25  1  0.54239000  0.28305000  0.52503000  1.0 -0.1784043737
N  N26  1  0.95761000  0.71695000  0.02503000  1.0 -0.1784043737
N  N27  1  0.45761000  0.78305000  0.97497000  1.0 -0.1784043737
N  N28  1  0.04239000  0.21695000  0.47497000  1.0 -0.1784043737
N  N29  1  0.52503000  0.54239000  0.28305000  1.0 -0.1784043737
N  N30  1  0.02503000  0.95761000  0.71695000  1.0 -0.1784043737
N  N31  1  0.97497000  0.45761000  0.78305000  1.0 -0.1784043737
N  N32  1  0.47497000  0.04239000  0.21695000  1.0 -0.1784043737
N  N33  1  0.28305000  0.52503000  0.54239000  1.0 -0.1784043737
N  N34  1  0.71695000  0.02503000  0.95761000  1.0 -0.1784043737
N  N35  1  0.78305000  0.97497000  0.45761000  1.0 -0.1784043737
N  N36  1  0.21695000  0.47497000  0.04239000  1.0 -0.1784043737
N  N37  1  0.03305000  0.79239000  0.72497000  1.0 -0.1784043737
N  N38  1  0.46695000  0.20761000  0.22497000  1.0 -0.1784043737
N  N39  1  0.53305000  0.70761000  0.27503000  1.0 -0.1784043737
N  N40  1  0.96695000  0.29239000  0.77503000  1.0 -0.1784043737
N  N41  1  0.29239000  0.77503000  0.96695000  1.0 -0.1784043737
N  N42  1  0.70761000  0.27503000  0.53305000  1.0 -0.1784043737
N  N43  1  0.20761000  0.22497000  0.46695000  1.0 -0.1784043737
N  N44  1  0.79239000  0.72497000  0.03305000  1.0 -0.1784043737
N  N45  1  0.27503000  0.53305000  0.70761000  1.0 -0.1784043737
N  N46  1  0.77503000  0.96695000  0.29239000  1.0 -0.1784043737
N  N47  1  0.72497000  0.03305000  0.79239000  1.0 -0.1784043737
N  N48  1  0.22497000  0.46695000  0.20761000  1.0 -0.1784043737
N  N49  1  0.95761000  0.21695000  0.97497000  1.0 -0.1784043737
N  N50  1  0.54239000  0.78305000  0.47497000  1.0 -0.1784043737
N  N51  1  0.04239000  0.71695000  0.52503000  1.0 -0.1784043737
N  N52  1  0.45761000  0.28305000  0.02503000  1.0 -0.1784043737
N  N53  1  0.97497000  0.95761000  0.21695000  1.0 -0.1784043737
N  N54  1  0.47497000  0.54239000  0.78305000  1.0 -0.1784043737
N  N55  1  0.52503000  0.04239000  0.71695000  1.0 -0.1784043737
N  N56  1  0.02503000  0.45761000  0.28305000  1.0 -0.1784043737
N  N57  1  0.21695000  0.97497000  0.95761000  1.0 -0.1784043737
N  N58  1  0.78305000  0.47497000  0.54239000  1.0 -0.1784043737
N  N59  1  0.71695000  0.52503000  0.04239000  1.0 -0.1784043737
N  N60  1  0.28305000  0.02503000  0.45761000  1.0 -0.1784043737
N  N61  1  0.46695000  0.70761000  0.77503000  1.0 -0.1784043737
N  N62  1  0.03305000  0.29239000  0.27503000  1.0 -0.1784043737
N  N63  1  0.96695000  0.79239000  0.22497000  1.0 -0.1784043737
N  N64  1  0.53305000  0.20761000  0.72497000  1.0 -0.1784043737
N  N65  1  0.20761000  0.72497000  0.53305000  1.0 -0.1784043737
N  N66  1  0.79239000  0.22497000  0.96695000  1.0 -0.1784043737
N  N67  1  0.29239000  0.27503000  0.03305000  1.0 -0.1784043737
N  N68  1  0.70761000  0.77503000  0.46695000  1.0 -0.1784043737
N  N69  1  0.22497000  0.96695000  0.79239000  1.0 -0.1784043737
N  N70  1  0.72497000  0.53305000  0.20761000  1.0 -0.1784043737
N  N71  1  0.77503000  0.46695000  0.70761000  1.0 -0.1784043737
N  N72  1  0.27503000  0.03305000  0.29239000  1.0 -0.1784043737
N  N73  1  0.45761000  0.71695000  0.47497000  1.0 -0.1784043737
N  N74  1  0.04239000  0.28305000  0.97497000  1.0 -0.1784043737
N  N75  1  0.54239000  0.21695000  0.02503000  1.0 -0.1784043737
N  N76  1  0.95761000  0.78305000  0.52503000  1.0 -0.1784043737
N  N77  1  0.47497000  0.45761000  0.71695000  1.0 -0.1784043737
N  N78  1  0.97497000  0.04239000  0.28305000  1.0 -0.1784043737
N  N79  1  0.02503000  0.54239000  0.21695000  1.0 -0.1784043737
N  N80  1  0.52503000  0.95761000  0.78305000  1.0 -0.1784043737
N  N81  1  0.71695000  0.47497000  0.45761000  1.0 -0.1784043737
N  N82  1  0.28305000  0.97497000  0.04239000  1.0 -0.1784043737
N  N83  1  0.21695000  0.02503000  0.54239000  1.0 -0.1784043737
N  N84  1  0.78305000  0.52503000  0.95761000  1.0 -0.1784043737
N  N85  1  0.96695000  0.20761000  0.27503000  1.0 -0.1784043737
N  N86  1  0.53305000  0.79239000  0.77503000  1.0 -0.1784043737
N  N87  1  0.46695000  0.29239000  0.72497000  1.0 -0.1784043737
N  N88  1  0.03305000  0.70761000  0.22497000  1.0 -0.1784043737
N  N89  1  0.70761000  0.22497000  0.03305000  1.0 -0.1784043737
N  N90  1  0.29239000  0.72497000  0.46695000  1.0 -0.1784043737
N  N91  1  0.79239000  0.77503000  0.53305000  1.0 -0.1784043737
N  N92  1  0.20761000  0.27503000  0.96695000  1.0 -0.1784043737
N  N93  1  0.72497000  0.46695000  0.29239000  1.0 -0.1784043737
N  N94  1  0.22497000  0.03305000  0.70761000  1.0 -0.1784043737
N  N95  1  0.27503000  0.96695000  0.20761000  1.0 -0.1784043737
N  N96  1  0.77503000  0.53305000  0.79239000  1.0 -0.1784043737
N  N97  1  0.00914000  0.79965000  0.04052000  1.0 -0.0977352187
N  N98  1  0.49086000  0.20035000  0.54052000  1.0 -0.0977352187
N  N99  1  0.99086000  0.29965000  0.45948000  1.0 -0.0977352187
N  N100  1  0.50914000  0.70035000  0.95948000  1.0 -0.0977352187
N  N101  1  0.04052000  0.00914000  0.79965000  1.0 -0.0977352187
N  N102  1  0.54052000  0.49086000  0.20035000  1.0 -0.0977352187
N  N103  1  0.45948000  0.99086000  0.29965000  1.0 -0.0977352187
N  N104  1  0.95948000  0.50914000  0.70035000  1.0 -0.0977352187
N  N105  1  0.79965000  0.04052000  0.00914000  1.0 -0.0977352187
N  N106  1  0.20035000  0.54052000  0.49086000  1.0 -0.0977352187
N  N107  1  0.29965000  0.45948000  0.99086000  1.0 -0.0977352187
N  N108  1  0.70035000  0.95948000  0.50914000  1.0 -0.0977352187
N  N109  1  0.54965000  0.25914000  0.20948000  1.0 -0.0977352187
N  N110  1  0.95035000  0.74086000  0.70948000  1.0 -0.0977352187
N  N111  1  0.04965000  0.24086000  0.79052000  1.0 -0.0977352187
N  N112  1  0.45035000  0.75914000  0.29052000  1.0 -0.0977352187
N  N113  1  0.75914000  0.29052000  0.45035000  1.0 -0.0977352187
N  N114  1  0.24086000  0.79052000  0.04965000  1.0 -0.0977352187
N  N115  1  0.74086000  0.70948000  0.95035000  1.0 -0.0977352187
N  N116  1  0.25914000  0.20948000  0.54965000  1.0 -0.0977352187
N  N117  1  0.79052000  0.04965000  0.24086000  1.0 -0.0977352187
N  N118  1  0.29052000  0.45035000  0.75914000  1.0 -0.0977352187
N  N119  1  0.20948000  0.54965000  0.25914000  1.0 -0.0977352187
N  N120  1  0.70948000  0.95035000  0.74086000  1.0 -0.0977352187
N  N121  1  0.50914000  0.29965000  0.54052000  1.0 -0.0977352187
N  N122  1  0.99086000  0.70035000  0.04052000  1.0 -0.0977352187
N  N123  1  0.49086000  0.79965000  0.95948000  1.0 -0.0977352187
N  N124  1  0.00914000  0.20035000  0.45948000  1.0 -0.0977352187
N  N125  1  0.54052000  0.50914000  0.29965000  1.0 -0.0977352187
N  N126  1  0.04052000  0.99086000  0.70035000  1.0 -0.0977352187
N  N127  1  0.95948000  0.49086000  0.79965000  1.0 -0.0977352187
N  N128  1  0.45948000  0.00914000  0.20035000  1.0 -0.0977352187
N  N129  1  0.29965000  0.54052000  0.50914000  1.0 -0.0977352187
N  N130  1  0.70035000  0.04052000  0.99086000  1.0 -0.0977352187
N  N131  1  0.79965000  0.95948000  0.49086000  1.0 -0.0977352187
N  N132  1  0.20035000  0.45948000  0.00914000  1.0 -0.0977352187
N  N133  1  0.04965000  0.75914000  0.70948000  1.0 -0.0977352187
N  N134  1  0.45035000  0.24086000  0.20948000  1.0 -0.0977352187
N  N135  1  0.54965000  0.74086000  0.29052000  1.0 -0.0977352187
N  N136  1  0.95035000  0.25914000  0.79052000  1.0 -0.0977352187
N  N137  1  0.25914000  0.79052000  0.95035000  1.0 -0.0977352187
N  N138  1  0.74086000  0.29052000  0.54965000  1.0 -0.0977352187
N  N139  1  0.24086000  0.20948000  0.45035000  1.0 -0.0977352187
N  N140  1  0.75914000  0.70948000  0.04965000  1.0 -0.0977352187
N  N141  1  0.29052000  0.54965000  0.74086000  1.0 -0.0977352187
N  N142  1  0.79052000  0.95035000  0.25914000  1.0 -0.0977352187
N  N143  1  0.70948000  0.04965000  0.75914000  1.0 -0.0977352187
N  N144  1  0.20948000  0.45035000  0.24086000  1.0 -0.0977352187
N  N145  1  0.99086000  0.20035000  0.95948000  1.0 -0.0977352187
N  N146  1  0.50914000  0.79965000  0.45948000  1.0 -0.0977352187
N  N147  1  0.00914000  0.70035000  0.54052000  1.0 -0.0977352187
N  N148  1  0.49086000  0.29965000  0.04052000  1.0 -0.0977352187
N  N149  1  0.95948000  0.99086000  0.20035000  1.0 -0.0977352187
N  N150  1  0.45948000  0.50914000  0.79965000  1.0 -0.0977352187
N  N151  1  0.54052000  0.00914000  0.70035000  1.0 -0.0977352187
N  N152  1  0.04052000  0.49086000  0.29965000  1.0 -0.0977352187
N  N153  1  0.20035000  0.95948000  0.99086000  1.0 -0.0977352187
N  N154  1  0.79965000  0.45948000  0.50914000  1.0 -0.0977352187
N  N155  1  0.70035000  0.54052000  0.00914000  1.0 -0.0977352187
N  N156  1  0.29965000  0.04052000  0.49086000  1.0 -0.0977352187
N  N157  1  0.45035000  0.74086000  0.79052000  1.0 -0.0977352187
N  N158  1  0.04965000  0.25914000  0.29052000  1.0 -0.0977352187
N  N159  1  0.95035000  0.75914000  0.20948000  1.0 -0.0977352187
N  N160  1  0.54965000  0.24086000  0.70948000  1.0 -0.0977352187
N  N161  1  0.24086000  0.70948000  0.54965000  1.0 -0.0977352187
N  N162  1  0.75914000  0.20948000  0.95035000  1.0 -0.0977352187
N  N163  1  0.25914000  0.29052000  0.04965000  1.0 -0.0977352187
N  N164  1  0.74086000  0.79052000  0.45035000  1.0 -0.0977352187
N  N165  1  0.20948000  0.95035000  0.75914000  1.0 -0.0977352187
N  N166  1  0.70948000  0.54965000  0.24086000  1.0 -0.0977352187
N  N167  1  0.79052000  0.45035000  0.74086000  1.0 -0.0977352187
N  N168  1  0.29052000  0.04965000  0.25914000  1.0 -0.0977352187
N  N169  1  0.49086000  0.70035000  0.45948000  1.0 -0.0977352187
N  N170  1  0.00914000  0.29965000  0.95948000  1.0 -0.0977352187
N  N171  1  0.50914000  0.20035000  0.04052000  1.0 -0.0977352187
N  N172  1  0.99086000  0.79965000  0.54052000  1.0 -0.0977352187
N  N173  1  0.45948000  0.49086000  0.70035000  1.0 -0.0977352187
N  N174  1  0.95948000  0.00914000  0.29965000  1.0 -0.0977352187
N  N175  1  0.04052000  0.50914000  0.20035000  1.0 -0.0977352187
N  N176  1  0.54052000  0.99086000  0.79965000  1.0 -0.0977352187
N  N177  1  0.70035000  0.45948000  0.49086000  1.0 -0.0977352187
N  N178  1  0.29965000  0.95948000  0.00914000  1.0 -0.0977352187
N  N179  1  0.20035000  0.04052000  0.50914000  1.0 -0.0977352187
N  N180  1  0.79965000  0.54052000  0.99086000  1.0 -0.0977352187
N  N181  1  0.95035000  0.24086000  0.29052000  1.0 -0.0977352187
N  N182  1  0.54965000  0.75914000  0.79052000  1.0 -0.0977352187
N  N183  1  0.45035000  0.25914000  0.70948000  1.0 -0.0977352187
N  N184  1  0.04965000  0.74086000  0.20948000  1.0 -0.0977352187
N  N185  1  0.74086000  0.20948000  0.04965000  1.0 -0.0977352187
N  N186  1  0.25914000  0.70948000  0.45035000  1.0 -0.0977352187
N  N187  1  0.75914000  0.79052000  0.54965000  1.0 -0.0977352187
N  N188  1  0.24086000  0.29052000  0.95035000  1.0 -0.0977352187
N  N189  1  0.70948000  0.45035000  0.25914000  1.0 -0.0977352187
N  N190  1  0.20948000  0.04965000  0.74086000  1.0 -0.0977352187
N  N191  1  0.29052000  0.95035000  0.24086000  1.0 -0.0977352187
N  N192  1  0.79052000  0.54965000  0.75914000  1.0 -0.0977352187
N  N193  1  0.05757000  0.75093000  0.09543000  1.0 -0.3556293178
N  N194  1  0.44243000  0.24907000  0.59543000  1.0 -0.3556293178
N  N195  1  0.94243000  0.25093000  0.40457000  1.0 -0.3556293178
N  N196  1  0.55757000  0.74907000  0.90457000  1.0 -0.3556293178
N  N197  1  0.09543000  0.05757000  0.75093000  1.0 -0.3556293178
N  N198  1  0.59543000  0.44243000  0.24907000  1.0 -0.3556293178
N  N199  1  0.40457000  0.94243000  0.25093000  1.0 -0.3556293178
N  N200  1  0.90457000  0.55757000  0.74907000  1.0 -0.3556293178
N  N201  1  0.75093000  0.09543000  0.05757000  1.0 -0.3556293178
N  N202  1  0.24907000  0.59543000  0.44243000  1.0 -0.3556293178
N  N203  1  0.25093000  0.40457000  0.94243000  1.0 -0.3556293178
N  N204  1  0.74907000  0.90457000  0.55757000  1.0 -0.3556293178
N  N205  1  0.50093000  0.30757000  0.15457000  1.0 -0.3556293178
N  N206  1  0.99907000  0.69243000  0.65457000  1.0 -0.3556293178
N  N207  1  0.00093000  0.19243000  0.84543000  1.0 -0.3556293178
N  N208  1  0.49907000  0.80757000  0.34543000  1.0 -0.3556293178
N  N209  1  0.80757000  0.34543000  0.49907000  1.0 -0.3556293178
N  N210  1  0.19243000  0.84543000  0.00093000  1.0 -0.3556293178
N  N211  1  0.69243000  0.65457000  0.99907000  1.0 -0.3556293178
N  N212  1  0.30757000  0.15457000  0.50093000  1.0 -0.3556293178
N  N213  1  0.84543000  0.00093000  0.19243000  1.0 -0.3556293178
N  N214  1  0.34543000  0.49907000  0.80757000  1.0 -0.3556293178
N  N215  1  0.15457000  0.50093000  0.30757000  1.0 -0.3556293178
N  N216  1  0.65457000  0.99907000  0.69243000  1.0 -0.3556293178
N  N217  1  0.55757000  0.25093000  0.59543000  1.0 -0.3556293178
N  N218  1  0.94243000  0.74907000  0.09543000  1.0 -0.3556293178
N  N219  1  0.44243000  0.75093000  0.90457000  1.0 -0.3556293178
N  N220  1  0.05757000  0.24907000  0.40457000  1.0 -0.3556293178
N  N221  1  0.59543000  0.55757000  0.25093000  1.0 -0.3556293178
N  N222  1  0.09543000  0.94243000  0.74907000  1.0 -0.3556293178
N  N223  1  0.90457000  0.44243000  0.75093000  1.0 -0.3556293178
N  N224  1  0.40457000  0.05757000  0.24907000  1.0 -0.3556293178
N  N225  1  0.25093000  0.59543000  0.55757000  1.0 -0.3556293178
N  N226  1  0.74907000  0.09543000  0.94243000  1.0 -0.3556293178
N  N227  1  0.75093000  0.90457000  0.44243000  1.0 -0.3556293178
N  N228  1  0.24907000  0.40457000  0.05757000  1.0 -0.3556293178
N  N229  1  0.00093000  0.80757000  0.65457000  1.0 -0.3556293178
N  N230  1  0.49907000  0.19243000  0.15457000  1.0 -0.3556293178
N  N231  1  0.50093000  0.69243000  0.34543000  1.0 -0.3556293178
N  N232  1  0.99907000  0.30757000  0.84543000  1.0 -0.3556293178
N  N233  1  0.30757000  0.84543000  0.99907000  1.0 -0.3556293178
N  N234  1  0.69243000  0.34543000  0.50093000  1.0 -0.3556293178
N  N235  1  0.19243000  0.15457000  0.49907000  1.0 -0.3556293178
N  N236  1  0.80757000  0.65457000  0.00093000  1.0 -0.3556293178
N  N237  1  0.34543000  0.50093000  0.69243000  1.0 -0.3556293178
N  N238  1  0.84543000  0.99907000  0.30757000  1.0 -0.3556293178
N  N239  1  0.65457000  0.00093000  0.80757000  1.0 -0.3556293178
N  N240  1  0.15457000  0.49907000  0.19243000  1.0 -0.3556293178
N  N241  1  0.94243000  0.24907000  0.90457000  1.0 -0.3556293178
N  N242  1  0.55757000  0.75093000  0.40457000  1.0 -0.3556293178
N  N243  1  0.05757000  0.74907000  0.59543000  1.0 -0.3556293178
N  N244  1  0.44243000  0.25093000  0.09543000  1.0 -0.3556293178
N  N245  1  0.90457000  0.94243000  0.24907000  1.0 -0.3556293178
N  N246  1  0.40457000  0.55757000  0.75093000  1.0 -0.3556293178
N  N247  1  0.59543000  0.05757000  0.74907000  1.0 -0.3556293178
N  N248  1  0.09543000  0.44243000  0.25093000  1.0 -0.3556293178
N  N249  1  0.24907000  0.90457000  0.94243000  1.0 -0.3556293178
N  N250  1  0.75093000  0.40457000  0.55757000  1.0 -0.3556293178
N  N251  1  0.74907000  0.59543000  0.05757000  1.0 -0.3556293178
N  N252  1  0.25093000  0.09543000  0.44243000  1.0 -0.3556293178
N  N253  1  0.49907000  0.69243000  0.84543000  1.0 -0.3556293178
N  N254  1  0.00093000  0.30757000  0.34543000  1.0 -0.3556293178
N  N255  1  0.99907000  0.80757000  0.15457000  1.0 -0.3556293178
N  N256  1  0.50093000  0.19243000  0.65457000  1.0 -0.3556293178
N  N257  1  0.19243000  0.65457000  0.50093000  1.0 -0.3556293178
N  N258  1  0.80757000  0.15457000  0.99907000  1.0 -0.3556293178
N  N259  1  0.30757000  0.34543000  0.00093000  1.0 -0.3556293178
N  N260  1  0.69243000  0.84543000  0.49907000  1.0 -0.3556293178
N  N261  1  0.15457000  0.99907000  0.80757000  1.0 -0.3556293178
N  N262  1  0.65457000  0.50093000  0.19243000  1.0 -0.3556293178
N  N263  1  0.84543000  0.49907000  0.69243000  1.0 -0.3556293178
N  N264  1  0.34543000  0.00093000  0.30757000  1.0 -0.3556293178
N  N265  1  0.44243000  0.74907000  0.40457000  1.0 -0.3556293178
N  N266  1  0.05757000  0.25093000  0.90457000  1.0 -0.3556293178
N  N267  1  0.55757000  0.24907000  0.09543000  1.0 -0.3556293178
N  N268  1  0.94243000  0.75093000  0.59543000  1.0 -0.3556293178
N  N269  1  0.40457000  0.44243000  0.74907000  1.0 -0.3556293178
N  N270  1  0.90457000  0.05757000  0.25093000  1.0 -0.3556293178
N  N271  1  0.09543000  0.55757000  0.24907000  1.0 -0.3556293178
N  N272  1  0.59543000  0.94243000  0.75093000  1.0 -0.3556293178
N  N273  1  0.74907000  0.40457000  0.44243000  1.0 -0.3556293178
N  N274  1  0.25093000  0.90457000  0.05757000  1.0 -0.3556293178
N  N275  1  0.24907000  0.09543000  0.55757000  1.0 -0.3556293178
N  N276  1  0.75093000  0.59543000  0.94243000  1.0 -0.3556293178
N  N277  1  0.99907000  0.19243000  0.34543000  1.0 -0.3556293178
N  N278  1  0.50093000  0.80757000  0.84543000  1.0 -0.3556293178
N  N279  1  0.49907000  0.30757000  0.65457000  1.0 -0.3556293178
N  N280  1  0.00093000  0.69243000  0.15457000  1.0 -0.3556293178
N  N281  1  0.69243000  0.15457000  0.00093000  1.0 -0.3556293178
N  N282  1  0.30757000  0.65457000  0.49907000  1.0 -0.3556293178
N  N283  1  0.80757000  0.84543000  0.50093000  1.0 -0.3556293178
N  N284  1  0.19243000  0.34543000  0.99907000  1.0 -0.3556293178
N  N285  1  0.65457000  0.49907000  0.30757000  1.0 -0.3556293178
N  N286  1  0.15457000  0.00093000  0.69243000  1.0 -0.3556293178
N  N287  1  0.34543000  0.99907000  0.19243000  1.0 -0.3556293178
N  N288  1  0.84543000  0.50093000  0.80757000  1.0 -0.3556293178
N  N289  1  0.10572000  0.74729000  0.04395000  1.0 -0.0366323819
N  N290  1  0.39428000  0.25271000  0.54395000  1.0 -0.0366323819
N  N291  1  0.89428000  0.24729000  0.45605000  1.0 -0.0366323819
N  N292  1  0.60572000  0.75271000  0.95605000  1.0 -0.0366323819
N  N293  1  0.04395000  0.10572000  0.74729000  1.0 -0.0366323819
N  N294  1  0.54395000  0.39428000  0.25271000  1.0 -0.0366323819
N  N295  1  0.45605000  0.89428000  0.24729000  1.0 -0.0366323819
N  N296  1  0.95605000  0.60572000  0.75271000  1.0 -0.0366323819
N  N297  1  0.74729000  0.04395000  0.10572000  1.0 -0.0366323819
N  N298  1  0.25271000  0.54395000  0.39428000  1.0 -0.0366323819
N  N299  1  0.24729000  0.45605000  0.89428000  1.0 -0.0366323819
N  N300  1  0.75271000  0.95605000  0.60572000  1.0 -0.0366323819
N  N301  1  0.49729000  0.35572000  0.20605000  1.0 -0.0366323819
N  N302  1  0.00271000  0.64428000  0.70605000  1.0 -0.0366323819
N  N303  1  0.99729000  0.14428000  0.79395000  1.0 -0.0366323819
N  N304  1  0.50271000  0.85572000  0.29395000  1.0 -0.0366323819
N  N305  1  0.85572000  0.29395000  0.50271000  1.0 -0.0366323819
N  N306  1  0.14428000  0.79395000  0.99729000  1.0 -0.0366323819
N  N307  1  0.64428000  0.70605000  0.00271000  1.0 -0.0366323819
N  N308  1  0.35572000  0.20605000  0.49729000  1.0 -0.0366323819
N  N309  1  0.79395000  0.99729000  0.14428000  1.0 -0.0366323819
N  N310  1  0.29395000  0.50271000  0.85572000  1.0 -0.0366323819
N  N311  1  0.20605000  0.49729000  0.35572000  1.0 -0.0366323819
N  N312  1  0.70605000  0.00271000  0.64428000  1.0 -0.0366323819
N  N313  1  0.60572000  0.24729000  0.54395000  1.0 -0.0366323819
N  N314  1  0.89428000  0.75271000  0.04395000  1.0 -0.0366323819
N  N315  1  0.39428000  0.74729000  0.95605000  1.0 -0.0366323819
N  N316  1  0.10572000  0.25271000  0.45605000  1.0 -0.0366323819
N  N317  1  0.54395000  0.60572000  0.24729000  1.0 -0.0366323819
N  N318  1  0.04395000  0.89428000  0.75271000  1.0 -0.0366323819
N  N319  1  0.95605000  0.39428000  0.74729000  1.0 -0.0366323819
N  N320  1  0.45605000  0.10572000  0.25271000  1.0 -0.0366323819
N  N321  1  0.24729000  0.54395000  0.60572000  1.0 -0.0366323819
N  N322  1  0.75271000  0.04395000  0.89428000  1.0 -0.0366323819
N  N323  1  0.74729000  0.95605000  0.39428000  1.0 -0.0366323819
N  N324  1  0.25271000  0.45605000  0.10572000  1.0 -0.0366323819
N  N325  1  0.99729000  0.85572000  0.70605000  1.0 -0.0366323819
N  N326  1  0.50271000  0.14428000  0.20605000  1.0 -0.0366323819
N  N327  1  0.49729000  0.64428000  0.29395000  1.0 -0.0366323819
N  N328  1  0.00271000  0.35572000  0.79395000  1.0 -0.0366323819
N  N329  1  0.35572000  0.79395000  0.00271000  1.0 -0.0366323819
N  N330  1  0.64428000  0.29395000  0.49729000  1.0 -0.0366323819
N  N331  1  0.14428000  0.20605000  0.50271000  1.0 -0.0366323819
N  N332  1  0.85572000  0.70605000  0.99729000  1.0 -0.0366323819
N  N333  1  0.29395000  0.49729000  0.64428000  1.0 -0.0366323819
N  N334  1  0.79395000  0.00271000  0.35572000  1.0 -0.0366323819
N  N335  1  0.70605000  0.99729000  0.85572000  1.0 -0.0366323819
N  N336  1  0.20605000  0.50271000  0.14428000  1.0 -0.0366323819
N  N337  1  0.89428000  0.25271000  0.95605000  1.0 -0.0366323819
N  N338  1  0.60572000  0.74729000  0.45605000  1.0 -0.0366323819
N  N339  1  0.10572000  0.75271000  0.54395000  1.0 -0.0366323819
N  N340  1  0.39428000  0.24729000  0.04395000  1.0 -0.0366323819
N  N341  1  0.95605000  0.89428000  0.25271000  1.0 -0.0366323819
N  N342  1  0.45605000  0.60572000  0.74729000  1.0 -0.0366323819
N  N343  1  0.54395000  0.10572000  0.75271000  1.0 -0.0366323819
N  N344  1  0.04395000  0.39428000  0.24729000  1.0 -0.0366323819
N  N345  1  0.25271000  0.95605000  0.89428000  1.0 -0.0366323819
N  N346  1  0.74729000  0.45605000  0.60572000  1.0 -0.0366323819
N  N347  1  0.75271000  0.54395000  0.10572000  1.0 -0.0366323819
N  N348  1  0.24729000  0.04395000  0.39428000  1.0 -0.0366323819
N  N349  1  0.50271000  0.64428000  0.79395000  1.0 -0.0366323819
N  N350  1  0.99729000  0.35572000  0.29395000  1.0 -0.0366323819
N  N351  1  0.00271000  0.85572000  0.20605000  1.0 -0.0366323819
N  N352  1  0.49729000  0.14428000  0.70605000  1.0 -0.0366323819
N  N353  1  0.14428000  0.70605000  0.49729000  1.0 -0.0366323819
N  N354  1  0.85572000  0.20605000  0.00271000  1.0 -0.0366323819
N  N355  1  0.35572000  0.29395000  0.99729000  1.0 -0.0366323819
N  N356  1  0.64428000  0.79395000  0.50271000  1.0 -0.0366323819
N  N357  1  0.20605000  0.00271000  0.85572000  1.0 -0.0366323819
N  N358  1  0.70605000  0.49729000  0.14428000  1.0 -0.0366323819
N  N359  1  0.79395000  0.50271000  0.64428000  1.0 -0.0366323819
N  N360  1  0.29395000  0.99729000  0.35572000  1.0 -0.0366323819
N  N361  1  0.39428000  0.75271000  0.45605000  1.0 -0.0366323819
N  N362  1  0.10572000  0.24729000  0.95605000  1.0 -0.0366323819
N  N363  1  0.60572000  0.25271000  0.04395000  1.0 -0.0366323819
N  N364  1  0.89428000  0.74729000  0.54395000  1.0 -0.0366323819
N  N365  1  0.45605000  0.39428000  0.75271000  1.0 -0.0366323819
N  N366  1  0.95605000  0.10572000  0.24729000  1.0 -0.0366323819
N  N367  1  0.04395000  0.60572000  0.25271000  1.0 -0.0366323819
N  N368  1  0.54395000  0.89428000  0.74729000  1.0 -0.0366323819
N  N369  1  0.75271000  0.45605000  0.39428000  1.0 -0.0366323819
N  N370  1  0.24729000  0.95605000  0.10572000  1.0 -0.0366323819
N  N371  1  0.25271000  0.04395000  0.60572000  1.0 -0.0366323819
N  N372  1  0.74729000  0.54395000  0.89428000  1.0 -0.0366323819
N  N373  1  0.00271000  0.14428000  0.29395000  1.0 -0.0366323819
N  N374  1  0.49729000  0.85572000  0.79395000  1.0 -0.0366323819
N  N375  1  0.50271000  0.35572000  0.70605000  1.0 -0.0366323819
N  N376  1  0.99729000  0.64428000  0.20605000  1.0 -0.0366323819
N  N377  1  0.64428000  0.20605000  0.99729000  1.0 -0.0366323819
N  N378  1  0.35572000  0.70605000  0.50271000  1.0 -0.0366323819
N  N379  1  0.85572000  0.79395000  0.49729000  1.0 -0.0366323819
N  N380  1  0.14428000  0.29395000  0.00271000  1.0 -0.0366323819
N  N381  1  0.70605000  0.50271000  0.35572000  1.0 -0.0366323819
N  N382  1  0.20605000  0.99729000  0.64428000  1.0 -0.0366323819
N  N383  1  0.29395000  0.00271000  0.14428000  1.0 -0.0366323819
N  N384  1  0.79395000  0.49729000  0.85572000  1.0 -0.0366323819
F  F1  1  0.31437000  0.84869000  0.40010000  1.0 -0.4526413887
F  F2  1  0.34990000  0.90131000  0.43563000  1.0 -0.4526413887
F  F3  1  0.31530000  0.84963000  0.47184000  1.0 -0.4526413887
F  F4  1  0.27816000  0.90037000  0.43470000  1.0 -0.4526413887
F  F5  1  0.81437000  0.65131000  0.59990000  1.0 -0.4526413887
F  F6  1  0.84990000  0.59869000  0.56437000  1.0 -0.4526413887
F  F7  1  0.81530000  0.65037000  0.52816000  1.0 -0.4526413887
F  F8  1  0.77816000  0.59963000  0.56530000  1.0 -0.4526413887
F  F9  1  0.68563000  0.34869000  0.09990000  1.0 -0.4526413887
F  F10  1  0.65010000  0.40131000  0.06437000  1.0 -0.4526413887
F  F11  1  0.68470000  0.34963000  0.02816000  1.0 -0.4526413887
F  F12  1  0.72184000  0.40037000  0.06530000  1.0 -0.4526413887
F  F13  1  0.18563000  0.15131000  0.90010000  1.0 -0.4526413887
F  F14  1  0.15010000  0.09869000  0.93563000  1.0 -0.4526413887
F  F15  1  0.18470000  0.15037000  0.97184000  1.0 -0.4526413887
F  F16  1  0.22184000  0.09963000  0.93470000  1.0 -0.4526413887
F  F17  1  0.59990000  0.81437000  0.65131000  1.0 -0.4526413887
F  F18  1  0.56437000  0.84990000  0.59869000  1.0 -0.4526413887
F  F19  1  0.52816000  0.81530000  0.65037000  1.0 -0.4526413887
F  F20  1  0.56530000  0.77816000  0.59963000  1.0 -0.4526413887
F  F21  1  0.40010000  0.31437000  0.84869000  1.0 -0.4526413887
F  F22  1  0.43563000  0.34990000  0.90131000  1.0 -0.4526413887
F  F23  1  0.47184000  0.31530000  0.84963000  1.0 -0.4526413887
F  F24  1  0.43470000  0.27816000  0.90037000  1.0 -0.4526413887
F  F25  1  0.90010000  0.18563000  0.15131000  1.0 -0.4526413887
F  F26  1  0.93563000  0.15010000  0.09869000  1.0 -0.4526413887
F  F27  1  0.97184000  0.18470000  0.15037000  1.0 -0.4526413887
F  F28  1  0.93470000  0.22184000  0.09963000  1.0 -0.4526413887
F  F29  1  0.09990000  0.68563000  0.34869000  1.0 -0.4526413887
F  F30  1  0.06437000  0.65010000  0.40131000  1.0 -0.4526413887
F  F31  1  0.02816000  0.68470000  0.34963000  1.0 -0.4526413887
F  F32  1  0.06530000  0.72184000  0.40037000  1.0 -0.4526413887
F  F33  1  0.34869000  0.09990000  0.68563000  1.0 -0.4526413887
F  F34  1  0.40131000  0.06437000  0.65010000  1.0 -0.4526413887
F  F35  1  0.34963000  0.02816000  0.68470000  1.0 -0.4526413887
F  F36  1  0.40037000  0.06530000  0.72184000  1.0 -0.4526413887
F  F37  1  0.15131000  0.90010000  0.18563000  1.0 -0.4526413887
F  F38  1  0.09869000  0.93563000  0.15010000  1.0 -0.4526413887
F  F39  1  0.15037000  0.97184000  0.18470000  1.0 -0.4526413887
F  F40  1  0.09963000  0.93470000  0.22184000  1.0 -0.4526413887
F  F41  1  0.84869000  0.40010000  0.31437000  1.0 -0.4526413887
F  F42  1  0.90131000  0.43563000  0.34990000  1.0 -0.4526413887
F  F43  1  0.84963000  0.47184000  0.31530000  1.0 -0.4526413887
F  F44  1  0.90037000  0.43470000  0.27816000  1.0 -0.4526413887
F  F45  1  0.65131000  0.59990000  0.81437000  1.0 -0.4526413887
F  F46  1  0.59869000  0.56437000  0.84990000  1.0 -0.4526413887
F  F47  1  0.65037000  0.52816000  0.81530000  1.0 -0.4526413887
F  F48  1  0.59963000  0.56530000  0.77816000  1.0 -0.4526413887
F  F49  1  0.09869000  0.06437000  0.34990000  1.0 -0.4526413887
F  F50  1  0.15131000  0.09990000  0.31437000  1.0 -0.4526413887
F  F51  1  0.09963000  0.06530000  0.27816000  1.0 -0.4526413887
F  F52  1  0.15037000  0.02816000  0.31530000  1.0 -0.4526413887
F  F53  1  0.90131000  0.56437000  0.15010000  1.0 -0.4526413887
F  F54  1  0.84869000  0.59990000  0.18563000  1.0 -0.4526413887
F  F55  1  0.90037000  0.56530000  0.22184000  1.0 -0.4526413887
F  F56  1  0.84963000  0.52816000  0.18470000  1.0 -0.4526413887
F  F57  1  0.59869000  0.43563000  0.65010000  1.0 -0.4526413887
F  F58  1  0.65131000  0.40010000  0.68563000  1.0 -0.4526413887
F  F59  1  0.59963000  0.43470000  0.72184000  1.0 -0.4526413887
F  F60  1  0.65037000  0.47184000  0.68470000  1.0 -0.4526413887
F  F61  1  0.40131000  0.93563000  0.84990000  1.0 -0.4526413887
F  F62  1  0.34869000  0.90010000  0.81437000  1.0 -0.4526413887
F  F63  1  0.40037000  0.93470000  0.77816000  1.0 -0.4526413887
F  F64  1  0.34963000  0.97184000  0.81530000  1.0 -0.4526413887
F  F65  1  0.06437000  0.34990000  0.09869000  1.0 -0.4526413887
F  F66  1  0.09990000  0.31437000  0.15131000  1.0 -0.4526413887
F  F67  1  0.06530000  0.27816000  0.09963000  1.0 -0.4526413887
F  F68  1  0.02816000  0.31530000  0.15037000  1.0 -0.4526413887
F  F69  1  0.56437000  0.15010000  0.90131000  1.0 -0.4526413887
F  F70  1  0.59990000  0.18563000  0.84869000  1.0 -0.4526413887
F  F71  1  0.56530000  0.22184000  0.90037000  1.0 -0.4526413887
F  F72  1  0.52816000  0.18470000  0.84963000  1.0 -0.4526413887
F  F73  1  0.43563000  0.65010000  0.59869000  1.0 -0.4526413887
F  F74  1  0.40010000  0.68563000  0.65131000  1.0 -0.4526413887
F  F75  1  0.43470000  0.72184000  0.59963000  1.0 -0.4526413887
F  F76  1  0.47184000  0.68470000  0.65037000  1.0 -0.4526413887
F  F77  1  0.93563000  0.84990000  0.40131000  1.0 -0.4526413887
F  F78  1  0.90010000  0.81437000  0.34869000  1.0 -0.4526413887
F  F79  1  0.93470000  0.77816000  0.40037000  1.0 -0.4526413887
F  F80  1  0.97184000  0.81530000  0.34963000  1.0 -0.4526413887
F  F81  1  0.34990000  0.09869000  0.06437000  1.0 -0.4526413887
F  F82  1  0.31437000  0.15131000  0.09990000  1.0 -0.4526413887
F  F83  1  0.27816000  0.09963000  0.06530000  1.0 -0.4526413887
F  F84  1  0.31530000  0.15037000  0.02816000  1.0 -0.4526413887
F  F85  1  0.15010000  0.90131000  0.56437000  1.0 -0.4526413887
F  F86  1  0.18563000  0.84869000  0.59990000  1.0 -0.4526413887
F  F87  1  0.22184000  0.90037000  0.56530000  1.0 -0.4526413887
F  F88  1  0.18470000  0.84963000  0.52816000  1.0 -0.4526413887
F  F89  1  0.65010000  0.59869000  0.43563000  1.0 -0.4526413887
F  F90  1  0.68563000  0.65131000  0.40010000  1.0 -0.4526413887
F  F91  1  0.72184000  0.59963000  0.43470000  1.0 -0.4526413887
F  F92  1  0.68470000  0.65037000  0.47184000  1.0 -0.4526413887
F  F93  1  0.84990000  0.40131000  0.93563000  1.0 -0.4526413887
F  F94  1  0.81437000  0.34869000  0.90010000  1.0 -0.4526413887
F  F95  1  0.77816000  0.40037000  0.93470000  1.0 -0.4526413887
F  F96  1  0.81530000  0.34963000  0.97184000  1.0 -0.4526413887
F  F97  1  0.68563000  0.15131000  0.59990000  1.0 -0.4526413887
F  F98  1  0.65010000  0.09869000  0.56437000  1.0 -0.4526413887
F  F99  1  0.68470000  0.15037000  0.52816000  1.0 -0.4526413887
F  F100  1  0.72184000  0.09963000  0.56530000  1.0 -0.4526413887
F  F101  1  0.18563000  0.34869000  0.40010000  1.0 -0.4526413887
F  F102  1  0.15010000  0.40131000  0.43563000  1.0 -0.4526413887
F  F103  1  0.18470000  0.34963000  0.47184000  1.0 -0.4526413887
F  F104  1  0.22184000  0.40037000  0.43470000  1.0 -0.4526413887
F  F105  1  0.31437000  0.65131000  0.90010000  1.0 -0.4526413887
F  F106  1  0.34990000  0.59869000  0.93563000  1.0 -0.4526413887
F  F107  1  0.31530000  0.65037000  0.97184000  1.0 -0.4526413887
F  F108  1  0.27816000  0.59963000  0.93470000  1.0 -0.4526413887
F  F109  1  0.81437000  0.84869000  0.09990000  1.0 -0.4526413887
F  F110  1  0.84990000  0.90131000  0.06437000  1.0 -0.4526413887
F  F111  1  0.81530000  0.84963000  0.02816000  1.0 -0.4526413887
F  F112  1  0.77816000  0.90037000  0.06530000  1.0 -0.4526413887
F  F113  1  0.40010000  0.18563000  0.34869000  1.0 -0.4526413887
F  F114  1  0.43563000  0.15010000  0.40131000  1.0 -0.4526413887
F  F115  1  0.47184000  0.18470000  0.34963000  1.0 -0.4526413887
F  F116  1  0.43470000  0.22184000  0.40037000  1.0 -0.4526413887
F  F117  1  0.59990000  0.68563000  0.15131000  1.0 -0.4526413887
F  F118  1  0.56437000  0.65010000  0.09869000  1.0 -0.4526413887
F  F119  1  0.52816000  0.68470000  0.15037000  1.0 -0.4526413887
F  F120  1  0.56530000  0.72184000  0.09963000  1.0 -0.4526413887
F  F121  1  0.09990000  0.81437000  0.84869000  1.0 -0.4526413887
F  F122  1  0.06437000  0.84990000  0.90131000  1.0 -0.4526413887
F  F123  1  0.02816000  0.81530000  0.84963000  1.0 -0.4526413887
F  F124  1  0.06530000  0.77816000  0.90037000  1.0 -0.4526413887
F  F125  1  0.90010000  0.31437000  0.65131000  1.0 -0.4526413887
F  F126  1  0.93563000  0.34990000  0.59869000  1.0 -0.4526413887
F  F127  1  0.97184000  0.31530000  0.65037000  1.0 -0.4526413887
F  F128  1  0.93470000  0.27816000  0.59963000  1.0 -0.4526413887
F  F129  1  0.65131000  0.90010000  0.31437000  1.0 -0.4526413887
F  F130  1  0.59869000  0.93563000  0.34990000  1.0 -0.4526413887
F  F131  1  0.65037000  0.97184000  0.31530000  1.0 -0.4526413887
F  F132  1  0.59963000  0.93470000  0.27816000  1.0 -0.4526413887
F  F133  1  0.84869000  0.09990000  0.81437000  1.0 -0.4526413887
F  F134  1  0.90131000  0.06437000  0.84990000  1.0 -0.4526413887
F  F135  1  0.84963000  0.02816000  0.81530000  1.0 -0.4526413887
F  F136  1  0.90037000  0.06530000  0.77816000  1.0 -0.4526413887
F  F137  1  0.15131000  0.59990000  0.68563000  1.0 -0.4526413887
F  F138  1  0.09869000  0.56437000  0.65010000  1.0 -0.4526413887
F  F139  1  0.15037000  0.52816000  0.68470000  1.0 -0.4526413887
F  F140  1  0.09963000  0.56530000  0.72184000  1.0 -0.4526413887
F  F141  1  0.34869000  0.40010000  0.18563000  1.0 -0.4526413887
F  F142  1  0.40131000  0.43563000  0.15010000  1.0 -0.4526413887
F  F143  1  0.34963000  0.47184000  0.18470000  1.0 -0.4526413887
F  F144  1  0.40037000  0.43470000  0.22184000  1.0 -0.4526413887
F  F145  1  0.90131000  0.93563000  0.65010000  1.0 -0.4526413887
F  F146  1  0.84869000  0.90010000  0.68563000  1.0 -0.4526413887
F  F147  1  0.90037000  0.93470000  0.72184000  1.0 -0.4526413887
F  F148  1  0.84963000  0.97184000  0.68470000  1.0 -0.4526413887
F  F149  1  0.09869000  0.43563000  0.84990000  1.0 -0.4526413887
F  F150  1  0.15131000  0.40010000  0.81437000  1.0 -0.4526413887
F  F151  1  0.09963000  0.43470000  0.77816000  1.0 -0.4526413887
F  F152  1  0.15037000  0.47184000  0.81530000  1.0 -0.4526413887
F  F153  1  0.40131000  0.56437000  0.34990000  1.0 -0.4526413887
F  F154  1  0.34869000  0.59990000  0.31437000  1.0 -0.4526413887
F  F155  1  0.40037000  0.56530000  0.27816000  1.0 -0.4526413887
F  F156  1  0.34963000  0.52816000  0.31530000  1.0 -0.4526413887
F  F157  1  0.59869000  0.06437000  0.15010000  1.0 -0.4526413887
F  F158  1  0.65131000  0.09990000  0.18563000  1.0 -0.4526413887
F  F159  1  0.59963000  0.06530000  0.22184000  1.0 -0.4526413887
F  F160  1  0.65037000  0.02816000  0.18470000  1.0 -0.4526413887
F  F161  1  0.93563000  0.65010000  0.90131000  1.0 -0.4526413887
F  F162  1  0.90010000  0.68563000  0.84869000  1.0 -0.4526413887
F  F163  1  0.93470000  0.72184000  0.90037000  1.0 -0.4526413887
F  F164  1  0.97184000  0.68470000  0.84963000  1.0 -0.4526413887
F  F165  1  0.43563000  0.84990000  0.09869000  1.0 -0.4526413887
F  F166  1  0.40010000  0.81437000  0.15131000  1.0 -0.4526413887
F  F167  1  0.43470000  0.77816000  0.09963000  1.0 -0.4526413887
F  F168  1  0.47184000  0.81530000  0.15037000  1.0 -0.4526413887
F  F169  1  0.56437000  0.34990000  0.40131000  1.0 -0.4526413887
F  F170  1  0.59990000  0.31437000  0.34869000  1.0 -0.4526413887
F  F171  1  0.56530000  0.27816000  0.40037000  1.0 -0.4526413887
F  F172  1  0.52816000  0.31530000  0.34963000  1.0 -0.4526413887
F  F173  1  0.06437000  0.15010000  0.59869000  1.0 -0.4526413887
F  F174  1  0.09990000  0.18563000  0.65131000  1.0 -0.4526413887
F  F175  1  0.06530000  0.22184000  0.59963000  1.0 -0.4526413887
F  F176  1  0.02816000  0.18470000  0.65037000  1.0 -0.4526413887
F  F177  1  0.65010000  0.90131000  0.93563000  1.0 -0.4526413887
F  F178  1  0.68563000  0.84869000  0.90010000  1.0 -0.4526413887
F  F179  1  0.72184000  0.90037000  0.93470000  1.0 -0.4526413887
F  F180  1  0.68470000  0.84963000  0.97184000  1.0 -0.4526413887
F  F181  1  0.84990000  0.09869000  0.43563000  1.0 -0.4526413887
F  F182  1  0.81437000  0.15131000  0.40010000  1.0 -0.4526413887
F  F183  1  0.77816000  0.09963000  0.43470000  1.0 -0.4526413887
F  F184  1  0.81530000  0.15037000  0.47184000  1.0 -0.4526413887
F  F185  1  0.34990000  0.40131000  0.56437000  1.0 -0.4526413887
F  F186  1  0.31437000  0.34869000  0.59990000  1.0 -0.4526413887
F  F187  1  0.27816000  0.40037000  0.56530000  1.0 -0.4526413887
F  F188  1  0.31530000  0.34963000  0.52816000  1.0 -0.4526413887
F  F189  1  0.15010000  0.59869000  0.06437000  1.0 -0.4526413887
F  F190  1  0.18563000  0.65131000  0.09990000  1.0 -0.4526413887
F  F191  1  0.22184000  0.59963000  0.06530000  1.0 -0.4526413887
F  F192  1  0.18470000  0.65037000  0.02816000  1.0 -0.4526413887
