# DDEC6 charges by PACMAN v1.1 (https://github.com/mtap-research/PACMAN-charge/)
data_41557_2017_BFnchem2747_MOESM348_ESM_FSR_pacman
_symmetry_space_group_name_H-M   'P 1'
_cell_length_a   15.09540000
_cell_length_b   25.78900000
_cell_length_c   32.27400000
_cell_angle_alpha   90.00000000
_cell_angle_beta   90.00000000
_cell_angle_gamma   90.00000000
_symmetry_Int_Tables_number   1
_chemical_formula_structural   InH8C16(NO4)2
_chemical_formula_sum   'In16 H128 C256 N32.0 O128'
_cell_volume   12564.11556334
_cell_formula_units_Z   16
loop_
 _symmetry_equiv_pos_site_id
 _symmetry_equiv_pos_as_xyz
  1  'x, y, z'
loop_
 _atom_site_type_symbol
 _atom_site_label
 _atom_site_symmetry_multiplicity
 _atom_site_fract_x
 _atom_site_fract_y
 _atom_site_fract_z
 _atom_site_occupancy
 _atom_site_charge
In  In1  1  0.87500000  0.37500000  0.68359000  1.0 1.2359553051
In  In2  1  0.87500000  0.87500000  0.18359000  1.0 1.2359553051
In  In3  1  0.37500000  0.37500000  0.18359000  1.0 1.2359553051
In  In4  1  0.37500000  0.87500000  0.68359000  1.0 1.2359553051
In  In5  1  0.12500000  0.62500000  0.93359000  1.0 1.2321477525
In  In6  1  0.12500000  0.12500000  0.43359000  1.0 1.2321477525
In  In7  1  0.62500000  0.62500000  0.43359000  1.0 1.2321477525
In  In8  1  0.62500000  0.12500000  0.93359000  1.0 1.2321477525
In  In9  1  0.87500000  0.37500000  0.06641000  1.0 1.2321477525
In  In10  1  0.87500000  0.87500000  0.56641000  1.0 1.2359553051
In  In11  1  0.37500000  0.37500000  0.56641000  1.0 1.2359553051
In  In12  1  0.37500000  0.87500000  0.06641000  1.0 1.2321477525
In  In13  1  0.12500000  0.62500000  0.31641000  1.0 1.2359553051
In  In14  1  0.12500000  0.12500000  0.81641000  1.0 1.2359553051
In  In15  1  0.62500000  0.62500000  0.81641000  1.0 1.2359553051
In  In16  1  0.62500000  0.12500000  0.31641000  1.0 1.2359553051
H  H1  1  0.84380000  0.58220000  0.49820000  0.15 0.2897129287
H  H2  1  0.91370000  0.56820000  0.53040000  0.15 0.2355445436
H  H3  1  0.84380000  0.08220000  0.99820000  0.15 0.2897129287
H  H4  1  0.91370000  0.06820000  0.03040000  0.15 0.2340035582
H  H5  1  0.34380000  0.58220000  0.99820000  0.15 0.2897129287
H  H6  1  0.41370000  0.56820000  0.03040000  0.15 0.2340035582
H  H7  1  0.34380000  0.08220000  0.49820000  0.15 0.2897129287
H  H8  1  0.41370000  0.06820000  0.53040000  0.15 0.2355445436
H  H9  1  0.90620000  0.16780000  0.49820000  0.15 0.2897129287
H  H10  1  0.83630000  0.18180000  0.53040000  0.15 0.2340035582
H  H11  1  0.90620000  0.66780000  0.99820000  0.15 0.2897129287
H  H12  1  0.83630000  0.68180000  0.03040000  0.15 0.2340035582
H  H13  1  0.40620000  0.16780000  0.99820000  0.15 0.2897129287
H  H14  1  0.33630000  0.18180000  0.03040000  0.15 0.2340035582
H  H15  1  0.40620000  0.66780000  0.49820000  0.15 0.2897129287
H  H16  1  0.33630000  0.68180000  0.53040000  0.15 0.2355445436
H  H17  1  0.09380000  0.41780000  0.74820000  0.15 0.2897129287
H  H18  1  0.16370000  0.43180000  0.78040000  0.15 0.2355445436
H  H19  1  0.09380000  0.91780000  0.24820000  0.15 0.2897129287
H  H20  1  0.16370000  0.93180000  0.28040000  0.15 0.2355445436
H  H21  1  0.59380000  0.41780000  0.24820000  0.15 0.2897129287
H  H22  1  0.66370000  0.43180000  0.28040000  0.15 0.2340035582
H  H23  1  0.59380000  0.91780000  0.74820000  0.15 0.2897129287
H  H24  1  0.66370000  0.93180000  0.78040000  0.15 0.2340035582
H  H25  1  0.15620000  0.83220000  0.74820000  0.15 0.2897129287
H  H26  1  0.08630000  0.81820000  0.78040000  0.15 0.2355445436
H  H27  1  0.15620000  0.33220000  0.24820000  0.15 0.2897129287
H  H28  1  0.08630000  0.31820000  0.28040000  0.15 0.2355445436
H  H29  1  0.65620000  0.83220000  0.24820000  0.15 0.2897129287
H  H30  1  0.58630000  0.81820000  0.28040000  0.15 0.2355445436
H  H31  1  0.65620000  0.33220000  0.74820000  0.15 0.2897129287
H  H32  1  0.58630000  0.31820000  0.78040000  0.15 0.2355445436
H  H161  1  0.90620000  0.58220000  0.25180000  0.15 0.2897129287
H  H162  1  0.83630000  0.56820000  0.21960000  0.15 0.2340035582
H  H163  1  0.90620000  0.08220000  0.75180000  0.15 0.2897129287
H  H164  1  0.83630000  0.06820000  0.71960000  0.15 0.2340035582
H  H165  1  0.40620000  0.58220000  0.75180000  0.15 0.2897129287
H  H166  1  0.33630000  0.56820000  0.71960000  0.15 0.2355445436
H  H167  1  0.40620000  0.08220000  0.25180000  0.15 0.2897129287
H  H168  1  0.33630000  0.06820000  0.21960000  0.15 0.2355445436
H  H169  1  0.84380000  0.16780000  0.25180000  0.15 0.2897129287
H  H170  1  0.91370000  0.18180000  0.21960000  0.15 0.2340035582
H  H171  1  0.84380000  0.66780000  0.75180000  0.15 0.2897129287
H  H172  1  0.91370000  0.68180000  0.71960000  0.15 0.2355445436
H  H173  1  0.34380000  0.16780000  0.75180000  0.15 0.2897129287
H  H174  1  0.41370000  0.18180000  0.71960000  0.15 0.2355445436
H  H175  1  0.34380000  0.66780000  0.25180000  0.15 0.2897129287
H  H176  1  0.41370000  0.68180000  0.21960000  0.15 0.2340035582
H  H177  1  0.15620000  0.41780000  0.50180000  0.15 0.2897129287
H  H178  1  0.08630000  0.43180000  0.46960000  0.15 0.2340035582
H  H179  1  0.15620000  0.91780000  0.00180000  0.15 0.2897129287
H  H180  1  0.08630000  0.93180000  0.96960000  0.15 0.2340035582
H  H181  1  0.65620000  0.41780000  0.00180000  0.15 0.2897129287
H  H182  1  0.58630000  0.43180000  0.96960000  0.15 0.2340035582
H  H183  1  0.65620000  0.91780000  0.50180000  0.15 0.2897129287
H  H184  1  0.58630000  0.93180000  0.46960000  0.15 0.2340035582
H  H185  1  0.09380000  0.83220000  0.50180000  0.15 0.2897129287
H  H186  1  0.16370000  0.81820000  0.46960000  0.15 0.2340035582
H  H187  1  0.09380000  0.33220000  0.00180000  0.15 0.2897129287
H  H188  1  0.16370000  0.31820000  0.96960000  0.15 0.2340035582
H  H189  1  0.59380000  0.83220000  0.00180000  0.15 0.2897129287
H  H190  1  0.66370000  0.81820000  0.96960000  0.15 0.2340035582
H  H191  1  0.59380000  0.33220000  0.50180000  0.15 0.2897129287
H  H192  1  0.66370000  0.31820000  0.46960000  0.15 0.2340035582
H  H33  1  0.56300000  0.48170000  0.50310000  0.4 0.1139818304
H  H34  1  0.55470000  0.44390000  0.53920000  0.4 0.1417543912
H  H35  1  0.56300000  0.98170000  0.00310000  0.4 0.1139818304
H  H36  1  0.55470000  0.94390000  0.03920000  0.4 0.1417543912
H  H37  1  0.06300000  0.48170000  0.00310000  0.4 0.1139818304
H  H38  1  0.05470000  0.44390000  0.03920000  0.4 0.1417543912
H  H39  1  0.06300000  0.98170000  0.50310000  0.4 0.1139818304
H  H40  1  0.05470000  0.94390000  0.53920000  0.4 0.1417543912
H  H41  1  0.18700000  0.26830000  0.50310000  0.4 0.1139818304
H  H42  1  0.19530000  0.30610000  0.53920000  0.4 0.1417543912
H  H43  1  0.18700000  0.76830000  0.00310000  0.4 0.1139818304
H  H44  1  0.19530000  0.80610000  0.03920000  0.4 0.1417543912
H  H45  1  0.68700000  0.26830000  0.00310000  0.4 0.1139818304
H  H46  1  0.69530000  0.30610000  0.03920000  0.4 0.1417543912
H  H47  1  0.68700000  0.76830000  0.50310000  0.4 0.1139818304
H  H48  1  0.69530000  0.80610000  0.53920000  0.4 0.1417543912
H  H49  1  0.81300000  0.51830000  0.75310000  0.4 0.1139818304
H  H50  1  0.80470000  0.55610000  0.78920000  0.4 0.1417543912
H  H51  1  0.81300000  0.01830000  0.25310000  0.4 0.1139818304
H  H52  1  0.80470000  0.05610000  0.28920000  0.4 0.1417543912
H  H53  1  0.31300000  0.51830000  0.25310000  0.4 0.1139818304
H  H54  1  0.30470000  0.55610000  0.28920000  0.4 0.1417543912
H  H55  1  0.31300000  0.01830000  0.75310000  0.4 0.1139818304
H  H56  1  0.30470000  0.05610000  0.78920000  0.4 0.1417543912
H  H57  1  0.43700000  0.73170000  0.75310000  0.4 0.1139818304
H  H58  1  0.44530000  0.69390000  0.78920000  0.4 0.1417543912
H  H59  1  0.43700000  0.23170000  0.25310000  0.4 0.1139818304
H  H60  1  0.44530000  0.19390000  0.28920000  0.4 0.1417543912
H  H61  1  0.93700000  0.73170000  0.25310000  0.4 0.1139818304
H  H62  1  0.94530000  0.69390000  0.28920000  0.4 0.1417543912
H  H63  1  0.93700000  0.23170000  0.75310000  0.4 0.1139818304
H  H64  1  0.94530000  0.19390000  0.78920000  0.4 0.1417543912
H  H193  1  0.18700000  0.48170000  0.24690000  0.4 0.1139818304
H  H194  1  0.19530000  0.44390000  0.21080000  0.4 0.1417543912
H  H195  1  0.18700000  0.98170000  0.74690000  0.4 0.1139818304
H  H196  1  0.19530000  0.94390000  0.71080000  0.4 0.1417543912
H  H197  1  0.68700000  0.48170000  0.74690000  0.4 0.1139818304
H  H198  1  0.69530000  0.44390000  0.71080000  0.4 0.1417543912
H  H199  1  0.68700000  0.98170000  0.24690000  0.4 0.1139818304
H  H200  1  0.69530000  0.94390000  0.21080000  0.4 0.1417543912
H  H201  1  0.56300000  0.26830000  0.24690000  0.4 0.1139818304
H  H202  1  0.55470000  0.30610000  0.21080000  0.4 0.1417543912
H  H203  1  0.56300000  0.76830000  0.74690000  0.4 0.1139818304
H  H204  1  0.55470000  0.80610000  0.71080000  0.4 0.1417543912
H  H205  1  0.06300000  0.26830000  0.74690000  0.4 0.1139818304
H  H206  1  0.05470000  0.30610000  0.71080000  0.4 0.1417543912
H  H207  1  0.06300000  0.76830000  0.24690000  0.4 0.1139818304
H  H208  1  0.05470000  0.80610000  0.21080000  0.4 0.1417543912
H  H209  1  0.43700000  0.51830000  0.49690000  0.4 0.1139818304
H  H210  1  0.44530000  0.55610000  0.46080000  0.4 0.1417543912
H  H211  1  0.43700000  0.01830000  0.99690000  0.4 0.1139818304
H  H212  1  0.44530000  0.05610000  0.96080000  0.4 0.1417543912
H  H213  1  0.93700000  0.51830000  0.99690000  0.4 0.1139818304
H  H214  1  0.94530000  0.55610000  0.96080000  0.4 0.1417543912
H  H215  1  0.93700000  0.01830000  0.49690000  0.4 0.1139818304
H  H216  1  0.94530000  0.05610000  0.46080000  0.4 0.1417543912
H  H217  1  0.81300000  0.73170000  0.49690000  0.4 0.1139818304
H  H218  1  0.80470000  0.69390000  0.46080000  0.4 0.1417543912
H  H219  1  0.81300000  0.23170000  0.99690000  0.4 0.1139818304
H  H220  1  0.80470000  0.19390000  0.96080000  0.4 0.1417543912
H  H221  1  0.31300000  0.73170000  0.99690000  0.4 0.1139818304
H  H222  1  0.30470000  0.69390000  0.96080000  0.4 0.1417543912
H  H223  1  0.31300000  0.23170000  0.49690000  0.4 0.1139818304
H  H224  1  0.30470000  0.19390000  0.46080000  0.4 0.1417543912
H  H65  1  0.54500000  0.51200000  0.51940000  0.45 0.1335417987
H  H66  1  0.53820000  0.47300000  0.55480000  0.45 0.1417543912
H  H67  1  0.54500000  0.01200000  0.01940000  0.45 0.1335417987
H  H68  1  0.53820000  0.97300000  0.05480000  0.45 0.1417543912
H  H69  1  0.04500000  0.51200000  0.01940000  0.45 0.1335417987
H  H70  1  0.03820000  0.47300000  0.05480000  0.45 0.1417543912
H  H71  1  0.04500000  0.01200000  0.51940000  0.45 0.1335417987
H  H72  1  0.03820000  0.97300000  0.55480000  0.45 0.1417543912
H  H73  1  0.20500000  0.23800000  0.51940000  0.45 0.1335417987
H  H74  1  0.21180000  0.27700000  0.55480000  0.45 0.1417543912
H  H75  1  0.20500000  0.73800000  0.01940000  0.45 0.1335417987
H  H76  1  0.21180000  0.77700000  0.05480000  0.45 0.1417543912
H  H77  1  0.70500000  0.23800000  0.01940000  0.45 0.1335417987
H  H78  1  0.71180000  0.27700000  0.05480000  0.45 0.1417543912
H  H79  1  0.70500000  0.73800000  0.51940000  0.45 0.1335417987
H  H80  1  0.71180000  0.77700000  0.55480000  0.45 0.1417543912
H  H81  1  0.79500000  0.48800000  0.76940000  0.45 0.1335417987
H  H82  1  0.78820000  0.52700000  0.80480000  0.45 0.1417543912
H  H83  1  0.79500000  0.98800000  0.26940000  0.45 0.1335417987
H  H84  1  0.78820000  0.02700000  0.30480000  0.45 0.1417543912
H  H85  1  0.29500000  0.48800000  0.26940000  0.45 0.1335417987
H  H86  1  0.28820000  0.52700000  0.30480000  0.45 0.1417543912
H  H87  1  0.29500000  0.98800000  0.76940000  0.45 0.1335417987
H  H88  1  0.28820000  0.02700000  0.80480000  0.45 0.1417543912
H  H89  1  0.45500000  0.76200000  0.76940000  0.45 0.1335417987
H  H90  1  0.46180000  0.72300000  0.80480000  0.45 0.1417543912
H  H91  1  0.45500000  0.26200000  0.26940000  0.45 0.1335417987
H  H92  1  0.46180000  0.22300000  0.30480000  0.45 0.1417543912
H  H93  1  0.95500000  0.76200000  0.26940000  0.45 0.1335417987
H  H94  1  0.96180000  0.72300000  0.30480000  0.45 0.1417543912
H  H95  1  0.95500000  0.26200000  0.76940000  0.45 0.1335417987
H  H96  1  0.96180000  0.22300000  0.80480000  0.45 0.1417543912
H  H225  1  0.20500000  0.51200000  0.23060000  0.45 0.1335417987
H  H226  1  0.21180000  0.47300000  0.19520000  0.45 0.1417543912
H  H227  1  0.20500000  0.01200000  0.73060000  0.45 0.1335417987
H  H228  1  0.21180000  0.97300000  0.69520000  0.45 0.1417543912
H  H229  1  0.70500000  0.51200000  0.73060000  0.45 0.1335417987
H  H230  1  0.71180000  0.47300000  0.69520000  0.45 0.1417543912
H  H231  1  0.70500000  0.01200000  0.23060000  0.45 0.1335417987
H  H232  1  0.71180000  0.97300000  0.19520000  0.45 0.1417543912
H  H233  1  0.54500000  0.23800000  0.23060000  0.45 0.1335417987
H  H234  1  0.53820000  0.27700000  0.19520000  0.45 0.1417543912
H  H235  1  0.54500000  0.73800000  0.73060000  0.45 0.1335417987
H  H236  1  0.53820000  0.77700000  0.69520000  0.45 0.1417543912
H  H237  1  0.04500000  0.23800000  0.73060000  0.45 0.1335417987
H  H238  1  0.03820000  0.27700000  0.69520000  0.45 0.1417543912
H  H239  1  0.04500000  0.73800000  0.23060000  0.45 0.1335417987
H  H240  1  0.03820000  0.77700000  0.19520000  0.45 0.1417543912
H  H241  1  0.45500000  0.48800000  0.48060000  0.45 0.1335417987
H  H242  1  0.46180000  0.52700000  0.44520000  0.45 0.1417543912
H  H243  1  0.45500000  0.98800000  0.98060000  0.45 0.1335417987
H  H244  1  0.46180000  0.02700000  0.94520000  0.45 0.1417543912
H  H245  1  0.95500000  0.48800000  0.98060000  0.45 0.1335417987
H  H246  1  0.96180000  0.52700000  0.94520000  0.45 0.1417543912
H  H247  1  0.95500000  0.98800000  0.48060000  0.45 0.1335417987
H  H248  1  0.96180000  0.02700000  0.44520000  0.45 0.1417543912
H  H249  1  0.79500000  0.76200000  0.48060000  0.45 0.1335417987
H  H250  1  0.78820000  0.72300000  0.44520000  0.45 0.1417543912
H  H251  1  0.79500000  0.26200000  0.98060000  0.45 0.1335417987
H  H252  1  0.78820000  0.22300000  0.94520000  0.45 0.1417543912
H  H253  1  0.29500000  0.76200000  0.98060000  0.45 0.1335417987
H  H254  1  0.28820000  0.72300000  0.94520000  0.45 0.1417543912
H  H255  1  0.29500000  0.26200000  0.48060000  0.45 0.1335417987
H  H256  1  0.28820000  0.22300000  0.44520000  0.45 0.1417543912
H  H97  1  0.66320000  0.43000000  0.58700000  0.47 0.0880797952
H  H98  1  0.89560000  0.50820000  0.58020000  0.47 0.155487203
H  H99  1  0.66320000  0.93000000  0.08700000  0.47 0.0880797952
H  H100  1  0.89560000  0.00820000  0.08020000  0.47 0.155487203
H  H101  1  0.16320000  0.43000000  0.08700000  0.47 0.0880797952
H  H102  1  0.39560000  0.50820000  0.08020000  0.47 0.155487203
H  H103  1  0.16320000  0.93000000  0.58700000  0.47 0.0880797952
H  H104  1  0.39560000  0.00820000  0.58020000  0.47 0.155487203
H  H105  1  0.08680000  0.32000000  0.58700000  0.47 0.0880797952
H  H106  1  0.85440000  0.24180000  0.58020000  0.47 0.155487203
H  H107  1  0.08680000  0.82000000  0.08700000  0.47 0.0880797952
H  H108  1  0.85440000  0.74180000  0.08020000  0.47 0.155487203
H  H109  1  0.58680000  0.32000000  0.08700000  0.47 0.0880797952
H  H110  1  0.35440000  0.24180000  0.08020000  0.47 0.155487203
H  H111  1  0.58680000  0.82000000  0.58700000  0.47 0.0880797952
H  H112  1  0.35440000  0.74180000  0.58020000  0.47 0.155487203
H  H113  1  0.91320000  0.57000000  0.83700000  0.47 0.0880797952
H  H114  1  0.14560000  0.49180000  0.83020000  0.47 0.155487203
H  H115  1  0.91320000  0.07000000  0.33700000  0.47 0.0880797952
H  H116  1  0.14560000  0.99180000  0.33020000  0.47 0.155487203
H  H117  1  0.41320000  0.57000000  0.33700000  0.47 0.0880797952
H  H118  1  0.64560000  0.49180000  0.33020000  0.47 0.155487203
H  H119  1  0.41320000  0.07000000  0.83700000  0.47 0.0880797952
H  H120  1  0.64560000  0.99180000  0.83020000  0.47 0.155487203
H  H121  1  0.33680000  0.68000000  0.83700000  0.47 0.0880797952
H  H122  1  0.10440000  0.75820000  0.83020000  0.47 0.155487203
H  H123  1  0.33680000  0.18000000  0.33700000  0.47 0.0880797952
H  H124  1  0.10440000  0.25820000  0.33020000  0.47 0.155487203
H  H125  1  0.83680000  0.68000000  0.33700000  0.47 0.0880797952
H  H126  1  0.60440000  0.75820000  0.33020000  0.47 0.155487203
H  H127  1  0.83680000  0.18000000  0.83700000  0.47 0.0880797952
H  H128  1  0.60440000  0.25820000  0.83020000  0.47 0.155487203
H  H257  1  0.08680000  0.43000000  0.16300000  0.47 0.0880797952
H  H258  1  0.85440000  0.50820000  0.16980000  0.47 0.155487203
H  H259  1  0.08680000  0.93000000  0.66300000  0.47 0.0880797952
H  H260  1  0.85440000  0.00820000  0.66980000  0.47 0.155487203
H  H261  1  0.58680000  0.43000000  0.66300000  0.47 0.0880797952
H  H262  1  0.35440000  0.50820000  0.66980000  0.47 0.155487203
H  H263  1  0.58680000  0.93000000  0.16300000  0.47 0.0880797952
H  H264  1  0.35440000  0.00820000  0.16980000  0.47 0.155487203
H  H265  1  0.66320000  0.32000000  0.16300000  0.47 0.0880797952
H  H266  1  0.89560000  0.24180000  0.16980000  0.47 0.155487203
H  H267  1  0.66320000  0.82000000  0.66300000  0.47 0.0880797952
H  H268  1  0.89560000  0.74180000  0.66980000  0.47 0.155487203
H  H269  1  0.16320000  0.32000000  0.66300000  0.47 0.0880797952
H  H270  1  0.39560000  0.24180000  0.66980000  0.47 0.155487203
H  H271  1  0.16320000  0.82000000  0.16300000  0.47 0.0880797952
H  H272  1  0.39560000  0.74180000  0.16980000  0.47 0.155487203
H  H273  1  0.33680000  0.57000000  0.41300000  0.47 0.0880797952
H  H274  1  0.10440000  0.49180000  0.41980000  0.47 0.155487203
H  H275  1  0.33680000  0.07000000  0.91300000  0.47 0.0880797952
H  H276  1  0.10440000  0.99180000  0.91980000  0.47 0.155487203
H  H277  1  0.83680000  0.57000000  0.91300000  0.47 0.0880797952
H  H278  1  0.60440000  0.49180000  0.91980000  0.47 0.155487203
H  H279  1  0.83680000  0.07000000  0.41300000  0.47 0.0880797952
H  H280  1  0.60440000  0.99180000  0.41980000  0.47 0.155487203
H  H281  1  0.91320000  0.68000000  0.41300000  0.47 0.0880797952
H  H282  1  0.14560000  0.75820000  0.41980000  0.47 0.155487203
H  H283  1  0.91320000  0.18000000  0.91300000  0.47 0.0880797952
H  H284  1  0.14560000  0.25820000  0.91980000  0.47 0.155487203
H  H285  1  0.41320000  0.68000000  0.91300000  0.47 0.0880797952
H  H286  1  0.64560000  0.75820000  0.91980000  0.47 0.155487203
H  H287  1  0.41320000  0.18000000  0.41300000  0.47 0.0880797952
H  H288  1  0.64560000  0.25820000  0.41980000  0.47 0.155487203
H  H129  1  0.65670000  0.44980000  0.59630000  0.53 0.101389398
H  H130  1  0.90090000  0.51150000  0.57890000  0.53 0.1489185165
H  H131  1  0.65670000  0.94980000  0.09630000  0.53 0.101389398
H  H132  1  0.90090000  0.01150000  0.07890000  0.53 0.1489185165
H  H133  1  0.15670000  0.44980000  0.09630000  0.53 0.101389398
H  H134  1  0.40090000  0.51150000  0.07890000  0.53 0.1489185165
H  H135  1  0.15670000  0.94980000  0.59630000  0.53 0.101389398
H  H136  1  0.40090000  0.01150000  0.57890000  0.53 0.1489185165
H  H137  1  0.09330000  0.30020000  0.59630000  0.53 0.101389398
H  H138  1  0.84910000  0.23850000  0.57890000  0.53 0.1489185165
H  H139  1  0.09330000  0.80020000  0.09630000  0.53 0.101389398
H  H140  1  0.84910000  0.73850000  0.07890000  0.53 0.1489185165
H  H141  1  0.59330000  0.30020000  0.09630000  0.53 0.101389398
H  H142  1  0.34910000  0.23850000  0.07890000  0.53 0.1489185165
H  H143  1  0.59330000  0.80020000  0.59630000  0.53 0.101389398
H  H144  1  0.34910000  0.73850000  0.57890000  0.53 0.1489185165
H  H145  1  0.90670000  0.55020000  0.84630000  0.53 0.101389398
H  H146  1  0.15090000  0.48850000  0.82890000  0.53 0.1489185165
H  H147  1  0.90670000  0.05020000  0.34630000  0.53 0.101389398
H  H148  1  0.15090000  0.98850000  0.32890000  0.53 0.1489185165
H  H149  1  0.40670000  0.55020000  0.34630000  0.53 0.101389398
H  H150  1  0.65090000  0.48850000  0.32890000  0.53 0.1489185165
H  H151  1  0.40670000  0.05020000  0.84630000  0.53 0.101389398
H  H152  1  0.65090000  0.98850000  0.82890000  0.53 0.1489185165
H  H153  1  0.34330000  0.69980000  0.84630000  0.53 0.101389398
H  H154  1  0.09910000  0.76150000  0.82890000  0.53 0.1489185165
H  H155  1  0.34330000  0.19980000  0.34630000  0.53 0.101389398
H  H156  1  0.09910000  0.26150000  0.32890000  0.53 0.1489185165
H  H157  1  0.84330000  0.69980000  0.34630000  0.53 0.101389398
H  H158  1  0.59910000  0.76150000  0.32890000  0.53 0.1489185165
H  H159  1  0.84330000  0.19980000  0.84630000  0.53 0.101389398
H  H160  1  0.59910000  0.26150000  0.82890000  0.53 0.1489185165
H  H289  1  0.09330000  0.44980000  0.15370000  0.53 0.101389398
H  H290  1  0.84910000  0.51150000  0.17110000  0.53 0.1489185165
H  H291  1  0.09330000  0.94980000  0.65370000  0.53 0.101389398
H  H292  1  0.84910000  0.01150000  0.67110000  0.53 0.1489185165
H  H293  1  0.59330000  0.44980000  0.65370000  0.53 0.101389398
H  H294  1  0.34910000  0.51150000  0.67110000  0.53 0.1489185165
H  H295  1  0.59330000  0.94980000  0.15370000  0.53 0.101389398
H  H296  1  0.34910000  0.01150000  0.17110000  0.53 0.1489185165
H  H297  1  0.65670000  0.30020000  0.15370000  0.53 0.101389398
H  H298  1  0.90090000  0.23850000  0.17110000  0.53 0.1489185165
H  H299  1  0.65670000  0.80020000  0.65370000  0.53 0.101389398
H  H300  1  0.90090000  0.73850000  0.67110000  0.53 0.1489185165
H  H301  1  0.15670000  0.30020000  0.65370000  0.53 0.101389398
H  H302  1  0.40090000  0.23850000  0.67110000  0.53 0.1489185165
H  H303  1  0.15670000  0.80020000  0.15370000  0.53 0.101389398
H  H304  1  0.40090000  0.73850000  0.17110000  0.53 0.1489185165
H  H305  1  0.34330000  0.55020000  0.40370000  0.53 0.101389398
H  H306  1  0.09910000  0.48850000  0.42110000  0.53 0.1489185165
H  H307  1  0.34330000  0.05020000  0.90370000  0.53 0.101389398
H  H308  1  0.09910000  0.98850000  0.92110000  0.53 0.1489185165
H  H309  1  0.84330000  0.55020000  0.90370000  0.53 0.101389398
H  H310  1  0.59910000  0.48850000  0.92110000  0.53 0.1489185165
H  H311  1  0.84330000  0.05020000  0.40370000  0.53 0.101389398
H  H312  1  0.59910000  0.98850000  0.42110000  0.53 0.1489185165
H  H313  1  0.90670000  0.69980000  0.40370000  0.53 0.101389398
H  H314  1  0.15090000  0.76150000  0.42110000  0.53 0.1489185165
H  H315  1  0.90670000  0.19980000  0.90370000  0.53 0.101389398
H  H316  1  0.15090000  0.26150000  0.92110000  0.53 0.1489185165
H  H317  1  0.40670000  0.69980000  0.90370000  0.53 0.101389398
H  H318  1  0.65090000  0.76150000  0.92110000  0.53 0.1489185165
H  H319  1  0.40670000  0.19980000  0.40370000  0.53 0.101389398
H  H320  1  0.65090000  0.26150000  0.42110000  0.53 0.1489185165
C  C1  1  0.81470000  0.43840000  0.62620000  1.0 0.3931844379
C  C2  1  0.81210000  0.31100000  0.73940000  1.0 0.4136542517
C  C3  1  0.81470000  0.93840000  0.12620000  1.0 0.3931844379
C  C4  1  0.81210000  0.81100000  0.23940000  1.0 0.4136542517
C  C5  1  0.31470000  0.43840000  0.12620000  1.0 0.3931844379
C  C6  1  0.31210000  0.31100000  0.23940000  1.0 0.4151342702
C  C7  1  0.31470000  0.93840000  0.62620000  1.0 0.3931844379
C  C8  1  0.31210000  0.81100000  0.73940000  1.0 0.4136542517
C  C9  1  0.93530000  0.31160000  0.62620000  1.0 0.3931844379
C  C10  1  0.93790000  0.43900000  0.73940000  1.0 0.4136542517
C  C11  1  0.93530000  0.81160000  0.12620000  1.0 0.3931844379
C  C12  1  0.93790000  0.93900000  0.23940000  1.0 0.4136542517
C  C13  1  0.43530000  0.31160000  0.12620000  1.0 0.3931844379
C  C14  1  0.43790000  0.43900000  0.23940000  1.0 0.4151342702
C  C15  1  0.43530000  0.81160000  0.62620000  1.0 0.3931844379
C  C16  1  0.43790000  0.93900000  0.73940000  1.0 0.4136542517
C  C17  1  0.06470000  0.56160000  0.87620000  1.0 0.3931844379
C  C18  1  0.06210000  0.68900000  0.98940000  1.0 0.4136542517
C  C19  1  0.06470000  0.06160000  0.37620000  1.0 0.3931844379
C  C20  1  0.06210000  0.18900000  0.48940000  1.0 0.4151342702
C  C21  1  0.56470000  0.56160000  0.37620000  1.0 0.3931844379
C  C22  1  0.56210000  0.68900000  0.48940000  1.0 0.4151342702
C  C23  1  0.56470000  0.06160000  0.87620000  1.0 0.3931844379
C  C24  1  0.56210000  0.18900000  0.98940000  1.0 0.4136542517
C  C25  1  0.18530000  0.68840000  0.87620000  1.0 0.3931844379
C  C26  1  0.18790000  0.56100000  0.98940000  1.0 0.4136542517
C  C27  1  0.18530000  0.18840000  0.37620000  1.0 0.3931844379
C  C28  1  0.18790000  0.06100000  0.48940000  1.0 0.4151342702
C  C29  1  0.68530000  0.68840000  0.37620000  1.0 0.3931844379
C  C30  1  0.68790000  0.56100000  0.48940000  1.0 0.4151342702
C  C31  1  0.68530000  0.18840000  0.87620000  1.0 0.3931844379
C  C32  1  0.68790000  0.06100000  0.98940000  1.0 0.4136542517
C  C225  1  0.93530000  0.43840000  0.12380000  1.0 0.3931844379
C  C226  1  0.93790000  0.31100000  0.01060000  1.0 0.4136542517
C  C227  1  0.93530000  0.93840000  0.62380000  1.0 0.3931844379
C  C228  1  0.93790000  0.81100000  0.51060000  1.0 0.4136542517
C  C229  1  0.43530000  0.43840000  0.62380000  1.0 0.3931844379
C  C230  1  0.43790000  0.31100000  0.51060000  1.0 0.4136542517
C  C231  1  0.43530000  0.93840000  0.12380000  1.0 0.3931844379
C  C232  1  0.43790000  0.81100000  0.01060000  1.0 0.4136542517
C  C233  1  0.81470000  0.31160000  0.12380000  1.0 0.3931844379
C  C234  1  0.81210000  0.43900000  0.01060000  1.0 0.4136542517
C  C235  1  0.81470000  0.81160000  0.62380000  1.0 0.3931844379
C  C236  1  0.81210000  0.93900000  0.51060000  1.0 0.4136542517
C  C237  1  0.31470000  0.31160000  0.62380000  1.0 0.3931844379
C  C238  1  0.31210000  0.43900000  0.51060000  1.0 0.4136542517
C  C239  1  0.31470000  0.81160000  0.12380000  1.0 0.3931844379
C  C240  1  0.31210000  0.93900000  0.01060000  1.0 0.4136542517
C  C241  1  0.18530000  0.56160000  0.37380000  1.0 0.3931844379
C  C242  1  0.18790000  0.68900000  0.26060000  1.0 0.4151342702
C  C243  1  0.18530000  0.06160000  0.87380000  1.0 0.3931844379
C  C244  1  0.18790000  0.18900000  0.76060000  1.0 0.4136542517
C  C245  1  0.68530000  0.56160000  0.87380000  1.0 0.3931844379
C  C246  1  0.68790000  0.68900000  0.76060000  1.0 0.4136542517
C  C247  1  0.68530000  0.06160000  0.37380000  1.0 0.3931844379
C  C248  1  0.68790000  0.18900000  0.26060000  1.0 0.4151342702
C  C249  1  0.06470000  0.68840000  0.37380000  1.0 0.3931844379
C  C250  1  0.06210000  0.56100000  0.26060000  1.0 0.4151342702
C  C251  1  0.06470000  0.18840000  0.87380000  1.0 0.3931844379
C  C252  1  0.06210000  0.06100000  0.76060000  1.0 0.4151342702
C  C253  1  0.56470000  0.68840000  0.87380000  1.0 0.3931844379
C  C254  1  0.56210000  0.56100000  0.76060000  1.0 0.4136542517
C  C255  1  0.56470000  0.18840000  0.37380000  1.0 0.3931844379
C  C256  1  0.56210000  0.06100000  0.26060000  1.0 0.4136542517
C  C33  1  0.78440000  0.46480000  0.58900000  0.47 0.0267913145
C  C34  1  0.69960000  0.45520000  0.57400000  0.47 -0.0991030251
C  C35  1  0.66830000  0.48260000  0.53990000  0.47 0.101389398
C  C36  1  0.72160000  0.51950000  0.52080000  0.47 -0.0587156866
C  C37  1  0.80630000  0.52900000  0.53590000  0.47 0.0725779374
C  C38  1  0.83770000  0.50170000  0.57000000  0.47 -0.2094799662
C  C39  1  0.78440000  0.96480000  0.08900000  0.47 0.0267913145
C  C40  1  0.69960000  0.95520000  0.07400000  0.47 -0.0991030251
C  C41  1  0.66830000  0.98260000  0.03990000  0.47 0.101389398
C  C42  1  0.72160000  0.01950000  0.02080000  0.47 -0.0587156866
C  C43  1  0.80630000  0.02900000  0.03590000  0.47 0.0725779374
C  C44  1  0.83770000  0.00170000  0.07000000  0.47 -0.2094799662
C  C45  1  0.28440000  0.46480000  0.08900000  0.47 0.0267913145
C  C46  1  0.19960000  0.45520000  0.07400000  0.47 -0.0991030251
C  C47  1  0.16830000  0.48260000  0.03990000  0.47 0.101389398
C  C48  1  0.22160000  0.51950000  0.02080000  0.47 -0.0587156866
C  C49  1  0.30630000  0.52900000  0.03590000  0.47 0.0725779374
C  C50  1  0.33770000  0.50170000  0.07000000  0.47 -0.2094799662
C  C51  1  0.28440000  0.96480000  0.58900000  0.47 0.0267913145
C  C52  1  0.19960000  0.95520000  0.57400000  0.47 -0.0991030251
C  C53  1  0.16830000  0.98260000  0.53990000  0.47 0.101389398
C  C54  1  0.22160000  0.01950000  0.52080000  0.47 -0.0587156866
C  C55  1  0.30630000  0.02900000  0.53590000  0.47 0.0725779374
C  C56  1  0.33770000  0.00170000  0.57000000  0.47 -0.2094799662
C  C57  1  0.96560000  0.28520000  0.58900000  0.47 0.0267913145
C  C58  1  0.05040000  0.29480000  0.57400000  0.47 -0.0991030251
C  C59  1  0.08170000  0.26740000  0.53990000  0.47 0.101389398
C  C60  1  0.02840000  0.23050000  0.52080000  0.47 -0.0587156866
C  C61  1  0.94370000  0.22100000  0.53590000  0.47 0.0725779374
C  C62  1  0.91230000  0.24830000  0.57000000  0.47 -0.2094799662
C  C63  1  0.96560000  0.78520000  0.08900000  0.47 0.0267913145
C  C64  1  0.05040000  0.79480000  0.07400000  0.47 -0.0991030251
C  C65  1  0.08170000  0.76740000  0.03990000  0.47 0.101389398
C  C66  1  0.02840000  0.73050000  0.02080000  0.47 -0.0587156866
C  C67  1  0.94370000  0.72100000  0.03590000  0.47 0.0725779374
C  C68  1  0.91230000  0.74830000  0.07000000  0.47 -0.2094799662
C  C69  1  0.46560000  0.28520000  0.08900000  0.47 0.0267913145
C  C70  1  0.55040000  0.29480000  0.07400000  0.47 -0.0991030251
C  C71  1  0.58170000  0.26740000  0.03990000  0.47 0.101389398
C  C72  1  0.52840000  0.23050000  0.02080000  0.47 -0.0587156866
C  C73  1  0.44370000  0.22100000  0.03590000  0.47 0.0725779374
C  C74  1  0.41230000  0.24830000  0.07000000  0.47 -0.2094799662
C  C75  1  0.46560000  0.78520000  0.58900000  0.47 0.0267913145
C  C76  1  0.55040000  0.79480000  0.57400000  0.47 -0.0991030251
C  C77  1  0.58170000  0.76740000  0.53990000  0.47 0.101389398
C  C78  1  0.52840000  0.73050000  0.52080000  0.47 -0.0587156866
C  C79  1  0.44370000  0.72100000  0.53590000  0.47 0.0725779374
C  C80  1  0.41230000  0.74830000  0.57000000  0.47 -0.2094799662
C  C81  1  0.03440000  0.53520000  0.83900000  0.47 0.0267913145
C  C82  1  0.94960000  0.54480000  0.82400000  0.47 -0.0991030251
C  C83  1  0.91830000  0.51740000  0.78990000  0.47 0.101389398
C  C84  1  0.97160000  0.48050000  0.77080000  0.47 -0.0587156866
C  C85  1  0.05630000  0.47100000  0.78590000  0.47 0.0725779374
C  C86  1  0.08770000  0.49830000  0.82000000  0.47 -0.2094799662
C  C87  1  0.03440000  0.03520000  0.33900000  0.47 0.0267913145
C  C88  1  0.94960000  0.04480000  0.32400000  0.47 -0.0991030251
C  C89  1  0.91830000  0.01740000  0.28990000  0.47 0.101389398
C  C90  1  0.97160000  0.98050000  0.27080000  0.47 -0.0587156866
C  C91  1  0.05630000  0.97100000  0.28590000  0.47 0.0725779374
C  C92  1  0.08770000  0.99830000  0.32000000  0.47 -0.2094799662
C  C93  1  0.53440000  0.53520000  0.33900000  0.47 0.0267913145
C  C94  1  0.44960000  0.54480000  0.32400000  0.47 -0.0991030251
C  C95  1  0.41830000  0.51740000  0.28990000  0.47 0.101389398
C  C96  1  0.47160000  0.48050000  0.27080000  0.47 -0.0587156866
C  C97  1  0.55630000  0.47100000  0.28590000  0.47 0.0725779374
C  C98  1  0.58770000  0.49830000  0.32000000  0.47 -0.2094799662
C  C99  1  0.53440000  0.03520000  0.83900000  0.47 0.0267913145
C  C100  1  0.44960000  0.04480000  0.82400000  0.47 -0.0991030251
C  C101  1  0.41830000  0.01740000  0.78990000  0.47 0.101389398
C  C102  1  0.47160000  0.98050000  0.77080000  0.47 -0.0587156866
C  C103  1  0.55630000  0.97100000  0.78590000  0.47 0.0725779374
C  C104  1  0.58770000  0.99830000  0.82000000  0.47 -0.2094799662
C  C105  1  0.21560000  0.71480000  0.83900000  0.47 0.0267913145
C  C106  1  0.30040000  0.70520000  0.82400000  0.47 -0.0991030251
C  C107  1  0.33170000  0.73260000  0.78990000  0.47 0.101389398
C  C108  1  0.27840000  0.76950000  0.77080000  0.47 -0.0587156866
C  C109  1  0.19370000  0.77900000  0.78590000  0.47 0.0725779374
C  C110  1  0.16230000  0.75170000  0.82000000  0.47 -0.2094799662
C  C111  1  0.21560000  0.21480000  0.33900000  0.47 0.0267913145
C  C112  1  0.30040000  0.20520000  0.32400000  0.47 -0.0991030251
C  C113  1  0.33170000  0.23260000  0.28990000  0.47 0.101389398
C  C114  1  0.27840000  0.26950000  0.27080000  0.47 -0.0587156866
C  C115  1  0.19370000  0.27900000  0.28590000  0.47 0.0725779374
C  C116  1  0.16230000  0.25170000  0.32000000  0.47 -0.2094799662
C  C117  1  0.71560000  0.71480000  0.33900000  0.47 0.0267913145
C  C118  1  0.80040000  0.70520000  0.32400000  0.47 -0.0991030251
C  C119  1  0.83170000  0.73260000  0.28990000  0.47 0.101389398
C  C120  1  0.77840000  0.76950000  0.27080000  0.47 -0.0587156866
C  C121  1  0.69370000  0.77900000  0.28590000  0.47 0.0725779374
C  C122  1  0.66230000  0.75170000  0.32000000  0.47 -0.2094799662
C  C123  1  0.71560000  0.21480000  0.83900000  0.47 0.0267913145
C  C124  1  0.80040000  0.20520000  0.82400000  0.47 -0.0991030251
C  C125  1  0.83170000  0.23260000  0.78990000  0.47 0.101389398
C  C126  1  0.77840000  0.26950000  0.77080000  0.47 -0.0587156866
C  C127  1  0.69370000  0.27900000  0.78590000  0.47 0.0725779374
C  C128  1  0.66230000  0.25170000  0.82000000  0.47 -0.2094799662
C  C257  1  0.96560000  0.46480000  0.16100000  0.47 0.0267913145
C  C258  1  0.05040000  0.45520000  0.17600000  0.47 -0.0991030251
C  C259  1  0.08170000  0.48260000  0.21010000  0.47 0.101389398
C  C260  1  0.02840000  0.51950000  0.22920000  0.47 -0.0587156866
C  C261  1  0.94370000  0.52900000  0.21410000  0.47 0.0725779374
C  C262  1  0.91230000  0.50170000  0.18000000  0.47 -0.2094799662
C  C263  1  0.96560000  0.96480000  0.66100000  0.47 0.0267913145
C  C264  1  0.05040000  0.95520000  0.67600000  0.47 -0.0991030251
C  C265  1  0.08170000  0.98260000  0.71010000  0.47 0.101389398
C  C266  1  0.02840000  0.01950000  0.72920000  0.47 -0.0587156866
C  C267  1  0.94370000  0.02900000  0.71410000  0.47 0.0725779374
C  C268  1  0.91230000  0.00170000  0.68000000  0.47 -0.2094799662
C  C269  1  0.46560000  0.46480000  0.66100000  0.47 0.0267913145
C  C270  1  0.55040000  0.45520000  0.67600000  0.47 -0.0991030251
C  C271  1  0.58170000  0.48260000  0.71010000  0.47 0.101389398
C  C272  1  0.52840000  0.51950000  0.72920000  0.47 -0.0587156866
C  C273  1  0.44370000  0.52900000  0.71410000  0.47 0.0725779374
C  C274  1  0.41230000  0.50170000  0.68000000  0.47 -0.2094799662
C  C275  1  0.46560000  0.96480000  0.16100000  0.47 0.0267913145
C  C276  1  0.55040000  0.95520000  0.17600000  0.47 -0.0991030251
C  C277  1  0.58170000  0.98260000  0.21010000  0.47 0.101389398
C  C278  1  0.52840000  0.01950000  0.22920000  0.47 -0.0587156866
C  C279  1  0.44370000  0.02900000  0.21410000  0.47 0.0725779374
C  C280  1  0.41230000  0.00170000  0.18000000  0.47 -0.2094799662
C  C281  1  0.78440000  0.28520000  0.16100000  0.47 0.0267913145
C  C282  1  0.69960000  0.29480000  0.17600000  0.47 -0.0991030251
C  C283  1  0.66830000  0.26740000  0.21010000  0.47 0.101389398
C  C284  1  0.72160000  0.23050000  0.22920000  0.47 -0.0587156866
C  C285  1  0.80630000  0.22100000  0.21410000  0.47 0.0725779374
C  C286  1  0.83770000  0.24830000  0.18000000  0.47 -0.2094799662
C  C287  1  0.78440000  0.78520000  0.66100000  0.47 0.0267913145
C  C288  1  0.69960000  0.79480000  0.67600000  0.47 -0.0991030251
C  C289  1  0.66830000  0.76740000  0.71010000  0.47 0.101389398
C  C290  1  0.72160000  0.73050000  0.72920000  0.47 -0.0587156866
C  C291  1  0.80630000  0.72100000  0.71410000  0.47 0.0725779374
C  C292  1  0.83770000  0.74830000  0.68000000  0.47 -0.2094799662
C  C293  1  0.28440000  0.28520000  0.66100000  0.47 0.0267913145
C  C294  1  0.19960000  0.29480000  0.67600000  0.47 -0.0991030251
C  C295  1  0.16830000  0.26740000  0.71010000  0.47 0.101389398
C  C296  1  0.22160000  0.23050000  0.72920000  0.47 -0.0587156866
C  C297  1  0.30630000  0.22100000  0.71410000  0.47 0.0725779374
C  C298  1  0.33770000  0.24830000  0.68000000  0.47 -0.2094799662
C  C299  1  0.28440000  0.78520000  0.16100000  0.47 0.0267913145
C  C300  1  0.19960000  0.79480000  0.17600000  0.47 -0.0991030251
C  C301  1  0.16830000  0.76740000  0.21010000  0.47 0.101389398
C  C302  1  0.22160000  0.73050000  0.22920000  0.47 -0.0587156866
C  C303  1  0.30630000  0.72100000  0.21410000  0.47 0.0725779374
C  C304  1  0.33770000  0.74830000  0.18000000  0.47 -0.2094799662
C  C305  1  0.21560000  0.53520000  0.41100000  0.47 0.0267913145
C  C306  1  0.30040000  0.54480000  0.42600000  0.47 -0.0991030251
C  C307  1  0.33170000  0.51740000  0.46010000  0.47 0.101389398
C  C308  1  0.27840000  0.48050000  0.47920000  0.47 -0.0587156866
C  C309  1  0.19370000  0.47100000  0.46410000  0.47 0.0725779374
C  C310  1  0.16230000  0.49830000  0.43000000  0.47 -0.2094799662
C  C311  1  0.21560000  0.03520000  0.91100000  0.47 0.0267913145
C  C312  1  0.30040000  0.04480000  0.92600000  0.47 -0.0991030251
C  C313  1  0.33170000  0.01740000  0.96010000  0.47 0.101389398
C  C314  1  0.27840000  0.98050000  0.97920000  0.47 -0.0587156866
C  C315  1  0.19370000  0.97100000  0.96410000  0.47 0.0725779374
C  C316  1  0.16230000  0.99830000  0.93000000  0.47 -0.2094799662
C  C317  1  0.71560000  0.53520000  0.91100000  0.47 0.0267913145
C  C318  1  0.80040000  0.54480000  0.92600000  0.47 -0.0991030251
C  C319  1  0.83170000  0.51740000  0.96010000  0.47 0.101389398
C  C320  1  0.77840000  0.48050000  0.97920000  0.47 -0.0587156866
C  C321  1  0.69370000  0.47100000  0.96410000  0.47 0.0725779374
C  C322  1  0.66230000  0.49830000  0.93000000  0.47 -0.2094799662
C  C323  1  0.71560000  0.03520000  0.41100000  0.47 0.0267913145
C  C324  1  0.80040000  0.04480000  0.42600000  0.47 -0.0991030251
C  C325  1  0.83170000  0.01740000  0.46010000  0.47 0.101389398
C  C326  1  0.77840000  0.98050000  0.47920000  0.47 -0.0587156866
C  C327  1  0.69370000  0.97100000  0.46410000  0.47 0.0725779374
C  C328  1  0.66230000  0.99830000  0.43000000  0.47 -0.2094799662
C  C329  1  0.03440000  0.71480000  0.41100000  0.47 0.0267913145
C  C330  1  0.94960000  0.70520000  0.42600000  0.47 -0.0991030251
C  C331  1  0.91830000  0.73260000  0.46010000  0.47 0.101389398
C  C332  1  0.97160000  0.76950000  0.47920000  0.47 -0.0587156866
C  C333  1  0.05630000  0.77900000  0.46410000  0.47 0.0725779374
C  C334  1  0.08770000  0.75170000  0.43000000  0.47 -0.2094799662
C  C335  1  0.03440000  0.21480000  0.91100000  0.47 0.0267913145
C  C336  1  0.94960000  0.20520000  0.92600000  0.47 -0.0991030251
C  C337  1  0.91830000  0.23260000  0.96010000  0.47 0.101389398
C  C338  1  0.97160000  0.26950000  0.97920000  0.47 -0.0587156866
C  C339  1  0.05630000  0.27900000  0.96410000  0.47 0.0725779374
C  C340  1  0.08770000  0.25170000  0.93000000  0.47 -0.2094799662
C  C341  1  0.53440000  0.71480000  0.91100000  0.47 0.0267913145
C  C342  1  0.44960000  0.70520000  0.92600000  0.47 -0.0991030251
C  C343  1  0.41830000  0.73260000  0.96010000  0.47 0.101389398
C  C344  1  0.47160000  0.76950000  0.97920000  0.47 -0.0587156866
C  C345  1  0.55630000  0.77900000  0.96410000  0.47 0.0725779374
C  C346  1  0.58770000  0.75170000  0.93000000  0.47 -0.2094799662
C  C347  1  0.53440000  0.21480000  0.41100000  0.47 0.0267913145
C  C348  1  0.44960000  0.20520000  0.42600000  0.47 -0.0991030251
C  C349  1  0.41830000  0.23260000  0.46010000  0.47 0.101389398
C  C350  1  0.47160000  0.26950000  0.47920000  0.47 -0.0587156866
C  C351  1  0.55630000  0.27900000  0.46410000  0.47 0.0725779374
C  C352  1  0.58770000  0.25170000  0.43000000  0.47 -0.2094799662
C  C129  1  0.78390000  0.47610000  0.59280000  0.53 0.0267913145
C  C130  1  0.69530000  0.47230000  0.58150000  0.53 -0.1099117933
C  C131  1  0.66310000  0.50140000  0.54850000  0.53 0.0755356431
C  C132  1  0.71950000  0.53430000  0.52680000  0.53 -0.0705826895
C  C133  1  0.80810000  0.53800000  0.53820000  0.53 0.1701290132
C  C134  1  0.84030000  0.50890000  0.57110000  0.53 -0.2265590842
C  C135  1  0.78390000  0.97610000  0.09280000  0.53 0.0267913145
C  C136  1  0.69530000  0.97230000  0.08150000  0.53 -0.1099117933
C  C137  1  0.66310000  0.00140000  0.04850000  0.53 0.0755356431
C  C138  1  0.71950000  0.03430000  0.02680000  0.53 -0.0705826895
C  C139  1  0.80810000  0.03800000  0.03820000  0.53 0.1701290132
C  C140  1  0.84030000  0.00890000  0.07110000  0.53 -0.2265590842
C  C141  1  0.28390000  0.47610000  0.09280000  0.53 0.0267913145
C  C142  1  0.19530000  0.47230000  0.08150000  0.53 -0.1099117933
C  C143  1  0.16310000  0.50140000  0.04850000  0.53 0.0755356431
C  C144  1  0.21950000  0.53430000  0.02680000  0.53 -0.0705826895
C  C145  1  0.30810000  0.53800000  0.03820000  0.53 0.1701290132
C  C146  1  0.34030000  0.50890000  0.07110000  0.53 -0.2265590842
C  C147  1  0.28390000  0.97610000  0.59280000  0.53 0.0267913145
C  C148  1  0.19530000  0.97230000  0.58150000  0.53 -0.1099117933
C  C149  1  0.16310000  0.00140000  0.54850000  0.53 0.0755356431
C  C150  1  0.21950000  0.03430000  0.52680000  0.53 -0.0705826895
C  C151  1  0.30810000  0.03800000  0.53820000  0.53 0.1701290132
C  C152  1  0.34030000  0.00890000  0.57110000  0.53 -0.2265590842
C  C153  1  0.96610000  0.27390000  0.59280000  0.53 0.0267913145
C  C154  1  0.05470000  0.27770000  0.58150000  0.53 -0.1099117933
C  C155  1  0.08690000  0.24860000  0.54850000  0.53 0.0755356431
C  C156  1  0.03050000  0.21570000  0.52680000  0.53 -0.0705826895
C  C157  1  0.94190000  0.21200000  0.53820000  0.53 0.1701290132
C  C158  1  0.90970000  0.24110000  0.57110000  0.53 -0.2265590842
C  C159  1  0.96610000  0.77390000  0.09280000  0.53 0.0267913145
C  C160  1  0.05470000  0.77770000  0.08150000  0.53 -0.1099117933
C  C161  1  0.08690000  0.74860000  0.04850000  0.53 0.0755356431
C  C162  1  0.03050000  0.71570000  0.02680000  0.53 -0.0705826895
C  C163  1  0.94190000  0.71200000  0.03820000  0.53 0.1701290132
C  C164  1  0.90970000  0.74110000  0.07110000  0.53 -0.2265590842
C  C165  1  0.46610000  0.27390000  0.09280000  0.53 0.0267913145
C  C166  1  0.55470000  0.27770000  0.08150000  0.53 -0.1099117933
C  C167  1  0.58690000  0.24860000  0.04850000  0.53 0.0755356431
C  C168  1  0.53050000  0.21570000  0.02680000  0.53 -0.0705826895
C  C169  1  0.44190000  0.21200000  0.03820000  0.53 0.1701290132
C  C170  1  0.40970000  0.24110000  0.07110000  0.53 -0.2265590842
C  C171  1  0.46610000  0.77390000  0.59280000  0.53 0.0267913145
C  C172  1  0.55470000  0.77770000  0.58150000  0.53 -0.1099117933
C  C173  1  0.58690000  0.74860000  0.54850000  0.53 0.0755356431
C  C174  1  0.53050000  0.71570000  0.52680000  0.53 -0.0705826895
C  C175  1  0.44190000  0.71200000  0.53820000  0.53 0.1701290132
C  C176  1  0.40970000  0.74110000  0.57110000  0.53 -0.2265590842
C  C177  1  0.03390000  0.52390000  0.84280000  0.53 0.0267913145
C  C178  1  0.94530000  0.52770000  0.83150000  0.53 -0.1099117933
C  C179  1  0.91310000  0.49860000  0.79850000  0.53 0.0725779374
C  C180  1  0.96950000  0.46570000  0.77680000  0.53 -0.0705826895
C  C181  1  0.05810000  0.46200000  0.78820000  0.53 0.1701290132
C  C182  1  0.09030000  0.49110000  0.82110000  0.53 -0.2265590842
C  C183  1  0.03390000  0.02390000  0.34280000  0.53 0.0267913145
C  C184  1  0.94530000  0.02770000  0.33150000  0.53 -0.1099117933
C  C185  1  0.91310000  0.99860000  0.29850000  0.53 0.0755356431
C  C186  1  0.96950000  0.96570000  0.27680000  0.53 -0.0705826895
C  C187  1  0.05810000  0.96200000  0.28820000  0.53 0.1701290132
C  C188  1  0.09030000  0.99110000  0.32110000  0.53 -0.2265590842
C  C189  1  0.53390000  0.52390000  0.34280000  0.53 0.0267913145
C  C190  1  0.44530000  0.52770000  0.33150000  0.53 -0.1099117933
C  C191  1  0.41310000  0.49860000  0.29850000  0.53 0.0755356431
C  C192  1  0.46950000  0.46570000  0.27680000  0.53 -0.0705826895
C  C193  1  0.55810000  0.46200000  0.28820000  0.53 0.1701290132
C  C194  1  0.59030000  0.49110000  0.32110000  0.53 -0.2265590842
C  C195  1  0.53390000  0.02390000  0.84280000  0.53 0.0267913145
C  C196  1  0.44530000  0.02770000  0.83150000  0.53 -0.1099117933
C  C197  1  0.41310000  0.99860000  0.79850000  0.53 0.0755356431
C  C198  1  0.46950000  0.96570000  0.77680000  0.53 -0.0705826895
C  C199  1  0.55810000  0.96200000  0.78820000  0.53 0.1701290132
C  C200  1  0.59030000  0.99110000  0.82110000  0.53 -0.2265590842
C  C201  1  0.21610000  0.72610000  0.84280000  0.53 0.0267913145
C  C202  1  0.30470000  0.72230000  0.83150000  0.53 -0.1099117933
C  C203  1  0.33690000  0.75140000  0.79850000  0.53 0.0755356431
C  C204  1  0.28050000  0.78430000  0.77680000  0.53 -0.0705826895
C  C205  1  0.19190000  0.78800000  0.78820000  0.53 0.1701290132
C  C206  1  0.15970000  0.75890000  0.82110000  0.53 -0.2265590842
C  C207  1  0.21610000  0.22610000  0.34280000  0.53 0.0267913145
C  C208  1  0.30470000  0.22230000  0.33150000  0.53 -0.1099117933
C  C209  1  0.33690000  0.25140000  0.29850000  0.53 0.0755356431
C  C210  1  0.28050000  0.28430000  0.27680000  0.53 -0.0705826895
C  C211  1  0.19190000  0.28800000  0.28820000  0.53 0.1701290132
C  C212  1  0.15970000  0.25890000  0.32110000  0.53 -0.2265590842
C  C213  1  0.71610000  0.72610000  0.34280000  0.53 0.0267913145
C  C214  1  0.80470000  0.72230000  0.33150000  0.53 -0.1099117933
C  C215  1  0.83690000  0.75140000  0.29850000  0.53 0.0755356431
C  C216  1  0.78050000  0.78430000  0.27680000  0.53 -0.0705826895
C  C217  1  0.69190000  0.78800000  0.28820000  0.53 0.1701290132
C  C218  1  0.65970000  0.75890000  0.32110000  0.53 -0.2265590842
C  C219  1  0.71610000  0.22610000  0.84280000  0.53 0.0267913145
C  C220  1  0.80470000  0.22230000  0.83150000  0.53 -0.1099117933
C  C221  1  0.83690000  0.25140000  0.79850000  0.53 0.0755356431
C  C222  1  0.78050000  0.28430000  0.77680000  0.53 -0.0705826895
C  C223  1  0.69190000  0.28800000  0.78820000  0.53 0.1701290132
C  C224  1  0.65970000  0.25890000  0.82110000  0.53 -0.2265590842
C  C353  1  0.96610000  0.47610000  0.15720000  0.53 0.0267913145
C  C354  1  0.05470000  0.47230000  0.16850000  0.53 -0.1099117933
C  C355  1  0.08690000  0.50140000  0.20150000  0.53 0.0755356431
C  C356  1  0.03050000  0.53430000  0.22320000  0.53 -0.0705826895
C  C357  1  0.94190000  0.53800000  0.21180000  0.53 0.1701290132
C  C358  1  0.90970000  0.50890000  0.17890000  0.53 -0.2265590842
C  C359  1  0.96610000  0.97610000  0.65720000  0.53 0.0267913145
C  C360  1  0.05470000  0.97230000  0.66850000  0.53 -0.1099117933
C  C361  1  0.08690000  0.00140000  0.70150000  0.53 0.0755356431
C  C362  1  0.03050000  0.03430000  0.72320000  0.53 -0.0705826895
C  C363  1  0.94190000  0.03800000  0.71180000  0.53 0.1701290132
C  C364  1  0.90970000  0.00890000  0.67890000  0.53 -0.2265590842
C  C365  1  0.46610000  0.47610000  0.65720000  0.53 0.0267913145
C  C366  1  0.55470000  0.47230000  0.66850000  0.53 -0.1099117933
C  C367  1  0.58690000  0.50140000  0.70150000  0.53 0.0755356431
C  C368  1  0.53050000  0.53430000  0.72320000  0.53 -0.0705826895
C  C369  1  0.44190000  0.53800000  0.71180000  0.53 0.1701290132
C  C370  1  0.40970000  0.50890000  0.67890000  0.53 -0.2265590842
C  C371  1  0.46610000  0.97610000  0.15720000  0.53 0.0267913145
C  C372  1  0.55470000  0.97230000  0.16850000  0.53 -0.1099117933
C  C373  1  0.58690000  0.00140000  0.20150000  0.53 0.0755356431
C  C374  1  0.53050000  0.03430000  0.22320000  0.53 -0.0705826895
C  C375  1  0.44190000  0.03800000  0.21180000  0.53 0.1701290132
C  C376  1  0.40970000  0.00890000  0.17890000  0.53 -0.2265590842
C  C377  1  0.78390000  0.27390000  0.15720000  0.53 0.0267913145
C  C378  1  0.69530000  0.27770000  0.16850000  0.53 -0.1099117933
C  C379  1  0.66310000  0.24860000  0.20150000  0.53 0.0755356431
C  C380  1  0.71950000  0.21570000  0.22320000  0.53 -0.0705826895
C  C381  1  0.80810000  0.21200000  0.21180000  0.53 0.1701290132
C  C382  1  0.84030000  0.24110000  0.17890000  0.53 -0.2265590842
C  C383  1  0.78390000  0.77390000  0.65720000  0.53 0.0267913145
C  C384  1  0.69530000  0.77770000  0.66850000  0.53 -0.1099117933
C  C385  1  0.66310000  0.74860000  0.70150000  0.53 0.0755356431
C  C386  1  0.71950000  0.71570000  0.72320000  0.53 -0.0705826895
C  C387  1  0.80810000  0.71200000  0.71180000  0.53 0.1701290132
C  C388  1  0.84030000  0.74110000  0.67890000  0.53 -0.2265590842
C  C389  1  0.28390000  0.27390000  0.65720000  0.53 0.0267913145
C  C390  1  0.19530000  0.27770000  0.66850000  0.53 -0.1099117933
C  C391  1  0.16310000  0.24860000  0.70150000  0.53 0.0755356431
C  C392  1  0.21950000  0.21570000  0.72320000  0.53 -0.0705826895
C  C393  1  0.30810000  0.21200000  0.71180000  0.53 0.1701290132
C  C394  1  0.34030000  0.24110000  0.67890000  0.53 -0.2265590842
C  C395  1  0.28390000  0.77390000  0.15720000  0.53 0.0267913145
C  C396  1  0.19530000  0.77770000  0.16850000  0.53 -0.1099117933
C  C397  1  0.16310000  0.74860000  0.20150000  0.53 0.0755356431
C  C398  1  0.21950000  0.71570000  0.22320000  0.53 -0.0705826895
C  C399  1  0.30810000  0.71200000  0.21180000  0.53 0.1701290132
C  C400  1  0.34030000  0.74110000  0.17890000  0.53 -0.2265590842
C  C401  1  0.21610000  0.52390000  0.40720000  0.53 0.0267913145
C  C402  1  0.30470000  0.52770000  0.41850000  0.53 -0.1099117933
C  C403  1  0.33690000  0.49860000  0.45150000  0.53 0.0755356431
C  C404  1  0.28050000  0.46570000  0.47320000  0.53 -0.0705826895
C  C405  1  0.19190000  0.46200000  0.46180000  0.53 0.1701290132
C  C406  1  0.15970000  0.49110000  0.42890000  0.53 -0.2265590842
C  C407  1  0.21610000  0.02390000  0.90720000  0.53 0.0267913145
C  C408  1  0.30470000  0.02770000  0.91850000  0.53 -0.1099117933
C  C409  1  0.33690000  0.99860000  0.95150000  0.53 0.0755356431
C  C410  1  0.28050000  0.96570000  0.97320000  0.53 -0.0705826895
C  C411  1  0.19190000  0.96200000  0.96180000  0.53 0.1701290132
C  C412  1  0.15970000  0.99110000  0.92890000  0.53 -0.2265590842
C  C413  1  0.71610000  0.52390000  0.90720000  0.53 0.0267913145
C  C414  1  0.80470000  0.52770000  0.91850000  0.53 -0.1099117933
C  C415  1  0.83690000  0.49860000  0.95150000  0.53 0.0755356431
C  C416  1  0.78050000  0.46570000  0.97320000  0.53 -0.0705826895
C  C417  1  0.69190000  0.46200000  0.96180000  0.53 0.1701290132
C  C418  1  0.65970000  0.49110000  0.92890000  0.53 -0.2265590842
C  C419  1  0.71610000  0.02390000  0.40720000  0.53 0.0267913145
C  C420  1  0.80470000  0.02770000  0.41850000  0.53 -0.1099117933
C  C421  1  0.83690000  0.99860000  0.45150000  0.53 0.0755356431
C  C422  1  0.78050000  0.96570000  0.47320000  0.53 -0.0705826895
C  C423  1  0.69190000  0.96200000  0.46180000  0.53 0.1701290132
C  C424  1  0.65970000  0.99110000  0.42890000  0.53 -0.2265590842
C  C425  1  0.03390000  0.72610000  0.40720000  0.53 0.0267913145
C  C426  1  0.94530000  0.72230000  0.41850000  0.53 -0.1099117933
C  C427  1  0.91310000  0.75140000  0.45150000  0.53 0.0755356431
C  C428  1  0.96950000  0.78430000  0.47320000  0.53 -0.0705826895
C  C429  1  0.05810000  0.78800000  0.46180000  0.53 0.1701290132
C  C430  1  0.09030000  0.75890000  0.42890000  0.53 -0.2265590842
C  C431  1  0.03390000  0.22610000  0.90720000  0.53 0.0267913145
C  C432  1  0.94530000  0.22230000  0.91850000  0.53 -0.1099117933
C  C433  1  0.91310000  0.25140000  0.95150000  0.53 0.0755356431
C  C434  1  0.96950000  0.28430000  0.97320000  0.53 -0.0705826895
C  C435  1  0.05810000  0.28800000  0.96180000  0.53 0.1701290132
C  C436  1  0.09030000  0.25890000  0.92890000  0.53 -0.2265590842
C  C437  1  0.53390000  0.72610000  0.90720000  0.53 0.0267913145
C  C438  1  0.44530000  0.72230000  0.91850000  0.53 -0.1099117933
C  C439  1  0.41310000  0.75140000  0.95150000  0.53 0.0755356431
C  C440  1  0.46950000  0.78430000  0.97320000  0.53 -0.0705826895
C  C441  1  0.55810000  0.78800000  0.96180000  0.53 0.1701290132
C  C442  1  0.59030000  0.75890000  0.92890000  0.53 -0.2265590842
C  C443  1  0.53390000  0.22610000  0.40720000  0.53 0.0267913145
C  C444  1  0.44530000  0.22230000  0.41850000  0.53 -0.1099117933
C  C445  1  0.41310000  0.25140000  0.45150000  0.53 0.0755356431
C  C446  1  0.46950000  0.28430000  0.47320000  0.53 -0.0705826895
C  C447  1  0.55810000  0.28800000  0.46180000  0.53 0.1701290132
C  C448  1  0.59030000  0.25890000  0.42890000  0.53 -0.2265590842
N  N1  1  0.86100000  0.56400000  0.51970000  0.15 -0.3377511385
N  N2  1  0.86100000  0.06400000  0.01970000  0.15 -0.3377511385
N  N3  1  0.36100000  0.56400000  0.01970000  0.15 -0.3377511385
N  N4  1  0.36100000  0.06400000  0.51970000  0.15 -0.3377511385
N  N5  1  0.88900000  0.18600000  0.51970000  0.15 -0.3377511385
N  N6  1  0.88900000  0.68600000  0.01970000  0.15 -0.3377511385
N  N7  1  0.38900000  0.18600000  0.01970000  0.15 -0.3377511385
N  N8  1  0.38900000  0.68600000  0.51970000  0.15 -0.3377511385
N  N9  1  0.11100000  0.43600000  0.76970000  0.15 -0.3377511385
N  N10  1  0.11100000  0.93600000  0.26970000  0.15 -0.3377511385
N  N11  1  0.61100000  0.43600000  0.26970000  0.15 -0.3377511385
N  N12  1  0.61100000  0.93600000  0.76970000  0.15 -0.3377511385
N  N13  1  0.13900000  0.81400000  0.76970000  0.15 -0.3377511385
N  N14  1  0.13900000  0.31400000  0.26970000  0.15 -0.3377511385
N  N15  1  0.63900000  0.81400000  0.26970000  0.15 -0.3377511385
N  N16  1  0.63900000  0.31400000  0.76970000  0.15 -0.3377511385
N  N49  1  0.88900000  0.56400000  0.23030000  0.15 -0.3377511385
N  N50  1  0.88900000  0.06400000  0.73030000  0.15 -0.3377511385
N  N51  1  0.38900000  0.56400000  0.73030000  0.15 -0.3377511385
N  N52  1  0.38900000  0.06400000  0.23030000  0.15 -0.3377511385
N  N53  1  0.86100000  0.18600000  0.23030000  0.15 -0.3377511385
N  N54  1  0.86100000  0.68600000  0.73030000  0.15 -0.3377511385
N  N55  1  0.36100000  0.18600000  0.73030000  0.15 -0.3377511385
N  N56  1  0.36100000  0.68600000  0.23030000  0.15 -0.3377511385
N  N57  1  0.13900000  0.43600000  0.48030000  0.15 -0.3377511385
N  N58  1  0.13900000  0.93600000  0.98030000  0.15 -0.3377511385
N  N59  1  0.63900000  0.43600000  0.98030000  0.15 -0.3377511385
N  N60  1  0.63900000  0.93600000  0.48030000  0.15 -0.3377511385
N  N61  1  0.11100000  0.81400000  0.48030000  0.15 -0.3377511385
N  N62  1  0.11100000  0.31400000  0.98030000  0.15 -0.3377511385
N  N63  1  0.61100000  0.81400000  0.98030000  0.15 -0.3377511385
N  N64  1  0.61100000  0.31400000  0.48030000  0.15 -0.3377511385
N  N17  1  0.56990000  0.49460000  0.53980000  0.45 -0.2265590842
N  N18  1  0.56990000  0.99460000  0.03980000  0.45 -0.2265590842
N  N19  1  0.06990000  0.49460000  0.03980000  0.45 -0.2265590842
N  N20  1  0.06990000  0.99460000  0.53980000  0.45 -0.2265590842
N  N21  1  0.18010000  0.25540000  0.53980000  0.45 -0.2265590842
N  N22  1  0.18010000  0.75540000  0.03980000  0.45 -0.2265590842
N  N23  1  0.68010000  0.25540000  0.03980000  0.45 -0.2265590842
N  N24  1  0.68010000  0.75540000  0.53980000  0.45 -0.2265590842
N  N25  1  0.81990000  0.50540000  0.78980000  0.45 -0.2265590842
N  N26  1  0.81990000  0.00540000  0.28980000  0.45 -0.2265590842
N  N27  1  0.31990000  0.50540000  0.28980000  0.45 -0.2265590842
N  N28  1  0.31990000  0.00540000  0.78980000  0.45 -0.2265590842
N  N29  1  0.43010000  0.74460000  0.78980000  0.45 -0.2265590842
N  N30  1  0.43010000  0.24460000  0.28980000  0.45 -0.2265590842
N  N31  1  0.93010000  0.74460000  0.28980000  0.45 -0.2265590842
N  N32  1  0.93010000  0.24460000  0.78980000  0.45 -0.2265590842
N  N65  1  0.18010000  0.49460000  0.21020000  0.45 -0.2265590842
N  N66  1  0.18010000  0.99460000  0.71020000  0.45 -0.2265590842
N  N67  1  0.68010000  0.49460000  0.71020000  0.45 -0.2265590842
N  N68  1  0.68010000  0.99460000  0.21020000  0.45 -0.2265590842
N  N69  1  0.56990000  0.25540000  0.21020000  0.45 -0.2265590842
N  N70  1  0.56990000  0.75540000  0.71020000  0.45 -0.2265590842
N  N71  1  0.06990000  0.25540000  0.71020000  0.45 -0.2265590842
N  N72  1  0.06990000  0.75540000  0.21020000  0.45 -0.2265590842
N  N73  1  0.43010000  0.50540000  0.46020000  0.45 -0.2265590842
N  N74  1  0.43010000  0.00540000  0.96020000  0.45 -0.2265590842
N  N75  1  0.93010000  0.50540000  0.96020000  0.45 -0.2265590842
N  N76  1  0.93010000  0.00540000  0.46020000  0.45 -0.2265590842
N  N77  1  0.81990000  0.74460000  0.46020000  0.45 -0.2265590842
N  N78  1  0.81990000  0.24460000  0.96020000  0.45 -0.2265590842
N  N79  1  0.31990000  0.74460000  0.96020000  0.45 -0.2265590842
N  N80  1  0.31990000  0.24460000  0.46020000  0.45 -0.2265590842
N  N33  1  0.58510000  0.46760000  0.52560000  0.4 -0.2019709083
N  N34  1  0.58510000  0.96760000  0.02560000  0.4 -0.2019709083
N  N35  1  0.08510000  0.46760000  0.02560000  0.4 -0.2019709083
N  N36  1  0.08510000  0.96760000  0.52560000  0.4 -0.2019709083
N  N37  1  0.16490000  0.28240000  0.52560000  0.4 -0.2019709083
N  N38  1  0.16490000  0.78240000  0.02560000  0.4 -0.2019709083
N  N39  1  0.66490000  0.28240000  0.02560000  0.4 -0.2019709083
N  N40  1  0.66490000  0.78240000  0.52560000  0.4 -0.2019709083
N  N41  1  0.83510000  0.53240000  0.77560000  0.4 -0.2019709083
N  N42  1  0.83510000  0.03240000  0.27560000  0.4 -0.2019709083
N  N43  1  0.33510000  0.53240000  0.27560000  0.4 -0.2019709083
N  N44  1  0.33510000  0.03240000  0.77560000  0.4 -0.2019709083
N  N45  1  0.41490000  0.71760000  0.77560000  0.4 -0.2019709083
N  N46  1  0.41490000  0.21760000  0.27560000  0.4 -0.2019709083
N  N47  1  0.91490000  0.71760000  0.27560000  0.4 -0.2019709083
N  N48  1  0.91490000  0.21760000  0.77560000  0.4 -0.2019709083
N  N81  1  0.16490000  0.46760000  0.22440000  0.4 -0.2019709083
N  N82  1  0.16490000  0.96760000  0.72440000  0.4 -0.2019709083
N  N83  1  0.66490000  0.46760000  0.72440000  0.4 -0.2019709083
N  N84  1  0.66490000  0.96760000  0.22440000  0.4 -0.2019709083
N  N85  1  0.58510000  0.28240000  0.22440000  0.4 -0.2019709083
N  N86  1  0.58510000  0.78240000  0.72440000  0.4 -0.2019709083
N  N87  1  0.08510000  0.28240000  0.72440000  0.4 -0.2019709083
N  N88  1  0.08510000  0.78240000  0.22440000  0.4 -0.2019709083
N  N89  1  0.41490000  0.53240000  0.47440000  0.4 -0.2019709083
N  N90  1  0.41490000  0.03240000  0.97440000  0.4 -0.2019709083
N  N91  1  0.91490000  0.53240000  0.97440000  0.4 -0.2019709083
N  N92  1  0.91490000  0.03240000  0.47440000  0.4 -0.2019709083
N  N93  1  0.83510000  0.71760000  0.47440000  0.4 -0.2019709083
N  N94  1  0.83510000  0.21760000  0.97440000  0.4 -0.2019709083
N  N95  1  0.33510000  0.71760000  0.97440000  0.4 -0.2019709083
N  N96  1  0.33510000  0.21760000  0.47440000  0.4 -0.2019709083
O  O1  1  0.89710000  0.43610000  0.63390000  1.0 -0.4610874779
O  O2  1  0.98830000  0.33700000  0.64776000  1.0 -0.4849020648
O  O3  1  0.99090000  0.41180000  0.71880000  1.0 -0.4479191345
O  O4  1  0.89450000  0.31230000  0.73071000  1.0 -0.5118755339
O  O5  1  0.89710000  0.93610000  0.13390000  1.0 -0.4610874779
O  O6  1  0.98830000  0.83700000  0.14776000  1.0 -0.4849020648
O  O7  1  0.99090000  0.91180000  0.21880000  1.0 -0.4479191345
O  O8  1  0.89450000  0.81230000  0.23071000  1.0 -0.5118755339
O  O9  1  0.39710000  0.43610000  0.13390000  1.0 -0.4610874779
O  O10  1  0.48830000  0.33700000  0.14776000  1.0 -0.4849020648
O  O11  1  0.49090000  0.41180000  0.21880000  1.0 -0.4479191345
O  O12  1  0.39450000  0.31230000  0.23071000  1.0 -0.5118755339
O  O13  1  0.39710000  0.93610000  0.63390000  1.0 -0.4610874779
O  O14  1  0.48830000  0.83700000  0.64776000  1.0 -0.485693491
O  O15  1  0.49090000  0.91180000  0.71880000  1.0 -0.4479191345
O  O16  1  0.39450000  0.81230000  0.73071000  1.0 -0.5118755339
O  O17  1  0.85290000  0.31390000  0.63390000  1.0 -0.4610874779
O  O18  1  0.76170000  0.41300000  0.64776000  1.0 -0.4849020648
O  O19  1  0.75910000  0.33820000  0.71880000  1.0 -0.4479191345
O  O20  1  0.85550000  0.43770000  0.73071000  1.0 -0.5118755339
O  O21  1  0.85290000  0.81390000  0.13390000  1.0 -0.4610874779
O  O22  1  0.76170000  0.91300000  0.14776000  1.0 -0.485693491
O  O23  1  0.75910000  0.83820000  0.21880000  1.0 -0.4479191345
O  O24  1  0.85550000  0.93770000  0.23071000  1.0 -0.5118755339
O  O25  1  0.35290000  0.31390000  0.13390000  1.0 -0.4610874779
O  O26  1  0.26170000  0.41300000  0.14776000  1.0 -0.485693491
O  O27  1  0.25910000  0.33820000  0.21880000  1.0 -0.4479191345
O  O28  1  0.35550000  0.43770000  0.23071000  1.0 -0.5118755339
O  O29  1  0.35290000  0.81390000  0.63390000  1.0 -0.4610874779
O  O30  1  0.26170000  0.91300000  0.64776000  1.0 -0.485693491
O  O31  1  0.25910000  0.83820000  0.71880000  1.0 -0.4479191345
O  O32  1  0.35550000  0.93770000  0.73071000  1.0 -0.5118755339
O  O33  1  0.14710000  0.56390000  0.88390000  1.0 -0.4610874779
O  O34  1  0.23830000  0.66300000  0.89776000  1.0 -0.485693491
O  O35  1  0.24090000  0.58820000  0.96880000  1.0 -0.4479191345
O  O36  1  0.14450000  0.68770000  0.98071000  1.0 -0.5118755339
O  O37  1  0.14710000  0.06390000  0.38390000  1.0 -0.4610874779
O  O38  1  0.23830000  0.16300000  0.39776000  1.0 -0.485693491
O  O39  1  0.24090000  0.08820000  0.46880000  1.0 -0.4479191345
O  O40  1  0.14450000  0.18770000  0.48071000  1.0 -0.5118755339
O  O41  1  0.64710000  0.56390000  0.38390000  1.0 -0.4610874779
O  O42  1  0.73830000  0.66300000  0.39776000  1.0 -0.485693491
O  O43  1  0.74090000  0.58820000  0.46880000  1.0 -0.4479191345
O  O44  1  0.64450000  0.68770000  0.48071000  1.0 -0.5118755339
O  O45  1  0.64710000  0.06390000  0.88390000  1.0 -0.4610874779
O  O46  1  0.73830000  0.16300000  0.89776000  1.0 -0.485693491
O  O47  1  0.74090000  0.08820000  0.96880000  1.0 -0.4479191345
O  O48  1  0.64450000  0.18770000  0.98071000  1.0 -0.5118755339
O  O49  1  0.10290000  0.68610000  0.88390000  1.0 -0.4610874779
O  O50  1  0.01170000  0.58700000  0.89776000  1.0 -0.485693491
O  O51  1  0.00910000  0.66180000  0.96880000  1.0 -0.4479191345
O  O52  1  0.10550000  0.56230000  0.98071000  1.0 -0.5118755339
O  O53  1  0.10290000  0.18610000  0.38390000  1.0 -0.4610874779
O  O54  1  0.01170000  0.08700000  0.39776000  1.0 -0.4849020648
O  O55  1  0.00910000  0.16180000  0.46880000  1.0 -0.4479191345
O  O56  1  0.10550000  0.06230000  0.48071000  1.0 -0.5118755339
O  O57  1  0.60290000  0.68610000  0.38390000  1.0 -0.4610874779
O  O58  1  0.51170000  0.58700000  0.39776000  1.0 -0.4849020648
O  O59  1  0.50910000  0.66180000  0.46880000  1.0 -0.4479191345
O  O60  1  0.60550000  0.56230000  0.48071000  1.0 -0.5118755339
O  O61  1  0.60290000  0.18610000  0.88390000  1.0 -0.4610874779
O  O62  1  0.51170000  0.08700000  0.89776000  1.0 -0.4849020648
O  O63  1  0.50910000  0.16180000  0.96880000  1.0 -0.4479191345
O  O64  1  0.60550000  0.06230000  0.98071000  1.0 -0.5118755339
O  O65  1  0.85290000  0.43610000  0.11610000  1.0 -0.4610874779
O  O66  1  0.76170000  0.33700000  0.10224000  1.0 -0.4849020648
O  O67  1  0.75910000  0.41180000  0.03120000  1.0 -0.4479191345
O  O68  1  0.85550000  0.31230000  0.01929000  1.0 -0.5118755339
O  O69  1  0.85290000  0.93610000  0.61610000  1.0 -0.4610874779
O  O70  1  0.76170000  0.83700000  0.60224000  1.0 -0.485693491
O  O71  1  0.75910000  0.91180000  0.53120000  1.0 -0.4479191345
O  O72  1  0.85550000  0.81230000  0.51929000  1.0 -0.5118755339
O  O73  1  0.35290000  0.43610000  0.61610000  1.0 -0.4610874779
O  O74  1  0.26170000  0.33700000  0.60224000  1.0 -0.485693491
O  O75  1  0.25910000  0.41180000  0.53120000  1.0 -0.4479191345
O  O76  1  0.35550000  0.31230000  0.51929000  1.0 -0.5118755339
O  O77  1  0.35290000  0.93610000  0.11610000  1.0 -0.4610874779
O  O78  1  0.26170000  0.83700000  0.10224000  1.0 -0.485693491
O  O79  1  0.25910000  0.91180000  0.03120000  1.0 -0.4479191345
O  O80  1  0.35550000  0.81230000  0.01929000  1.0 -0.5118755339
O  O81  1  0.89710000  0.31390000  0.11610000  1.0 -0.4610874779
O  O82  1  0.98830000  0.41300000  0.10224000  1.0 -0.4849020648
O  O83  1  0.99090000  0.33820000  0.03120000  1.0 -0.4479191345
O  O84  1  0.89450000  0.43770000  0.01929000  1.0 -0.5118755339
O  O85  1  0.89710000  0.81390000  0.61610000  1.0 -0.4610874779
O  O86  1  0.98830000  0.91300000  0.60224000  1.0 -0.485693491
O  O87  1  0.99090000  0.83820000  0.53120000  1.0 -0.4479191345
O  O88  1  0.89450000  0.93770000  0.51929000  1.0 -0.5118755339
O  O89  1  0.39710000  0.31390000  0.61610000  1.0 -0.4610874779
O  O90  1  0.48830000  0.41300000  0.60224000  1.0 -0.485693491
O  O91  1  0.49090000  0.33820000  0.53120000  1.0 -0.4479191345
O  O92  1  0.39450000  0.43770000  0.51929000  1.0 -0.5118755339
O  O93  1  0.39710000  0.81390000  0.11610000  1.0 -0.4610874779
O  O94  1  0.48830000  0.91300000  0.10224000  1.0 -0.485693491
O  O95  1  0.49090000  0.83820000  0.03120000  1.0 -0.4479191345
O  O96  1  0.39450000  0.93770000  0.01929000  1.0 -0.5118755339
O  O97  1  0.10290000  0.56390000  0.36610000  1.0 -0.4610874779
O  O98  1  0.01170000  0.66300000  0.35224000  1.0 -0.485693491
O  O99  1  0.00910000  0.58820000  0.28120000  1.0 -0.4479191345
O  O100  1  0.10550000  0.68770000  0.26929000  1.0 -0.5118755339
O  O101  1  0.10290000  0.06390000  0.86610000  1.0 -0.4610874779
O  O102  1  0.01170000  0.16300000  0.85224000  1.0 -0.485693491
O  O103  1  0.00910000  0.08820000  0.78120000  1.0 -0.4479191345
O  O104  1  0.10550000  0.18770000  0.76929000  1.0 -0.5118755339
O  O105  1  0.60290000  0.56390000  0.86610000  1.0 -0.4610874779
O  O106  1  0.51170000  0.66300000  0.85224000  1.0 -0.485693491
O  O107  1  0.50910000  0.58820000  0.78120000  1.0 -0.4479191345
O  O108  1  0.60550000  0.68770000  0.76929000  1.0 -0.5118755339
O  O109  1  0.60290000  0.06390000  0.36610000  1.0 -0.4610874779
O  O110  1  0.51170000  0.16300000  0.35224000  1.0 -0.4849020648
O  O111  1  0.50910000  0.08820000  0.28120000  1.0 -0.4479191345
O  O112  1  0.60550000  0.18770000  0.26929000  1.0 -0.5118755339
O  O113  1  0.14710000  0.68610000  0.36610000  1.0 -0.4610874779
O  O114  1  0.23830000  0.58700000  0.35224000  1.0 -0.485693491
O  O115  1  0.24090000  0.66180000  0.28120000  1.0 -0.4479191345
O  O116  1  0.14450000  0.56230000  0.26929000  1.0 -0.5118755339
O  O117  1  0.14710000  0.18610000  0.86610000  1.0 -0.4610874779
O  O118  1  0.23830000  0.08700000  0.85224000  1.0 -0.485693491
O  O119  1  0.24090000  0.16180000  0.78120000  1.0 -0.4479191345
O  O120  1  0.14450000  0.06230000  0.76929000  1.0 -0.5118755339
O  O121  1  0.64710000  0.68610000  0.86610000  1.0 -0.4610874779
O  O122  1  0.73830000  0.58700000  0.85224000  1.0 -0.485693491
O  O123  1  0.74090000  0.66180000  0.78120000  1.0 -0.4479191345
O  O124  1  0.64450000  0.56230000  0.76929000  1.0 -0.5118755339
O  O125  1  0.64710000  0.18610000  0.36610000  1.0 -0.4610874779
O  O126  1  0.73830000  0.08700000  0.35224000  1.0 -0.4849020648
O  O127  1  0.74090000  0.16180000  0.28120000  1.0 -0.4479191345
O  O128  1  0.64450000  0.06230000  0.26929000  1.0 -0.5118755339
