# DDEC6 charges by PACMAN v1.1 (https://github.com/mtap-research/PACMAN-charge/)
data_2024[Zn][crb]3[ASR]6
_chemical_formula_sum              "Zn16 H96 C96 N64"
_cell_length_a       9.63356
_cell_length_b       24.0923
_cell_length_c       24.4097
_cell_angle_alpha    90
_cell_angle_beta     90
_cell_angle_gamma    90

_symmetry_space_group_name_H-M    "P 1"
_symmetry_Int_Tables_number       1

loop_
  _symmetry_equiv_pos_as_xyz
  'x, y, z'

loop_
  _atom_site_type_symbol
  _atom_site_label
  _atom_site_symmetry_multiplicity
  _atom_site_fract_x
  _atom_site_fract_y
  _atom_site_fract_z
  _atom_site_occupancy
  _atom_site_charge
Zn  Zn1       1.0  0.01229  0.17442  0.50141  1.0000 0.6224627684
Zn  Zn2       1.0  0.51229  0.32558  0.49859  1.0000 0.6224627684
Zn  Zn3       1.0  0.98771  0.67442  0.99859  1.0000 0.6224627684
Zn  Zn4       1.0  0.48771  0.82558  0.00141  1.0000 0.6224627684
Zn  Zn5       1.0  0.98771  0.82558  0.49859  1.0000 0.6224627684
Zn  Zn6       1.0  0.48771  0.67442  0.50141  1.0000 0.6224627684
Zn  Zn7       1.0  0.01229  0.32558  0.00141  1.0000 0.6224627684
Zn  Zn8       1.0  0.51229  0.17442  0.99859  1.0000 0.6224627684
Zn  Zn9       1.0  0.00268  0.00175  0.32394  1.0000 0.6224627684
Zn  Zn10      1.0  0.50268  0.49825  0.67606  1.0000 0.6224627684
Zn  Zn11      1.0  0.99732  0.50175  0.17606  1.0000 0.6224627684
Zn  Zn12      1.0  0.49732  0.99825  0.82394  1.0000 0.6224627684
Zn  Zn13      1.0  0.99732  0.99825  0.67606  1.0000 0.6224627684
Zn  Zn14      1.0  0.49732  0.50175  0.32394  1.0000 0.6224627684
Zn  Zn15      1.0  0.00268  0.49825  0.82394  1.0000 0.6224627684
Zn  Zn16      1.0  0.50268  0.00175  0.17606  1.0000 0.6224627684
H   H1        1.0  0.75500  0.33770  0.40840  1.0000 0.1004745378
H   H2        1.0  0.25500  0.16230  0.59160  1.0000 0.1004745378
H   H3        1.0  0.24500  0.83770  0.09160  1.0000 0.1004745378
H   H4        1.0  0.74500  0.66230  0.90840  1.0000 0.1004745378
H   H5        1.0  0.24500  0.66230  0.59160  1.0000 0.1004745378
H   H6        1.0  0.74500  0.83770  0.40840  1.0000 0.1004745378
H   H7        1.0  0.75500  0.16230  0.90840  1.0000 0.1004745378
H   H8        1.0  0.25500  0.33770  0.09160  1.0000 0.1004745378
H   H9        1.0  0.48870  0.94540  0.29340  1.0000 0.1004745378
H   H10       1.0  0.98870  0.55460  0.70660  1.0000 0.1004745378
H   H11       1.0  0.51130  0.44540  0.20660  1.0000 0.1004745378
H   H12       1.0  0.01130  0.05460  0.79340  1.0000 0.1004745378
H   H13       1.0  0.51130  0.05460  0.70660  1.0000 0.1004745378
H   H14       1.0  0.01130  0.44540  0.29340  1.0000 0.1004745378
H   H15       1.0  0.48870  0.55460  0.79340  1.0000 0.1004745378
H   H16       1.0  0.98870  0.94540  0.20660  1.0000 0.1004745378
H   H17       1.0  0.96150  0.05150  0.44490  1.0000 0.071960091
H   H18       1.0  0.46150  0.44850  0.55510  1.0000 0.071960091
H   H19       1.0  0.03850  0.55150  0.05510  1.0000 0.071960091
H   H20       1.0  0.53850  0.94850  0.94490  1.0000 0.071960091
H   H21       1.0  0.03850  0.94850  0.55510  1.0000 0.071960091
H   H22       1.0  0.53850  0.55150  0.44490  1.0000 0.071960091
H   H23       1.0  0.96150  0.44850  0.94490  1.0000 0.071960091
H   H24       1.0  0.46150  0.05150  0.05510  1.0000 0.071960091
H   H25       1.0  0.20500  0.81890  0.39840  1.0000 0.1004745378
H   H26       1.0  0.70500  0.68110  0.60160  1.0000 0.1004745378
H   H27       1.0  0.79500  0.31890  0.10160  1.0000 0.1004745378
H   H28       1.0  0.29500  0.18110  0.89840  1.0000 0.1004745378
H   H29       1.0  0.79500  0.18110  0.60160  1.0000 0.1004745378
H   H30       1.0  0.29500  0.31890  0.39840  1.0000 0.1004745378
H   H31       1.0  0.20500  0.68110  0.89840  1.0000 0.1004745378
H   H32       1.0  0.70500  0.81890  0.10160  1.0000 0.1004745378
H   H33       1.0  0.14100  0.12140  0.30400  1.0000 0.1004745378
H   H34       1.0  0.64100  0.37860  0.69600  1.0000 0.1004745378
H   H35       1.0  0.85900  0.62140  0.19600  1.0000 0.1004745378
H   H36       1.0  0.35900  0.87860  0.80400  1.0000 0.1004745378
H   H37       1.0  0.85900  0.87860  0.69600  1.0000 0.1004745378
H   H38       1.0  0.35900  0.62140  0.30400  1.0000 0.1004745378
H   H39       1.0  0.14100  0.37860  0.80400  1.0000 0.1004745378
H   H40       1.0  0.64100  0.12140  0.19600  1.0000 0.1004745378
H   H41       1.0  0.14800  0.19760  0.38960  1.0000 0.0906271118
H   H42       1.0  0.64800  0.30240  0.61040  1.0000 0.0906271118
H   H43       1.0  0.85200  0.69760  0.11040  1.0000 0.0906271118
H   H44       1.0  0.35200  0.80240  0.88960  1.0000 0.0906271118
H   H45       1.0  0.85200  0.80240  0.61040  1.0000 0.0906271118
H   H46       1.0  0.35200  0.69760  0.38960  1.0000 0.0906271118
H   H47       1.0  0.14800  0.30240  0.88960  1.0000 0.0906271118
H   H48       1.0  0.64800  0.19760  0.11040  1.0000 0.0906271118
H   H49       1.0  0.91860  0.94220  0.44010  1.0000 0.071960091
H   H50       1.0  0.41860  0.55780  0.55990  1.0000 0.071960091
H   H51       1.0  0.08140  0.44220  0.05990  1.0000 0.071960091
H   H52       1.0  0.58140  0.05780  0.94010  1.0000 0.071960091
H   H53       1.0  0.08140  0.05780  0.55990  1.0000 0.071960091
H   H54       1.0  0.58140  0.44220  0.44010  1.0000 0.071960091
H   H55       1.0  0.91860  0.55780  0.94010  1.0000 0.071960091
H   H56       1.0  0.41860  0.94220  0.05990  1.0000 0.071960091
H   H57       1.0  0.19800  0.89700  0.31750  1.0000 0.1060674752
H   H58       1.0  0.69800  0.60300  0.68250  1.0000 0.1060674752
H   H59       1.0  0.80200  0.39700  0.18250  1.0000 0.1060674752
H   H60       1.0  0.30200  0.10300  0.81750  1.0000 0.1060674752
H   H61       1.0  0.80200  0.10300  0.68250  1.0000 0.1060674752
H   H62       1.0  0.30200  0.39700  0.31750  1.0000 0.1060674752
H   H63       1.0  0.19800  0.60300  0.81750  1.0000 0.1060674752
H   H64       1.0  0.69800  0.89700  0.18250  1.0000 0.1060674752
H   H65       1.0  0.71310  0.22550  0.53880  1.0000 0.0459828901
H   H66       1.0  0.21310  0.27450  0.46120  1.0000 0.0459828901
H   H67       1.0  0.28690  0.72550  0.96120  1.0000 0.0459828901
H   H68       1.0  0.78690  0.77450  0.03880  1.0000 0.0459828901
H   H69       1.0  0.28690  0.77450  0.46120  1.0000 0.0459828901
H   H70       1.0  0.78690  0.72550  0.53880  1.0000 0.0459828901
H   H71       1.0  0.71310  0.27450  0.03880  1.0000 0.0459828901
H   H72       1.0  0.21310  0.22550  0.96120  1.0000 0.0459828901
H   H73       1.0  0.98630  0.27060  0.41100  1.0000 0.0906271118
H   H74       1.0  0.48630  0.22940  0.58900  1.0000 0.0906271118
H   H75       1.0  0.01370  0.77060  0.08900  1.0000 0.0906271118
H   H76       1.0  0.51370  0.72940  0.91100  1.0000 0.0906271118
H   H77       1.0  0.01370  0.72940  0.58900  1.0000 0.0906271118
H   H78       1.0  0.51370  0.77060  0.41100  1.0000 0.0906271118
H   H79       1.0  0.98630  0.22940  0.91100  1.0000 0.0906271118
H   H80       1.0  0.48630  0.27060  0.08900  1.0000 0.0906271118
H   H81       1.0  0.71570  0.94890  0.36370  1.0000 0.1004745378
H   H82       1.0  0.21570  0.55110  0.63630  1.0000 0.1004745378
H   H83       1.0  0.28430  0.44890  0.13630  1.0000 0.1004745378
H   H84       1.0  0.78430  0.05110  0.86370  1.0000 0.1004745378
H   H85       1.0  0.28430  0.05110  0.63630  1.0000 0.1004745378
H   H86       1.0  0.78430  0.44890  0.36370  1.0000 0.1004745378
H   H87       1.0  0.71570  0.55110  0.86370  1.0000 0.1004745378
H   H88       1.0  0.21570  0.94890  0.13630  1.0000 0.1004745378
H   H89       1.0  0.80790  0.03770  0.22110  1.0000 0.078287911
H   H90       1.0  0.30790  0.46230  0.77890  1.0000 0.078287911
H   H91       1.0  0.19210  0.53770  0.27890  1.0000 0.078287911
H   H92       1.0  0.69210  0.96230  0.72110  1.0000 0.078287911
H   H93       1.0  0.19210  0.96230  0.77890  1.0000 0.078287911
H   H94       1.0  0.69210  0.53770  0.22110  1.0000 0.078287911
H   H95       1.0  0.80790  0.46230  0.72110  1.0000 0.078287911
H   H96       1.0  0.30790  0.03770  0.27890  1.0000 0.078287911
C   C1        1.0  0.78052  0.30483  0.43652  1.0000 -0.0612194019
C   C2        1.0  0.28052  0.19517  0.56348  1.0000 -0.0612194019
C   C3        1.0  0.21948  0.80483  0.06348  1.0000 -0.0612194019
C   C4        1.0  0.71948  0.69517  0.93652  1.0000 -0.0612194019
C   C5        1.0  0.21948  0.69517  0.56348  1.0000 -0.0612194019
C   C6        1.0  0.71948  0.80483  0.43652  1.0000 -0.0612194019
C   C7        1.0  0.78052  0.19517  0.93652  1.0000 -0.0612194019
C   C8        1.0  0.28052  0.30483  0.06348  1.0000 -0.0612194019
C   C9        1.0  0.58847  0.96598  0.28957  1.0000 -0.0705761174
C   C10       1.0  0.08847  0.53402  0.71043  1.0000 -0.0705761174
C   C11       1.0  0.41153  0.46598  0.21043  1.0000 -0.0705761174
C   C12       1.0  0.91153  0.03402  0.78957  1.0000 -0.0705761174
C   C13       1.0  0.41153  0.03402  0.71043  1.0000 -0.0705761174
C   C14       1.0  0.91153  0.46598  0.28957  1.0000 -0.0705761174
C   C15       1.0  0.58847  0.53402  0.78957  1.0000 -0.0705761174
C   C16       1.0  0.08847  0.96598  0.21043  1.0000 -0.0705761174
C   C17       1.0  0.01488  0.08040  0.41802  1.0000 0.1360929649
C   C18       1.0  0.51488  0.41960  0.58198  1.0000 0.1360929649
C   C19       1.0  0.98512  0.58040  0.08198  1.0000 0.1360929649
C   C20       1.0  0.48512  0.91960  0.91802  1.0000 0.1360929649
C   C21       1.0  0.98512  0.91960  0.58198  1.0000 0.1360929649
C   C22       1.0  0.48512  0.58040  0.41802  1.0000 0.1360929649
C   C23       1.0  0.01488  0.41960  0.91802  1.0000 0.1360929649
C   C24       1.0  0.51488  0.08040  0.08198  1.0000 0.1360929649
C   C25       1.0  0.14340  0.85557  0.39556  1.0000 -0.0705761174
C   C26       1.0  0.64340  0.64443  0.60444  1.0000 -0.0705761174
C   C27       1.0  0.85660  0.35557  0.10444  1.0000 -0.0705761174
C   C28       1.0  0.35660  0.14443  0.89556  1.0000 -0.0705761174
C   C29       1.0  0.85660  0.14443  0.60444  1.0000 -0.0705761174
C   C30       1.0  0.35660  0.35557  0.39556  1.0000 -0.0705761174
C   C31       1.0  0.14340  0.64443  0.89556  1.0000 -0.0705761174
C   C32       1.0  0.64340  0.85557  0.10444  1.0000 -0.0705761174
C   C33       1.0  0.10547  0.11767  0.34607  1.0000 -0.0612194019
C   C34       1.0  0.60547  0.38233  0.65393  1.0000 -0.0612194019
C   C35       1.0  0.89453  0.61767  0.15393  1.0000 -0.0612194019
C   C36       1.0  0.39453  0.88233  0.84607  1.0000 -0.0612194019
C   C37       1.0  0.89453  0.88233  0.65393  1.0000 -0.0612194019
C   C38       1.0  0.39453  0.61767  0.34607  1.0000 -0.0612194019
C   C39       1.0  0.10547  0.38233  0.84607  1.0000 -0.0612194019
C   C40       1.0  0.60547  0.11767  0.15393  1.0000 -0.0612194019
C   C41       1.0  0.10928  0.15534  0.38790  1.0000 -0.0612194019
C   C42       1.0  0.60928  0.34466  0.61210  1.0000 -0.0612194019
C   C43       1.0  0.89072  0.65534  0.11210  1.0000 -0.0612194019
C   C44       1.0  0.39072  0.84466  0.88790  1.0000 -0.0612194019
C   C45       1.0  0.89072  0.84466  0.61210  1.0000 -0.0612194019
C   C46       1.0  0.39072  0.65534  0.38790  1.0000 -0.0612194019
C   C47       1.0  0.10928  0.34466  0.88790  1.0000 -0.0612194019
C   C48       1.0  0.60928  0.15534  0.11210  1.0000 -0.0612194019
C   C49       1.0  0.99539  0.91859  0.41784  1.0000 0.1223379451
C   C50       1.0  0.49539  0.58141  0.58216  1.0000 0.1223379451
C   C51       1.0  0.00461  0.41859  0.08216  1.0000 0.1223379451
C   C52       1.0  0.50461  0.08141  0.91784  1.0000 0.1223379451
C   C53       1.0  0.00461  0.08141  0.58216  1.0000 0.1223379451
C   C54       1.0  0.50461  0.41859  0.41784  1.0000 0.1223379451
C   C55       1.0  0.99539  0.58141  0.91784  1.0000 0.1223379451
C   C56       1.0  0.49539  0.91859  0.08216  1.0000 0.1223379451
C   C57       1.0  0.14195  0.89519  0.35532  1.0000 -0.0612194019
C   C58       1.0  0.64195  0.60481  0.64468  1.0000 -0.0612194019
C   C59       1.0  0.85805  0.39519  0.14468  1.0000 -0.0612194019
C   C60       1.0  0.35805  0.10481  0.85532  1.0000 -0.0612194019
C   C61       1.0  0.85805  0.10481  0.64468  1.0000 -0.0612194019
C   C62       1.0  0.35805  0.39519  0.35532  1.0000 -0.0612194019
C   C63       1.0  0.14195  0.60481  0.85532  1.0000 -0.0612194019
C   C64       1.0  0.64195  0.89519  0.14468  1.0000 -0.0612194019
C   C65       1.0  0.75582  0.24737  0.50268  1.0000 0.150161017
C   C66       1.0  0.25582  0.25263  0.49732  1.0000 0.150161017
C   C67       1.0  0.24418  0.74737  0.99732  1.0000 0.150161017
C   C68       1.0  0.74418  0.75263  0.00268  1.0000 0.150161017
C   C69       1.0  0.24418  0.75263  0.49732  1.0000 0.150161017
C   C70       1.0  0.74418  0.74737  0.50268  1.0000 0.150161017
C   C71       1.0  0.75582  0.25263  0.00268  1.0000 0.150161017
C   C72       1.0  0.25582  0.24737  0.99732  1.0000 0.150161017
C   C73       1.0  0.89503  0.27102  0.43819  1.0000 -0.0612194019
C   C74       1.0  0.39503  0.22898  0.56181  1.0000 -0.0612194019
C   C75       1.0  0.10497  0.77102  0.06181  1.0000 -0.0612194019
C   C76       1.0  0.60497  0.72898  0.93819  1.0000 -0.0612194019
C   C77       1.0  0.10497  0.72898  0.56181  1.0000 -0.0612194019
C   C78       1.0  0.60497  0.77102  0.43819  1.0000 -0.0612194019
C   C79       1.0  0.89503  0.22898  0.93819  1.0000 -0.0612194019
C   C80       1.0  0.39503  0.27102  0.06181  1.0000 -0.0612194019
C   C81       1.0  0.70156  0.96608  0.32354  1.0000 -0.0705761174
C   C82       1.0  0.20156  0.53392  0.67646  1.0000 -0.0705761174
C   C83       1.0  0.29844  0.46608  0.17646  1.0000 -0.0705761174
C   C84       1.0  0.79844  0.03392  0.82354  1.0000 -0.0705761174
C   C85       1.0  0.29844  0.03392  0.67646  1.0000 -0.0705761174
C   C86       1.0  0.79844  0.46608  0.32354  1.0000 -0.0705761174
C   C87       1.0  0.70156  0.53392  0.82354  1.0000 -0.0705761174
C   C88       1.0  0.20156  0.96608  0.17646  1.0000 -0.0705761174
C   C89       1.0  0.75249  0.01238  0.25075  1.0000 0.134061348
C   C90       1.0  0.25249  0.48762  0.74925  1.0000 0.134061348
C   C91       1.0  0.24751  0.51238  0.24925  1.0000 0.134061348
C   C92       1.0  0.74751  0.98762  0.75075  1.0000 0.134061348
C   C93       1.0  0.24751  0.98762  0.74925  1.0000 0.134061348
C   C94       1.0  0.74751  0.51238  0.25075  1.0000 0.134061348
C   C95       1.0  0.75249  0.48762  0.75075  1.0000 0.134061348
C   C96       1.0  0.25249  0.01238  0.24925  1.0000 0.134061348
N   N1        1.0  0.04542  0.06983  0.36556  1.0000 -0.3004951511
N   N2        1.0  0.54542  0.43017  0.63444  1.0000 -0.3004951511
N   N3        1.0  0.95458  0.56983  0.13444  1.0000 -0.3004951511
N   N4        1.0  0.45458  0.93017  0.86556  1.0000 -0.3004951511
N   N5        1.0  0.95458  0.93017  0.63444  1.0000 -0.3004951511
N   N6        1.0  0.45458  0.56983  0.36556  1.0000 -0.3004951511
N   N7        1.0  0.04542  0.43017  0.86556  1.0000 -0.3004951511
N   N8        1.0  0.54542  0.06983  0.13444  1.0000 -0.3004951511
N   N9        1.0  0.87876  0.23450  0.48076  1.0000 -0.2895919529
N   N10       1.0  0.37876  0.26550  0.51924  1.0000 -0.2895919529
N   N11       1.0  0.12124  0.73450  0.01924  1.0000 -0.2895919529
N   N12       1.0  0.62124  0.76550  0.98076  1.0000 -0.2895919529
N   N13       1.0  0.12124  0.76550  0.51924  1.0000 -0.2895919529
N   N14       1.0  0.62124  0.73450  0.48076  1.0000 -0.2895919529
N   N15       1.0  0.87876  0.26550  0.98076  1.0000 -0.2895919529
N   N16       1.0  0.37876  0.23450  0.01924  1.0000 -0.2895919529
N   N17       1.0  0.69233  0.28968  0.47778  1.0000 -0.2895919529
N   N18       1.0  0.19233  0.21032  0.52222  1.0000 -0.2895919529
N   N19       1.0  0.30767  0.78968  0.02222  1.0000 -0.2895919529
N   N20       1.0  0.80767  0.71032  0.97778  1.0000 -0.2895919529
N   N21       1.0  0.30767  0.71032  0.52222  1.0000 -0.2895919529
N   N22       1.0  0.80767  0.78968  0.47778  1.0000 -0.2895919529
N   N23       1.0  0.69233  0.21032  0.97778  1.0000 -0.2895919529
N   N24       1.0  0.19233  0.28968  0.02222  1.0000 -0.2895919529
N   N25       1.0  0.04719  0.93521  0.36963  1.0000 -0.2895919529
N   N26       1.0  0.54719  0.56479  0.63037  1.0000 -0.2895919529
N   N27       1.0  0.95281  0.43521  0.13037  1.0000 -0.2895919529
N   N28       1.0  0.45281  0.06479  0.86963  1.0000 -0.2895919529
N   N29       1.0  0.95281  0.06479  0.63037  1.0000 -0.2895919529
N   N30       1.0  0.45281  0.43521  0.36963  1.0000 -0.2895919529
N   N31       1.0  0.04719  0.56479  0.86963  1.0000 -0.2895919529
N   N32       1.0  0.54719  0.93521  0.13037  1.0000 -0.2895919529
N   N33       1.0  0.05132  0.13156  0.43345  1.0000 -0.2895919529
N   N34       1.0  0.55132  0.36844  0.56655  1.0000 -0.2895919529
N   N35       1.0  0.94868  0.63156  0.06655  1.0000 -0.2895919529
N   N36       1.0  0.44868  0.86844  0.93345  1.0000 -0.2895919529
N   N37       1.0  0.94868  0.86844  0.56655  1.0000 -0.2895919529
N   N38       1.0  0.44868  0.63156  0.43345  1.0000 -0.2895919529
N   N39       1.0  0.05132  0.36844  0.93345  1.0000 -0.2895919529
N   N40       1.0  0.55132  0.13156  0.06655  1.0000 -0.2895919529
N   N41       1.0  0.04937  0.87053  0.43521  1.0000 -0.2895919529
N   N42       1.0  0.54937  0.62947  0.56479  1.0000 -0.2895919529
N   N43       1.0  0.95063  0.37053  0.06479  1.0000 -0.2895919529
N   N44       1.0  0.45063  0.12947  0.93521  1.0000 -0.2895919529
N   N45       1.0  0.95063  0.12947  0.56479  1.0000 -0.2895919529
N   N46       1.0  0.45063  0.37053  0.43521  1.0000 -0.2895919529
N   N47       1.0  0.04937  0.62947  0.93521  1.0000 -0.2895919529
N   N48       1.0  0.54937  0.87053  0.06479  1.0000 -0.2895919529
N   N49       1.0  0.12146  0.99576  0.25689  1.0000 -0.2895919529
N   N50       1.0  0.62146  0.50424  0.74311  1.0000 -0.2895919529
N   N51       1.0  0.87854  0.49576  0.24311  1.0000 -0.2895919529
N   N52       1.0  0.37854  0.00424  0.75689  1.0000 -0.2895919529
N   N53       1.0  0.87854  0.00424  0.74311  1.0000 -0.2895919529
N   N54       1.0  0.37854  0.49576  0.25689  1.0000 -0.2895919529
N   N55       1.0  0.12146  0.50424  0.75689  1.0000 -0.2895919529
N   N56       1.0  0.62146  0.99576  0.24311  1.0000 -0.2895919529
N   N57       1.0  0.80602  0.99559  0.29857  1.0000 -0.2895919529
N   N58       1.0  0.30602  0.50441  0.70143  1.0000 -0.2895919529
N   N59       1.0  0.19398  0.49559  0.20143  1.0000 -0.2895919529
N   N60       1.0  0.69398  0.00441  0.79857  1.0000 -0.2895919529
N   N61       1.0  0.19398  0.00441  0.70143  1.0000 -0.2895919529
N   N62       1.0  0.69398  0.49559  0.29857  1.0000 -0.2895919529
N   N63       1.0  0.80602  0.50441  0.79857  1.0000 -0.2895919529
N   N64       1.0  0.30602  0.99559  0.20143  1.0000 -0.2895919529
