# DDEC6 charges by PACMAN v1.1 (https://github.com/mtap-research/PACMAN-charge/)
data_jp2064408_si_002_ASR_pacman
_symmetry_space_group_name_H-M   'P 1'
_cell_length_a   26.44610000
_cell_length_b   26.44610000
_cell_length_c   26.44610000
_cell_angle_alpha   90.00000000
_cell_angle_beta   90.00000000
_cell_angle_gamma   90.00000000
_symmetry_Int_Tables_number   1
_chemical_formula_structural   Zn52H224.0064C464.0088N31.9992O192
_chemical_formula_sum   'Zn52 H224.0064 C464.0088 N31.9992 O192'
_cell_volume   18496.30198260
_cell_formula_units_Z   1
loop_
 _symmetry_equiv_pos_site_id
 _symmetry_equiv_pos_as_xyz
  1  'x, y, z'
loop_
 _atom_site_type_symbol
 _atom_site_label
 _atom_site_symmetry_multiplicity
 _atom_site_fract_x
 _atom_site_fract_y
 _atom_site_fract_z
 _atom_site_occupancy
 _atom_site_charge
Zn  Zn1  1  0.71020000  0.00000000  0.21020000  1.0 0.8978853404
Zn  Zn2  1  0.28980000  0.00000000  0.21020000  1.0 0.8978853404
Zn  Zn3  1  0.28980000  0.00000000  0.78980000  1.0 0.8978853404
Zn  Zn4  1  0.71020000  0.00000000  0.78980000  1.0 0.8978853404
Zn  Zn5  1  0.21020000  0.71020000  0.00000000  1.0 0.8978853404
Zn  Zn6  1  0.21020000  0.28980000  0.00000000  1.0 0.8978853404
Zn  Zn7  1  0.78980000  0.28980000  0.00000000  1.0 0.8978853404
Zn  Zn8  1  0.78980000  0.71020000  0.00000000  1.0 0.8978853404
Zn  Zn9  1  0.00000000  0.21020000  0.71020000  1.0 0.8978853404
Zn  Zn10  1  0.00000000  0.21020000  0.28980000  1.0 0.8978853404
Zn  Zn11  1  0.00000000  0.78980000  0.28980000  1.0 0.8978853404
Zn  Zn12  1  0.00000000  0.78980000  0.71020000  1.0 0.8978853404
Zn  Zn13  1  0.00000000  0.71020000  0.78980000  1.0 0.8978853404
Zn  Zn14  1  0.00000000  0.28980000  0.78980000  1.0 0.8978853404
Zn  Zn15  1  0.00000000  0.28980000  0.21020000  1.0 0.8978853404
Zn  Zn16  1  0.00000000  0.71020000  0.21020000  1.0 0.8978853404
Zn  Zn17  1  0.71020000  0.21020000  0.00000000  1.0 0.8978853404
Zn  Zn18  1  0.28980000  0.21020000  0.00000000  1.0 0.8978853404
Zn  Zn19  1  0.28980000  0.78980000  0.00000000  1.0 0.8978853404
Zn  Zn20  1  0.71020000  0.78980000  0.00000000  1.0 0.8978853404
Zn  Zn21  1  0.21020000  0.00000000  0.28980000  1.0 0.8978853404
Zn  Zn22  1  0.21020000  0.00000000  0.71020000  1.0 0.8978853404
Zn  Zn23  1  0.78980000  0.00000000  0.71020000  1.0 0.8978853404
Zn  Zn24  1  0.78980000  0.00000000  0.28980000  1.0 0.8978853404
Zn  Zn25  1  0.71020000  0.50000000  0.71020000  1.0 0.8978853404
Zn  Zn26  1  0.28980000  0.50000000  0.71020000  1.0 0.8978853404
Zn  Zn27  1  0.28980000  0.50000000  0.28980000  1.0 0.8978853404
Zn  Zn28  1  0.71020000  0.50000000  0.28980000  1.0 0.8978853404
Zn  Zn29  1  0.21020000  0.21020000  0.50000000  1.0 0.8978853404
Zn  Zn30  1  0.21020000  0.78980000  0.50000000  1.0 0.8978853404
Zn  Zn31  1  0.78980000  0.78980000  0.50000000  1.0 0.8978853404
Zn  Zn32  1  0.78980000  0.21020000  0.50000000  1.0 0.8978853404
Zn  Zn33  1  0.71020000  0.71020000  0.50000000  1.0 0.8978853404
Zn  Zn34  1  0.28980000  0.71020000  0.50000000  1.0 0.8978853404
Zn  Zn35  1  0.28980000  0.28980000  0.50000000  1.0 0.8978853404
Zn  Zn36  1  0.71020000  0.28980000  0.50000000  1.0 0.8978853404
Zn  Zn37  1  0.21020000  0.50000000  0.78980000  1.0 0.8978853404
Zn  Zn38  1  0.21020000  0.50000000  0.21020000  1.0 0.8978853404
Zn  Zn39  1  0.78980000  0.50000000  0.21020000  1.0 0.8978853404
Zn  Zn40  1  0.78980000  0.50000000  0.78980000  1.0 0.8978853404
Zn  Zn41  1  0.50000000  0.21020000  0.21020000  1.0 0.8978853404
Zn  Zn42  1  0.50000000  0.21020000  0.78980000  1.0 0.8978853404
Zn  Zn43  1  0.50000000  0.78980000  0.78980000  1.0 0.8978853404
Zn  Zn44  1  0.50000000  0.78980000  0.21020000  1.0 0.8978853404
Zn  Zn45  1  0.50000000  0.71020000  0.28980000  1.0 0.8978853404
Zn  Zn46  1  0.50000000  0.28980000  0.28980000  1.0 0.8978853404
Zn  Zn47  1  0.50000000  0.28980000  0.71020000  1.0 0.8978853404
Zn  Zn48  1  0.50000000  0.71020000  0.71020000  1.0 0.8978853404
Zn  Zn49  1  0.00000000  0.00000000  0.00000000  1.0 0.4142245158
Zn  Zn50  1  0.00000000  0.50000000  0.50000000  1.0 0.4142245158
Zn  Zn51  1  0.50000000  0.50000000  0.00000000  1.0 0.4142245158
Zn  Zn52  1  0.50000000  0.00000000  0.50000000  1.0 0.4142245158
H  H1  1  0.62010000  0.87990000  0.27110000  1.0 0.1518425151
H  H2  1  0.37990000  0.12010000  0.27110000  1.0 0.1518425151
H  H3  1  0.37990000  0.87990000  0.72890000  1.0 0.1518425151
H  H4  1  0.62010000  0.12010000  0.72890000  1.0 0.1518425151
H  H5  1  0.27110000  0.62010000  0.87990000  1.0 0.1518425151
H  H6  1  0.27110000  0.37990000  0.12010000  1.0 0.1518425151
H  H7  1  0.72890000  0.37990000  0.87990000  1.0 0.1518425151
H  H8  1  0.72890000  0.62010000  0.12010000  1.0 0.1518425151
H  H9  1  0.87990000  0.27110000  0.62010000  1.0 0.1518425151
H  H10  1  0.12010000  0.27110000  0.37990000  1.0 0.1518425151
H  H11  1  0.87990000  0.72890000  0.37990000  1.0 0.1518425151
H  H12  1  0.12010000  0.72890000  0.62010000  1.0 0.1518425151
H  H13  1  0.87990000  0.62010000  0.72890000  1.0 0.1518425151
H  H14  1  0.12010000  0.37990000  0.72890000  1.0 0.1518425151
H  H15  1  0.87990000  0.37990000  0.27110000  1.0 0.1518425151
H  H16  1  0.12010000  0.62010000  0.27110000  1.0 0.1518425151
H  H17  1  0.62010000  0.27110000  0.12010000  1.0 0.1518425151
H  H18  1  0.37990000  0.27110000  0.87990000  1.0 0.1518425151
H  H19  1  0.37990000  0.72890000  0.12010000  1.0 0.1518425151
H  H20  1  0.62010000  0.72890000  0.87990000  1.0 0.1518425151
H  H21  1  0.27110000  0.87990000  0.37990000  1.0 0.1518425151
H  H22  1  0.27110000  0.12010000  0.62010000  1.0 0.1518425151
H  H23  1  0.72890000  0.87990000  0.62010000  1.0 0.1518425151
H  H24  1  0.72890000  0.12010000  0.37990000  1.0 0.1518425151
H  H25  1  0.62010000  0.37990000  0.77110000  1.0 0.1518425151
H  H26  1  0.37990000  0.62010000  0.77110000  1.0 0.1518425151
H  H27  1  0.37990000  0.37990000  0.22890000  1.0 0.1518425151
H  H28  1  0.62010000  0.62010000  0.22890000  1.0 0.1518425151
H  H29  1  0.27110000  0.12010000  0.37990000  1.0 0.1518425151
H  H30  1  0.27110000  0.87990000  0.62010000  1.0 0.1518425151
H  H31  1  0.72890000  0.87990000  0.37990000  1.0 0.1518425151
H  H32  1  0.72890000  0.12010000  0.62010000  1.0 0.1518425151
H  H33  1  0.87990000  0.77110000  0.12010000  1.0 0.1518425151
H  H34  1  0.12010000  0.77110000  0.87990000  1.0 0.1518425151
H  H35  1  0.87990000  0.22890000  0.87990000  1.0 0.1518425151
H  H36  1  0.12010000  0.22890000  0.12010000  1.0 0.1518425151
H  H37  1  0.87990000  0.12010000  0.22890000  1.0 0.1518425151
H  H38  1  0.12010000  0.87990000  0.22890000  1.0 0.1518425151
H  H39  1  0.87990000  0.87990000  0.77110000  1.0 0.1518425151
H  H40  1  0.12010000  0.12010000  0.77110000  1.0 0.1518425151
H  H41  1  0.62010000  0.77110000  0.62010000  1.0 0.1518425151
H  H42  1  0.37990000  0.77110000  0.37990000  1.0 0.1518425151
H  H43  1  0.37990000  0.22890000  0.62010000  1.0 0.1518425151
H  H44  1  0.62010000  0.22890000  0.37990000  1.0 0.1518425151
H  H45  1  0.27110000  0.37990000  0.87990000  1.0 0.1518425151
H  H46  1  0.27110000  0.62010000  0.12010000  1.0 0.1518425151
H  H47  1  0.72890000  0.37990000  0.12010000  1.0 0.1518425151
H  H48  1  0.72890000  0.62010000  0.87990000  1.0 0.1518425151
H  H49  1  0.12010000  0.87990000  0.77110000  1.0 0.1518425151
H  H50  1  0.87990000  0.12010000  0.77110000  1.0 0.1518425151
H  H51  1  0.87990000  0.87990000  0.22890000  1.0 0.1518425151
H  H52  1  0.12010000  0.12010000  0.22890000  1.0 0.1518425151
H  H53  1  0.77110000  0.62010000  0.37990000  1.0 0.1518425151
H  H54  1  0.77110000  0.37990000  0.62010000  1.0 0.1518425151
H  H55  1  0.22890000  0.37990000  0.37990000  1.0 0.1518425151
H  H56  1  0.22890000  0.62010000  0.62010000  1.0 0.1518425151
H  H57  1  0.37990000  0.27110000  0.12010000  1.0 0.1518425151
H  H58  1  0.62010000  0.27110000  0.87990000  1.0 0.1518425151
H  H59  1  0.37990000  0.72890000  0.87990000  1.0 0.1518425151
H  H60  1  0.62010000  0.72890000  0.12010000  1.0 0.1518425151
H  H61  1  0.37990000  0.62010000  0.22890000  1.0 0.1518425151
H  H62  1  0.62010000  0.37990000  0.22890000  1.0 0.1518425151
H  H63  1  0.37990000  0.37990000  0.77110000  1.0 0.1518425151
H  H64  1  0.62010000  0.62010000  0.77110000  1.0 0.1518425151
H  H65  1  0.12010000  0.27110000  0.62010000  1.0 0.1518425151
H  H66  1  0.87990000  0.27110000  0.37990000  1.0 0.1518425151
H  H67  1  0.87990000  0.72890000  0.62010000  1.0 0.1518425151
H  H68  1  0.12010000  0.72890000  0.37990000  1.0 0.1518425151
H  H69  1  0.77110000  0.87990000  0.87990000  1.0 0.1518425151
H  H70  1  0.77110000  0.12010000  0.12010000  1.0 0.1518425151
H  H71  1  0.22890000  0.87990000  0.12010000  1.0 0.1518425151
H  H72  1  0.22890000  0.12010000  0.87990000  1.0 0.1518425151
H  H73  1  0.12010000  0.37990000  0.27110000  1.0 0.1518425151
H  H74  1  0.87990000  0.62010000  0.27110000  1.0 0.1518425151
H  H75  1  0.87990000  0.37990000  0.72890000  1.0 0.1518425151
H  H76  1  0.12010000  0.62010000  0.72890000  1.0 0.1518425151
H  H77  1  0.77110000  0.12010000  0.87990000  1.0 0.1518425151
H  H78  1  0.77110000  0.87990000  0.12010000  1.0 0.1518425151
H  H79  1  0.22890000  0.87990000  0.87990000  1.0 0.1518425151
H  H80  1  0.22890000  0.12010000  0.12010000  1.0 0.1518425151
H  H81  1  0.37990000  0.77110000  0.62010000  1.0 0.1518425151
H  H82  1  0.62010000  0.77110000  0.37990000  1.0 0.1518425151
H  H83  1  0.37990000  0.22890000  0.37990000  1.0 0.1518425151
H  H84  1  0.62010000  0.22890000  0.62010000  1.0 0.1518425151
H  H85  1  0.37990000  0.12010000  0.72890000  1.0 0.1518425151
H  H86  1  0.62010000  0.87990000  0.72890000  1.0 0.1518425151
H  H87  1  0.37990000  0.87990000  0.27110000  1.0 0.1518425151
H  H88  1  0.62010000  0.12010000  0.27110000  1.0 0.1518425151
H  H89  1  0.12010000  0.77110000  0.12010000  1.0 0.1518425151
H  H90  1  0.87990000  0.77110000  0.87990000  1.0 0.1518425151
H  H91  1  0.87990000  0.22890000  0.12010000  1.0 0.1518425151
H  H92  1  0.12010000  0.22890000  0.87990000  1.0 0.1518425151
H  H93  1  0.77110000  0.37990000  0.37990000  1.0 0.1518425151
H  H94  1  0.77110000  0.62010000  0.62010000  1.0 0.1518425151
H  H95  1  0.22890000  0.37990000  0.62010000  1.0 0.1518425151
H  H96  1  0.22890000  0.62010000  0.37990000  1.0 0.1518425151
H  H241  1  0.64550000  0.01720000  0.97010000  0.0833 -0.0094369106
H  H242  1  0.35450000  0.01720000  0.02990000  0.0833 -0.0094369106
H  H243  1  0.64550000  0.98280000  0.02990000  0.0833 -0.0094369106
H  H244  1  0.35450000  0.98280000  0.97010000  0.0833 -0.0094369106
H  H245  1  0.64550000  0.97010000  0.98280000  0.0833 -0.0094369106
H  H246  1  0.35450000  0.02990000  0.98280000  0.0833 -0.0094369106
H  H247  1  0.64550000  0.02990000  0.01720000  0.0833 -0.0094369106
H  H248  1  0.35450000  0.97010000  0.01720000  0.0833 -0.0094369106
H  H249  1  0.97010000  0.64550000  0.01720000  0.0833 -0.0094369106
H  H250  1  0.02990000  0.35450000  0.01720000  0.0833 -0.0094369106
H  H251  1  0.02990000  0.64550000  0.98280000  0.0833 -0.0094369106
H  H252  1  0.97010000  0.35450000  0.98280000  0.0833 -0.0094369106
H  H253  1  0.01720000  0.64550000  0.02990000  0.0833 -0.0094369106
H  H254  1  0.01720000  0.35450000  0.97010000  0.0833 -0.0094369106
H  H255  1  0.98280000  0.64550000  0.97010000  0.0833 -0.0094369106
H  H256  1  0.98280000  0.35450000  0.02990000  0.0833 -0.0094369106
H  H257  1  0.01720000  0.97010000  0.64550000  0.0833 -0.0094369106
H  H258  1  0.01720000  0.02990000  0.35450000  0.0833 -0.0094369106
H  H259  1  0.98280000  0.02990000  0.64550000  0.0833 -0.0094369106
H  H260  1  0.98280000  0.97010000  0.35450000  0.0833 -0.0094369106
H  H261  1  0.97010000  0.01720000  0.35450000  0.0833 -0.0094369106
H  H262  1  0.02990000  0.01720000  0.64550000  0.0833 -0.0094369106
H  H263  1  0.02990000  0.98280000  0.35450000  0.0833 -0.0094369106
H  H264  1  0.97010000  0.98280000  0.64550000  0.0833 -0.0094369106
H  H265  1  0.35450000  0.98280000  0.02990000  0.0833 -0.0094369106
H  H266  1  0.64550000  0.98280000  0.97010000  0.0833 -0.0094369106
H  H267  1  0.35450000  0.01720000  0.97010000  0.0833 -0.0094369106
H  H268  1  0.64550000  0.01720000  0.02990000  0.0833 -0.0094369106
H  H269  1  0.35450000  0.02990000  0.01720000  0.0833 -0.0094369106
H  H270  1  0.64550000  0.97010000  0.01720000  0.0833 -0.0094369106
H  H271  1  0.35450000  0.97010000  0.98280000  0.0833 -0.0094369106
H  H272  1  0.64550000  0.02990000  0.98280000  0.0833 -0.0094369106
H  H273  1  0.02990000  0.35450000  0.98280000  0.0833 -0.0094369106
H  H274  1  0.97010000  0.64550000  0.98280000  0.0833 -0.0094369106
H  H275  1  0.97010000  0.35450000  0.01720000  0.0833 -0.0094369106
H  H276  1  0.02990000  0.64550000  0.01720000  0.0833 -0.0094369106
H  H277  1  0.98280000  0.35450000  0.97010000  0.0833 -0.0094369106
H  H278  1  0.98280000  0.64550000  0.02990000  0.0833 -0.0094369106
H  H279  1  0.01720000  0.35450000  0.02990000  0.0833 -0.0094369106
H  H280  1  0.01720000  0.64550000  0.97010000  0.0833 -0.0094369106
H  H281  1  0.98280000  0.02990000  0.35450000  0.0833 -0.0094369106
H  H282  1  0.98280000  0.97010000  0.64550000  0.0833 -0.0094369106
H  H283  1  0.01720000  0.97010000  0.35450000  0.0833 -0.0094369106
H  H284  1  0.01720000  0.02990000  0.64550000  0.0833 -0.0094369106
H  H285  1  0.02990000  0.98280000  0.64550000  0.0833 -0.0094369106
H  H286  1  0.97010000  0.98280000  0.35450000  0.0833 -0.0094369106
H  H287  1  0.97010000  0.01720000  0.64550000  0.0833 -0.0094369106
H  H288  1  0.02990000  0.01720000  0.35450000  0.0833 -0.0094369106
H  H433  1  0.64550000  0.51720000  0.47010000  0.0833 -0.0094369106
H  H434  1  0.35450000  0.51720000  0.52990000  0.0833 -0.0094369106
H  H435  1  0.64550000  0.48280000  0.52990000  0.0833 -0.0094369106
H  H436  1  0.35450000  0.48280000  0.47010000  0.0833 -0.0094369106
H  H437  1  0.64550000  0.47010000  0.48280000  0.0833 -0.0094369106
H  H438  1  0.35450000  0.52990000  0.48280000  0.0833 -0.0094369106
H  H439  1  0.64550000  0.52990000  0.51720000  0.0833 -0.0094369106
H  H440  1  0.35450000  0.47010000  0.51720000  0.0833 -0.0094369106
H  H441  1  0.01720000  0.47010000  0.14550000  0.0833 -0.0094369106
H  H442  1  0.01720000  0.52990000  0.85450000  0.0833 -0.0094369106
H  H443  1  0.98280000  0.52990000  0.14550000  0.0833 -0.0094369106
H  H444  1  0.98280000  0.47010000  0.85450000  0.0833 -0.0094369106
H  H445  1  0.97010000  0.51720000  0.85450000  0.0833 -0.0094369106
H  H446  1  0.02990000  0.51720000  0.14550000  0.0833 -0.0094369106
H  H447  1  0.02990000  0.48280000  0.85450000  0.0833 -0.0094369106
H  H448  1  0.97010000  0.48280000  0.14550000  0.0833 -0.0094369106
H  H449  1  0.97010000  0.14550000  0.51720000  0.0833 -0.0094369106
H  H450  1  0.02990000  0.85450000  0.51720000  0.0833 -0.0094369106
H  H451  1  0.02990000  0.14550000  0.48280000  0.0833 -0.0094369106
H  H452  1  0.97010000  0.85450000  0.48280000  0.0833 -0.0094369106
H  H453  1  0.01720000  0.14550000  0.52990000  0.0833 -0.0094369106
H  H454  1  0.01720000  0.85450000  0.47010000  0.0833 -0.0094369106
H  H455  1  0.98280000  0.14550000  0.47010000  0.0833 -0.0094369106
H  H456  1  0.98280000  0.85450000  0.52990000  0.0833 -0.0094369106
H  H457  1  0.35450000  0.48280000  0.52990000  0.0833 -0.0094369106
H  H458  1  0.64550000  0.48280000  0.47010000  0.0833 -0.0094369106
H  H459  1  0.35450000  0.51720000  0.47010000  0.0833 -0.0094369106
H  H460  1  0.64550000  0.51720000  0.52990000  0.0833 -0.0094369106
H  H461  1  0.35450000  0.52990000  0.51720000  0.0833 -0.0094369106
H  H462  1  0.64550000  0.47010000  0.51720000  0.0833 -0.0094369106
H  H463  1  0.35450000  0.47010000  0.48280000  0.0833 -0.0094369106
H  H464  1  0.64550000  0.52990000  0.48280000  0.0833 -0.0094369106
H  H465  1  0.98280000  0.52990000  0.85450000  0.0833 -0.0094369106
H  H466  1  0.98280000  0.47010000  0.14550000  0.0833 -0.0094369106
H  H467  1  0.01720000  0.47010000  0.85450000  0.0833 -0.0094369106
H  H468  1  0.01720000  0.52990000  0.14550000  0.0833 -0.0094369106
H  H469  1  0.02990000  0.48280000  0.14550000  0.0833 -0.0094369106
H  H470  1  0.97010000  0.48280000  0.85450000  0.0833 -0.0094369106
H  H471  1  0.97010000  0.51720000  0.14550000  0.0833 -0.0094369106
H  H472  1  0.02990000  0.51720000  0.85450000  0.0833 -0.0094369106
H  H473  1  0.02990000  0.85450000  0.48280000  0.0833 -0.0094369106
H  H474  1  0.97010000  0.14550000  0.48280000  0.0833 -0.0094369106
H  H475  1  0.97010000  0.85450000  0.51720000  0.0833 -0.0094369106
H  H476  1  0.02990000  0.14550000  0.51720000  0.0833 -0.0094369106
H  H477  1  0.98280000  0.85450000  0.47010000  0.0833 -0.0094369106
H  H478  1  0.98280000  0.14550000  0.52990000  0.0833 -0.0094369106
H  H479  1  0.01720000  0.85450000  0.52990000  0.0833 -0.0094369106
H  H480  1  0.01720000  0.14550000  0.47010000  0.0833 -0.0094369106
H  H625  1  0.51720000  0.47010000  0.64550000  0.0833 -0.0094369106
H  H626  1  0.51720000  0.52990000  0.35450000  0.0833 -0.0094369106
H  H627  1  0.48280000  0.52990000  0.64550000  0.0833 -0.0094369106
H  H628  1  0.48280000  0.47010000  0.35450000  0.0833 -0.0094369106
H  H629  1  0.47010000  0.51720000  0.35450000  0.0833 -0.0094369106
H  H630  1  0.52990000  0.51720000  0.64550000  0.0833 -0.0094369106
H  H631  1  0.52990000  0.48280000  0.35450000  0.0833 -0.0094369106
H  H632  1  0.47010000  0.48280000  0.64550000  0.0833 -0.0094369106
H  H633  1  0.47010000  0.14550000  0.01720000  0.0833 -0.0094369106
H  H634  1  0.52990000  0.85450000  0.01720000  0.0833 -0.0094369106
H  H635  1  0.52990000  0.14550000  0.98280000  0.0833 -0.0094369106
H  H636  1  0.47010000  0.85450000  0.98280000  0.0833 -0.0094369106
H  H637  1  0.51720000  0.14550000  0.02990000  0.0833 -0.0094369106
H  H638  1  0.51720000  0.85450000  0.97010000  0.0833 -0.0094369106
H  H639  1  0.48280000  0.14550000  0.97010000  0.0833 -0.0094369106
H  H640  1  0.48280000  0.85450000  0.02990000  0.0833 -0.0094369106
H  H641  1  0.14550000  0.51720000  0.97010000  0.0833 -0.0094369106
H  H642  1  0.85450000  0.51720000  0.02990000  0.0833 -0.0094369106
H  H643  1  0.14550000  0.48280000  0.02990000  0.0833 -0.0094369106
H  H644  1  0.85450000  0.48280000  0.97010000  0.0833 -0.0094369106
H  H645  1  0.14550000  0.47010000  0.98280000  0.0833 -0.0094369106
H  H646  1  0.85450000  0.52990000  0.98280000  0.0833 -0.0094369106
H  H647  1  0.14550000  0.52990000  0.01720000  0.0833 -0.0094369106
H  H648  1  0.85450000  0.47010000  0.01720000  0.0833 -0.0094369106
H  H649  1  0.48280000  0.52990000  0.35450000  0.0833 -0.0094369106
H  H650  1  0.48280000  0.47010000  0.64550000  0.0833 -0.0094369106
H  H651  1  0.51720000  0.47010000  0.35450000  0.0833 -0.0094369106
H  H652  1  0.51720000  0.52990000  0.64550000  0.0833 -0.0094369106
H  H653  1  0.52990000  0.48280000  0.64550000  0.0833 -0.0094369106
H  H654  1  0.47010000  0.48280000  0.35450000  0.0833 -0.0094369106
H  H655  1  0.47010000  0.51720000  0.64550000  0.0833 -0.0094369106
H  H656  1  0.52990000  0.51720000  0.35450000  0.0833 -0.0094369106
H  H657  1  0.52990000  0.85450000  0.98280000  0.0833 -0.0094369106
H  H658  1  0.47010000  0.14550000  0.98280000  0.0833 -0.0094369106
H  H659  1  0.47010000  0.85450000  0.01720000  0.0833 -0.0094369106
H  H660  1  0.52990000  0.14550000  0.01720000  0.0833 -0.0094369106
H  H661  1  0.48280000  0.85450000  0.97010000  0.0833 -0.0094369106
H  H662  1  0.48280000  0.14550000  0.02990000  0.0833 -0.0094369106
H  H663  1  0.51720000  0.85450000  0.02990000  0.0833 -0.0094369106
H  H664  1  0.51720000  0.14550000  0.97010000  0.0833 -0.0094369106
H  H665  1  0.85450000  0.48280000  0.02990000  0.0833 -0.0094369106
H  H666  1  0.14550000  0.48280000  0.97010000  0.0833 -0.0094369106
H  H667  1  0.85450000  0.51720000  0.97010000  0.0833 -0.0094369106
H  H668  1  0.14550000  0.51720000  0.02990000  0.0833 -0.0094369106
H  H669  1  0.85450000  0.52990000  0.01720000  0.0833 -0.0094369106
H  H670  1  0.14550000  0.47010000  0.01720000  0.0833 -0.0094369106
H  H671  1  0.85450000  0.47010000  0.98280000  0.0833 -0.0094369106
H  H672  1  0.14550000  0.52990000  0.98280000  0.0833 -0.0094369106
H  H817  1  0.47010000  0.64550000  0.51720000  0.0833 -0.0094369106
H  H818  1  0.52990000  0.35450000  0.51720000  0.0833 -0.0094369106
H  H819  1  0.52990000  0.64550000  0.48280000  0.0833 -0.0094369106
H  H820  1  0.47010000  0.35450000  0.48280000  0.0833 -0.0094369106
H  H821  1  0.51720000  0.64550000  0.52990000  0.0833 -0.0094369106
H  H822  1  0.51720000  0.35450000  0.47010000  0.0833 -0.0094369106
H  H823  1  0.48280000  0.64550000  0.47010000  0.0833 -0.0094369106
H  H824  1  0.48280000  0.35450000  0.52990000  0.0833 -0.0094369106
H  H825  1  0.51720000  0.97010000  0.14550000  0.0833 -0.0094369106
H  H826  1  0.51720000  0.02990000  0.85450000  0.0833 -0.0094369106
H  H827  1  0.48280000  0.02990000  0.14550000  0.0833 -0.0094369106
H  H828  1  0.48280000  0.97010000  0.85450000  0.0833 -0.0094369106
H  H829  1  0.47010000  0.01720000  0.85450000  0.0833 -0.0094369106
H  H830  1  0.52990000  0.01720000  0.14550000  0.0833 -0.0094369106
H  H831  1  0.52990000  0.98280000  0.85450000  0.0833 -0.0094369106
H  H832  1  0.47010000  0.98280000  0.14550000  0.0833 -0.0094369106
H  H833  1  0.14550000  0.01720000  0.47010000  0.0833 -0.0094369106
H  H834  1  0.85450000  0.01720000  0.52990000  0.0833 -0.0094369106
H  H835  1  0.14550000  0.98280000  0.52990000  0.0833 -0.0094369106
H  H836  1  0.85450000  0.98280000  0.47010000  0.0833 -0.0094369106
H  H837  1  0.14550000  0.97010000  0.48280000  0.0833 -0.0094369106
H  H838  1  0.85450000  0.02990000  0.48280000  0.0833 -0.0094369106
H  H839  1  0.14550000  0.02990000  0.51720000  0.0833 -0.0094369106
H  H840  1  0.85450000  0.97010000  0.51720000  0.0833 -0.0094369106
H  H841  1  0.52990000  0.35450000  0.48280000  0.0833 -0.0094369106
H  H842  1  0.47010000  0.64550000  0.48280000  0.0833 -0.0094369106
H  H843  1  0.47010000  0.35450000  0.51720000  0.0833 -0.0094369106
H  H844  1  0.52990000  0.64550000  0.51720000  0.0833 -0.0094369106
H  H845  1  0.48280000  0.35450000  0.47010000  0.0833 -0.0094369106
H  H846  1  0.48280000  0.64550000  0.52990000  0.0833 -0.0094369106
H  H847  1  0.51720000  0.35450000  0.52990000  0.0833 -0.0094369106
H  H848  1  0.51720000  0.64550000  0.47010000  0.0833 -0.0094369106
H  H849  1  0.48280000  0.02990000  0.85450000  0.0833 -0.0094369106
H  H850  1  0.48280000  0.97010000  0.14550000  0.0833 -0.0094369106
H  H851  1  0.51720000  0.97010000  0.85450000  0.0833 -0.0094369106
H  H852  1  0.51720000  0.02990000  0.14550000  0.0833 -0.0094369106
H  H853  1  0.52990000  0.98280000  0.14550000  0.0833 -0.0094369106
H  H854  1  0.47010000  0.98280000  0.85450000  0.0833 -0.0094369106
H  H855  1  0.47010000  0.01720000  0.14550000  0.0833 -0.0094369106
H  H856  1  0.52990000  0.01720000  0.85450000  0.0833 -0.0094369106
H  H857  1  0.85450000  0.98280000  0.52990000  0.0833 -0.0094369106
H  H858  1  0.14550000  0.98280000  0.47010000  0.0833 -0.0094369106
H  H859  1  0.85450000  0.01720000  0.47010000  0.0833 -0.0094369106
H  H860  1  0.14550000  0.01720000  0.52990000  0.0833 -0.0094369106
H  H861  1  0.85450000  0.02990000  0.51720000  0.0833 -0.0094369106
H  H862  1  0.14550000  0.97010000  0.51720000  0.0833 -0.0094369106
H  H863  1  0.85450000  0.97010000  0.48280000  0.0833 -0.0094369106
H  H864  1  0.14550000  0.02990000  0.48280000  0.0833 -0.0094369106
H  H97  1  0.80660000  0.01470000  0.07490000  0.1667 0.0620097283
H  H98  1  0.19340000  0.01470000  0.92510000  0.1667 0.0620097283
H  H99  1  0.80660000  0.98530000  0.92510000  0.1667 0.0620097283
H  H100  1  0.19340000  0.98530000  0.07490000  0.1667 0.0620097283
H  H101  1  0.80660000  0.07490000  0.98530000  0.1667 0.0620097283
H  H102  1  0.19340000  0.92510000  0.98530000  0.1667 0.0620097283
H  H103  1  0.80660000  0.92510000  0.01470000  0.1667 0.0620097283
H  H104  1  0.19340000  0.07490000  0.01470000  0.1667 0.0620097283
H  H105  1  0.07490000  0.80660000  0.01470000  0.1667 0.0620097283
H  H106  1  0.92510000  0.19340000  0.01470000  0.1667 0.0620097283
H  H107  1  0.92510000  0.80660000  0.98530000  0.1667 0.0620097283
H  H108  1  0.07490000  0.19340000  0.98530000  0.1667 0.0620097283
H  H109  1  0.01470000  0.80660000  0.92510000  0.1667 0.0620097283
H  H110  1  0.01470000  0.19340000  0.07490000  0.1667 0.0620097283
H  H111  1  0.98530000  0.80660000  0.07490000  0.1667 0.0620097283
H  H112  1  0.98530000  0.19340000  0.92510000  0.1667 0.0620097283
H  H113  1  0.01470000  0.07490000  0.80660000  0.1667 0.0620097283
H  H114  1  0.01470000  0.92510000  0.19340000  0.1667 0.0620097283
H  H115  1  0.98530000  0.92510000  0.80660000  0.1667 0.0620097283
H  H116  1  0.98530000  0.07490000  0.19340000  0.1667 0.0620097283
H  H117  1  0.07490000  0.01470000  0.19340000  0.1667 0.0620097283
H  H118  1  0.92510000  0.01470000  0.80660000  0.1667 0.0620097283
H  H119  1  0.92510000  0.98530000  0.19340000  0.1667 0.0620097283
H  H120  1  0.07490000  0.98530000  0.80660000  0.1667 0.0620097283
H  H121  1  0.19340000  0.98530000  0.92510000  0.1667 0.0620097283
H  H122  1  0.80660000  0.98530000  0.07490000  0.1667 0.0620097283
H  H123  1  0.19340000  0.01470000  0.07490000  0.1667 0.0620097283
H  H124  1  0.80660000  0.01470000  0.92510000  0.1667 0.0620097283
H  H125  1  0.19340000  0.92510000  0.01470000  0.1667 0.0620097283
H  H126  1  0.80660000  0.07490000  0.01470000  0.1667 0.0620097283
H  H127  1  0.19340000  0.07490000  0.98530000  0.1667 0.0620097283
H  H128  1  0.80660000  0.92510000  0.98530000  0.1667 0.0620097283
H  H129  1  0.92510000  0.19340000  0.98530000  0.1667 0.0620097283
H  H130  1  0.07490000  0.80660000  0.98530000  0.1667 0.0620097283
H  H131  1  0.07490000  0.19340000  0.01470000  0.1667 0.0620097283
H  H132  1  0.92510000  0.80660000  0.01470000  0.1667 0.0620097283
H  H133  1  0.98530000  0.19340000  0.07490000  0.1667 0.0620097283
H  H134  1  0.98530000  0.80660000  0.92510000  0.1667 0.0620097283
H  H135  1  0.01470000  0.19340000  0.92510000  0.1667 0.0620097283
H  H136  1  0.01470000  0.80660000  0.07490000  0.1667 0.0620097283
H  H137  1  0.98530000  0.92510000  0.19340000  0.1667 0.0620097283
H  H138  1  0.98530000  0.07490000  0.80660000  0.1667 0.0620097283
H  H139  1  0.01470000  0.07490000  0.19340000  0.1667 0.0620097283
H  H140  1  0.01470000  0.92510000  0.80660000  0.1667 0.0620097283
H  H141  1  0.92510000  0.98530000  0.80660000  0.1667 0.0620097283
H  H142  1  0.07490000  0.98530000  0.19340000  0.1667 0.0620097283
H  H143  1  0.07490000  0.01470000  0.80660000  0.1667 0.0620097283
H  H144  1  0.92510000  0.01470000  0.19340000  0.1667 0.0620097283
H  H145  1  0.71960000  0.01430000  0.07260000  0.1667 0.0620097283
H  H146  1  0.28040000  0.01430000  0.92740000  0.1667 0.0620097283
H  H147  1  0.71960000  0.98570000  0.92740000  0.1667 0.0620097283
H  H148  1  0.28040000  0.98570000  0.07260000  0.1667 0.0620097283
H  H149  1  0.71960000  0.07260000  0.98570000  0.1667 0.0620097283
H  H150  1  0.28040000  0.92740000  0.98570000  0.1667 0.0620097283
H  H151  1  0.71960000  0.92740000  0.01430000  0.1667 0.0620097283
H  H152  1  0.28040000  0.07260000  0.01430000  0.1667 0.0620097283
H  H153  1  0.07260000  0.71960000  0.01430000  0.1667 0.0620097283
H  H154  1  0.92740000  0.28040000  0.01430000  0.1667 0.0620097283
H  H155  1  0.92740000  0.71960000  0.98570000  0.1667 0.0620097283
H  H156  1  0.07260000  0.28040000  0.98570000  0.1667 0.0620097283
H  H157  1  0.01430000  0.71960000  0.92740000  0.1667 0.0620097283
H  H158  1  0.01430000  0.28040000  0.07260000  0.1667 0.0620097283
H  H159  1  0.98570000  0.71960000  0.07260000  0.1667 0.0620097283
H  H160  1  0.98570000  0.28040000  0.92740000  0.1667 0.0620097283
H  H161  1  0.01430000  0.07260000  0.71960000  0.1667 0.0620097283
H  H162  1  0.01430000  0.92740000  0.28040000  0.1667 0.0620097283
H  H163  1  0.98570000  0.92740000  0.71960000  0.1667 0.0620097283
H  H164  1  0.98570000  0.07260000  0.28040000  0.1667 0.0620097283
H  H165  1  0.07260000  0.01430000  0.28040000  0.1667 0.0620097283
H  H166  1  0.92740000  0.01430000  0.71960000  0.1667 0.0620097283
H  H167  1  0.92740000  0.98570000  0.28040000  0.1667 0.0620097283
H  H168  1  0.07260000  0.98570000  0.71960000  0.1667 0.0620097283
H  H169  1  0.28040000  0.98570000  0.92740000  0.1667 0.0620097283
H  H170  1  0.71960000  0.98570000  0.07260000  0.1667 0.0620097283
H  H171  1  0.28040000  0.01430000  0.07260000  0.1667 0.0620097283
H  H172  1  0.71960000  0.01430000  0.92740000  0.1667 0.0620097283
H  H173  1  0.28040000  0.92740000  0.01430000  0.1667 0.0620097283
H  H174  1  0.71960000  0.07260000  0.01430000  0.1667 0.0620097283
H  H175  1  0.28040000  0.07260000  0.98570000  0.1667 0.0620097283
H  H176  1  0.71960000  0.92740000  0.98570000  0.1667 0.0620097283
H  H177  1  0.92740000  0.28040000  0.98570000  0.1667 0.0620097283
H  H178  1  0.07260000  0.71960000  0.98570000  0.1667 0.0620097283
H  H179  1  0.07260000  0.28040000  0.01430000  0.1667 0.0620097283
H  H180  1  0.92740000  0.71960000  0.01430000  0.1667 0.0620097283
H  H181  1  0.98570000  0.28040000  0.07260000  0.1667 0.0620097283
H  H182  1  0.98570000  0.71960000  0.92740000  0.1667 0.0620097283
H  H183  1  0.01430000  0.28040000  0.92740000  0.1667 0.0620097283
H  H184  1  0.01430000  0.71960000  0.07260000  0.1667 0.0620097283
H  H185  1  0.98570000  0.92740000  0.28040000  0.1667 0.0620097283
H  H186  1  0.98570000  0.07260000  0.71960000  0.1667 0.0620097283
H  H187  1  0.01430000  0.07260000  0.28040000  0.1667 0.0620097283
H  H188  1  0.01430000  0.92740000  0.71960000  0.1667 0.0620097283
H  H189  1  0.92740000  0.98570000  0.71960000  0.1667 0.0620097283
H  H190  1  0.07260000  0.98570000  0.28040000  0.1667 0.0620097283
H  H191  1  0.07260000  0.01430000  0.71960000  0.1667 0.0620097283
H  H192  1  0.92740000  0.01430000  0.28040000  0.1667 0.0620097283
H  H217  1  0.64550000  0.96550000  0.00000000  0.1667 -0.0094369106
H  H218  1  0.35450000  0.96550000  0.00000000  0.1667 -0.0094369106
H  H219  1  0.64550000  0.03450000  0.00000000  0.1667 -0.0094369106
H  H220  1  0.35450000  0.03450000  0.00000000  0.1667 -0.0094369106
H  H221  1  0.64550000  0.00000000  0.03450000  0.1667 -0.0094369106
H  H222  1  0.35450000  0.00000000  0.03450000  0.1667 -0.0094369106
H  H223  1  0.64550000  0.00000000  0.96550000  0.1667 -0.0094369106
H  H224  1  0.35450000  0.00000000  0.96550000  0.1667 -0.0094369106
H  H225  1  0.00000000  0.64550000  0.96550000  0.1667 -0.0094369106
H  H226  1  0.00000000  0.35450000  0.96550000  0.1667 -0.0094369106
H  H227  1  0.00000000  0.64550000  0.03450000  0.1667 -0.0094369106
H  H228  1  0.00000000  0.35450000  0.03450000  0.1667 -0.0094369106
H  H229  1  0.96550000  0.64550000  0.00000000  0.1667 -0.0094369106
H  H230  1  0.96550000  0.35450000  0.00000000  0.1667 -0.0094369106
H  H231  1  0.03450000  0.64550000  0.00000000  0.1667 -0.0094369106
H  H232  1  0.03450000  0.35450000  0.00000000  0.1667 -0.0094369106
H  H233  1  0.96550000  0.00000000  0.64550000  0.1667 -0.0094369106
H  H234  1  0.96550000  0.00000000  0.35450000  0.1667 -0.0094369106
H  H235  1  0.03450000  0.00000000  0.64550000  0.1667 -0.0094369106
H  H236  1  0.03450000  0.00000000  0.35450000  0.1667 -0.0094369106
H  H237  1  0.00000000  0.96550000  0.35450000  0.1667 -0.0094369106
H  H238  1  0.00000000  0.96550000  0.64550000  0.1667 -0.0094369106
H  H239  1  0.00000000  0.03450000  0.35450000  0.1667 -0.0094369106
H  H240  1  0.00000000  0.03450000  0.64550000  0.1667 -0.0094369106
H  H289  1  0.80660000  0.51470000  0.57490000  0.1667 0.0620097283
H  H290  1  0.19340000  0.51470000  0.42510000  0.1667 0.0620097283
H  H291  1  0.80660000  0.48530000  0.42510000  0.1667 0.0620097283
H  H292  1  0.19340000  0.48530000  0.57490000  0.1667 0.0620097283
H  H293  1  0.80660000  0.57490000  0.48530000  0.1667 0.0620097283
H  H294  1  0.19340000  0.42510000  0.48530000  0.1667 0.0620097283
H  H295  1  0.80660000  0.42510000  0.51470000  0.1667 0.0620097283
H  H296  1  0.19340000  0.57490000  0.51470000  0.1667 0.0620097283
H  H297  1  0.01470000  0.57490000  0.30660000  0.1667 0.0620097283
H  H298  1  0.01470000  0.42510000  0.69340000  0.1667 0.0620097283
H  H299  1  0.98530000  0.42510000  0.30660000  0.1667 0.0620097283
H  H300  1  0.98530000  0.57490000  0.69340000  0.1667 0.0620097283
H  H301  1  0.07490000  0.51470000  0.69340000  0.1667 0.0620097283
H  H302  1  0.92510000  0.51470000  0.30660000  0.1667 0.0620097283
H  H303  1  0.92510000  0.48530000  0.69340000  0.1667 0.0620097283
H  H304  1  0.07490000  0.48530000  0.30660000  0.1667 0.0620097283
H  H305  1  0.07490000  0.30660000  0.51470000  0.1667 0.0620097283
H  H306  1  0.92510000  0.69340000  0.51470000  0.1667 0.0620097283
H  H307  1  0.92510000  0.30660000  0.48530000  0.1667 0.0620097283
H  H308  1  0.07490000  0.69340000  0.48530000  0.1667 0.0620097283
H  H309  1  0.01470000  0.30660000  0.42510000  0.1667 0.0620097283
H  H310  1  0.01470000  0.69340000  0.57490000  0.1667 0.0620097283
H  H311  1  0.98530000  0.30660000  0.57490000  0.1667 0.0620097283
H  H312  1  0.98530000  0.69340000  0.42510000  0.1667 0.0620097283
H  H313  1  0.19340000  0.48530000  0.42510000  0.1667 0.0620097283
H  H314  1  0.80660000  0.48530000  0.57490000  0.1667 0.0620097283
H  H315  1  0.19340000  0.51470000  0.57490000  0.1667 0.0620097283
H  H316  1  0.80660000  0.51470000  0.42510000  0.1667 0.0620097283
H  H317  1  0.19340000  0.42510000  0.51470000  0.1667 0.0620097283
H  H318  1  0.80660000  0.57490000  0.51470000  0.1667 0.0620097283
H  H319  1  0.19340000  0.57490000  0.48530000  0.1667 0.0620097283
H  H320  1  0.80660000  0.42510000  0.48530000  0.1667 0.0620097283
H  H321  1  0.98530000  0.42510000  0.69340000  0.1667 0.0620097283
H  H322  1  0.98530000  0.57490000  0.30660000  0.1667 0.0620097283
H  H323  1  0.01470000  0.57490000  0.69340000  0.1667 0.0620097283
H  H324  1  0.01470000  0.42510000  0.30660000  0.1667 0.0620097283
H  H325  1  0.92510000  0.48530000  0.30660000  0.1667 0.0620097283
H  H326  1  0.07490000  0.48530000  0.69340000  0.1667 0.0620097283
H  H327  1  0.07490000  0.51470000  0.30660000  0.1667 0.0620097283
H  H328  1  0.92510000  0.51470000  0.69340000  0.1667 0.0620097283
H  H329  1  0.92510000  0.69340000  0.48530000  0.1667 0.0620097283
H  H330  1  0.07490000  0.30660000  0.48530000  0.1667 0.0620097283
H  H331  1  0.07490000  0.69340000  0.51470000  0.1667 0.0620097283
H  H332  1  0.92510000  0.30660000  0.51470000  0.1667 0.0620097283
H  H333  1  0.98530000  0.69340000  0.57490000  0.1667 0.0620097283
H  H334  1  0.98530000  0.30660000  0.42510000  0.1667 0.0620097283
H  H335  1  0.01470000  0.69340000  0.42510000  0.1667 0.0620097283
H  H336  1  0.01470000  0.30660000  0.57490000  0.1667 0.0620097283
H  H337  1  0.71960000  0.51430000  0.57260000  0.1667 0.0620097283
H  H338  1  0.28040000  0.51430000  0.42740000  0.1667 0.0620097283
H  H339  1  0.71960000  0.48570000  0.42740000  0.1667 0.0620097283
H  H340  1  0.28040000  0.48570000  0.57260000  0.1667 0.0620097283
H  H341  1  0.71960000  0.57260000  0.48570000  0.1667 0.0620097283
H  H342  1  0.28040000  0.42740000  0.48570000  0.1667 0.0620097283
H  H343  1  0.71960000  0.42740000  0.51430000  0.1667 0.0620097283
H  H344  1  0.28040000  0.57260000  0.51430000  0.1667 0.0620097283
H  H345  1  0.01430000  0.57260000  0.21960000  0.1667 0.0620097283
H  H346  1  0.01430000  0.42740000  0.78040000  0.1667 0.0620097283
H  H347  1  0.98570000  0.42740000  0.21960000  0.1667 0.0620097283
H  H348  1  0.98570000  0.57260000  0.78040000  0.1667 0.0620097283
H  H349  1  0.07260000  0.51430000  0.78040000  0.1667 0.0620097283
H  H350  1  0.92740000  0.51430000  0.21960000  0.1667 0.0620097283
H  H351  1  0.92740000  0.48570000  0.78040000  0.1667 0.0620097283
H  H352  1  0.07260000  0.48570000  0.21960000  0.1667 0.0620097283
H  H353  1  0.07260000  0.21960000  0.51430000  0.1667 0.0620097283
H  H354  1  0.92740000  0.78040000  0.51430000  0.1667 0.0620097283
H  H355  1  0.92740000  0.21960000  0.48570000  0.1667 0.0620097283
H  H356  1  0.07260000  0.78040000  0.48570000  0.1667 0.0620097283
H  H357  1  0.01430000  0.21960000  0.42740000  0.1667 0.0620097283
H  H358  1  0.01430000  0.78040000  0.57260000  0.1667 0.0620097283
H  H359  1  0.98570000  0.21960000  0.57260000  0.1667 0.0620097283
H  H360  1  0.98570000  0.78040000  0.42740000  0.1667 0.0620097283
H  H361  1  0.28040000  0.48570000  0.42740000  0.1667 0.0620097283
H  H362  1  0.71960000  0.48570000  0.57260000  0.1667 0.0620097283
H  H363  1  0.28040000  0.51430000  0.57260000  0.1667 0.0620097283
H  H364  1  0.71960000  0.51430000  0.42740000  0.1667 0.0620097283
H  H365  1  0.28040000  0.42740000  0.51430000  0.1667 0.0620097283
H  H366  1  0.71960000  0.57260000  0.51430000  0.1667 0.0620097283
H  H367  1  0.28040000  0.57260000  0.48570000  0.1667 0.0620097283
H  H368  1  0.71960000  0.42740000  0.48570000  0.1667 0.0620097283
H  H369  1  0.98570000  0.42740000  0.78040000  0.1667 0.0620097283
H  H370  1  0.98570000  0.57260000  0.21960000  0.1667 0.0620097283
H  H371  1  0.01430000  0.57260000  0.78040000  0.1667 0.0620097283
H  H372  1  0.01430000  0.42740000  0.21960000  0.1667 0.0620097283
H  H373  1  0.92740000  0.48570000  0.21960000  0.1667 0.0620097283
H  H374  1  0.07260000  0.48570000  0.78040000  0.1667 0.0620097283
H  H375  1  0.07260000  0.51430000  0.21960000  0.1667 0.0620097283
H  H376  1  0.92740000  0.51430000  0.78040000  0.1667 0.0620097283
H  H377  1  0.92740000  0.78040000  0.48570000  0.1667 0.0620097283
H  H378  1  0.07260000  0.21960000  0.48570000  0.1667 0.0620097283
H  H379  1  0.07260000  0.78040000  0.51430000  0.1667 0.0620097283
H  H380  1  0.92740000  0.21960000  0.51430000  0.1667 0.0620097283
H  H381  1  0.98570000  0.78040000  0.57260000  0.1667 0.0620097283
H  H382  1  0.98570000  0.21960000  0.42740000  0.1667 0.0620097283
H  H383  1  0.01430000  0.78040000  0.42740000  0.1667 0.0620097283
H  H384  1  0.01430000  0.21960000  0.57260000  0.1667 0.0620097283
H  H409  1  0.64550000  0.46550000  0.50000000  0.1667 -0.0094369106
H  H410  1  0.35450000  0.46550000  0.50000000  0.1667 -0.0094369106
H  H411  1  0.64550000  0.53450000  0.50000000  0.1667 -0.0094369106
H  H412  1  0.35450000  0.53450000  0.50000000  0.1667 -0.0094369106
H  H413  1  0.64550000  0.50000000  0.53450000  0.1667 -0.0094369106
H  H414  1  0.35450000  0.50000000  0.53450000  0.1667 -0.0094369106
H  H415  1  0.64550000  0.50000000  0.46550000  0.1667 -0.0094369106
H  H416  1  0.35450000  0.50000000  0.46550000  0.1667 -0.0094369106
H  H417  1  0.96550000  0.50000000  0.14550000  0.1667 -0.0094369106
H  H418  1  0.96550000  0.50000000  0.85450000  0.1667 -0.0094369106
H  H419  1  0.03450000  0.50000000  0.14550000  0.1667 -0.0094369106
H  H420  1  0.03450000  0.50000000  0.85450000  0.1667 -0.0094369106
H  H421  1  0.00000000  0.46550000  0.85450000  0.1667 -0.0094369106
H  H422  1  0.00000000  0.46550000  0.14550000  0.1667 -0.0094369106
H  H423  1  0.00000000  0.53450000  0.85450000  0.1667 -0.0094369106
H  H424  1  0.00000000  0.53450000  0.14550000  0.1667 -0.0094369106
H  H425  1  0.00000000  0.14550000  0.46550000  0.1667 -0.0094369106
H  H426  1  0.00000000  0.85450000  0.46550000  0.1667 -0.0094369106
H  H427  1  0.00000000  0.14550000  0.53450000  0.1667 -0.0094369106
H  H428  1  0.00000000  0.85450000  0.53450000  0.1667 -0.0094369106
H  H429  1  0.96550000  0.14550000  0.50000000  0.1667 -0.0094369106
H  H430  1  0.96550000  0.85450000  0.50000000  0.1667 -0.0094369106
H  H431  1  0.03450000  0.14550000  0.50000000  0.1667 -0.0094369106
H  H432  1  0.03450000  0.85450000  0.50000000  0.1667 -0.0094369106
H  H481  1  0.51470000  0.57490000  0.80660000  0.1667 0.0620097283
H  H482  1  0.51470000  0.42510000  0.19340000  0.1667 0.0620097283
H  H483  1  0.48530000  0.42510000  0.80660000  0.1667 0.0620097283
H  H484  1  0.48530000  0.57490000  0.19340000  0.1667 0.0620097283
H  H485  1  0.57490000  0.51470000  0.19340000  0.1667 0.0620097283
H  H486  1  0.42510000  0.51470000  0.80660000  0.1667 0.0620097283
H  H487  1  0.42510000  0.48530000  0.19340000  0.1667 0.0620097283
H  H488  1  0.57490000  0.48530000  0.80660000  0.1667 0.0620097283
H  H489  1  0.57490000  0.30660000  0.01470000  0.1667 0.0620097283
H  H490  1  0.42510000  0.69340000  0.01470000  0.1667 0.0620097283
H  H491  1  0.42510000  0.30660000  0.98530000  0.1667 0.0620097283
H  H492  1  0.57490000  0.69340000  0.98530000  0.1667 0.0620097283
H  H493  1  0.51470000  0.30660000  0.92510000  0.1667 0.0620097283
H  H494  1  0.51470000  0.69340000  0.07490000  0.1667 0.0620097283
H  H495  1  0.48530000  0.30660000  0.07490000  0.1667 0.0620097283
H  H496  1  0.48530000  0.69340000  0.92510000  0.1667 0.0620097283
H  H497  1  0.30660000  0.51470000  0.07490000  0.1667 0.0620097283
H  H498  1  0.69340000  0.51470000  0.92510000  0.1667 0.0620097283
H  H499  1  0.30660000  0.48530000  0.92510000  0.1667 0.0620097283
H  H500  1  0.69340000  0.48530000  0.07490000  0.1667 0.0620097283
H  H501  1  0.30660000  0.57490000  0.98530000  0.1667 0.0620097283
H  H502  1  0.69340000  0.42510000  0.98530000  0.1667 0.0620097283
H  H503  1  0.30660000  0.42510000  0.01470000  0.1667 0.0620097283
H  H504  1  0.69340000  0.57490000  0.01470000  0.1667 0.0620097283
H  H505  1  0.48530000  0.42510000  0.19340000  0.1667 0.0620097283
H  H506  1  0.48530000  0.57490000  0.80660000  0.1667 0.0620097283
H  H507  1  0.51470000  0.57490000  0.19340000  0.1667 0.0620097283
H  H508  1  0.51470000  0.42510000  0.80660000  0.1667 0.0620097283
H  H509  1  0.42510000  0.48530000  0.80660000  0.1667 0.0620097283
H  H510  1  0.57490000  0.48530000  0.19340000  0.1667 0.0620097283
H  H511  1  0.57490000  0.51470000  0.80660000  0.1667 0.0620097283
H  H512  1  0.42510000  0.51470000  0.19340000  0.1667 0.0620097283
H  H513  1  0.42510000  0.69340000  0.98530000  0.1667 0.0620097283
H  H514  1  0.57490000  0.30660000  0.98530000  0.1667 0.0620097283
H  H515  1  0.57490000  0.69340000  0.01470000  0.1667 0.0620097283
H  H516  1  0.42510000  0.30660000  0.01470000  0.1667 0.0620097283
H  H517  1  0.48530000  0.69340000  0.07490000  0.1667 0.0620097283
H  H518  1  0.48530000  0.30660000  0.92510000  0.1667 0.0620097283
H  H519  1  0.51470000  0.69340000  0.92510000  0.1667 0.0620097283
H  H520  1  0.51470000  0.30660000  0.07490000  0.1667 0.0620097283
H  H521  1  0.69340000  0.48530000  0.92510000  0.1667 0.0620097283
H  H522  1  0.30660000  0.48530000  0.07490000  0.1667 0.0620097283
H  H523  1  0.69340000  0.51470000  0.07490000  0.1667 0.0620097283
H  H524  1  0.30660000  0.51470000  0.92510000  0.1667 0.0620097283
H  H525  1  0.69340000  0.42510000  0.01470000  0.1667 0.0620097283
H  H526  1  0.30660000  0.57490000  0.01470000  0.1667 0.0620097283
H  H527  1  0.69340000  0.57490000  0.98530000  0.1667 0.0620097283
H  H528  1  0.30660000  0.42510000  0.98530000  0.1667 0.0620097283
H  H529  1  0.51430000  0.57260000  0.71960000  0.1667 0.0620097283
H  H530  1  0.51430000  0.42740000  0.28040000  0.1667 0.0620097283
H  H531  1  0.48570000  0.42740000  0.71960000  0.1667 0.0620097283
H  H532  1  0.48570000  0.57260000  0.28040000  0.1667 0.0620097283
H  H533  1  0.57260000  0.51430000  0.28040000  0.1667 0.0620097283
H  H534  1  0.42740000  0.51430000  0.71960000  0.1667 0.0620097283
H  H535  1  0.42740000  0.48570000  0.28040000  0.1667 0.0620097283
H  H536  1  0.57260000  0.48570000  0.71960000  0.1667 0.0620097283
H  H537  1  0.57260000  0.21960000  0.01430000  0.1667 0.0620097283
H  H538  1  0.42740000  0.78040000  0.01430000  0.1667 0.0620097283
H  H539  1  0.42740000  0.21960000  0.98570000  0.1667 0.0620097283
H  H540  1  0.57260000  0.78040000  0.98570000  0.1667 0.0620097283
H  H541  1  0.51430000  0.21960000  0.92740000  0.1667 0.0620097283
H  H542  1  0.51430000  0.78040000  0.07260000  0.1667 0.0620097283
H  H543  1  0.48570000  0.21960000  0.07260000  0.1667 0.0620097283
H  H544  1  0.48570000  0.78040000  0.92740000  0.1667 0.0620097283
H  H545  1  0.21960000  0.51430000  0.07260000  0.1667 0.0620097283
H  H546  1  0.78040000  0.51430000  0.92740000  0.1667 0.0620097283
H  H547  1  0.21960000  0.48570000  0.92740000  0.1667 0.0620097283
H  H548  1  0.78040000  0.48570000  0.07260000  0.1667 0.0620097283
H  H549  1  0.21960000  0.57260000  0.98570000  0.1667 0.0620097283
H  H550  1  0.78040000  0.42740000  0.98570000  0.1667 0.0620097283
H  H551  1  0.21960000  0.42740000  0.01430000  0.1667 0.0620097283
H  H552  1  0.78040000  0.57260000  0.01430000  0.1667 0.0620097283
H  H553  1  0.48570000  0.42740000  0.28040000  0.1667 0.0620097283
H  H554  1  0.48570000  0.57260000  0.71960000  0.1667 0.0620097283
H  H555  1  0.51430000  0.57260000  0.28040000  0.1667 0.0620097283
H  H556  1  0.51430000  0.42740000  0.71960000  0.1667 0.0620097283
H  H557  1  0.42740000  0.48570000  0.71960000  0.1667 0.0620097283
H  H558  1  0.57260000  0.48570000  0.28040000  0.1667 0.0620097283
H  H559  1  0.57260000  0.51430000  0.71960000  0.1667 0.0620097283
H  H560  1  0.42740000  0.51430000  0.28040000  0.1667 0.0620097283
H  H561  1  0.42740000  0.78040000  0.98570000  0.1667 0.0620097283
H  H562  1  0.57260000  0.21960000  0.98570000  0.1667 0.0620097283
H  H563  1  0.57260000  0.78040000  0.01430000  0.1667 0.0620097283
H  H564  1  0.42740000  0.21960000  0.01430000  0.1667 0.0620097283
H  H565  1  0.48570000  0.78040000  0.07260000  0.1667 0.0620097283
H  H566  1  0.48570000  0.21960000  0.92740000  0.1667 0.0620097283
H  H567  1  0.51430000  0.78040000  0.92740000  0.1667 0.0620097283
H  H568  1  0.51430000  0.21960000  0.07260000  0.1667 0.0620097283
H  H569  1  0.78040000  0.48570000  0.92740000  0.1667 0.0620097283
H  H570  1  0.21960000  0.48570000  0.07260000  0.1667 0.0620097283
H  H571  1  0.78040000  0.51430000  0.07260000  0.1667 0.0620097283
H  H572  1  0.21960000  0.51430000  0.92740000  0.1667 0.0620097283
H  H573  1  0.78040000  0.42740000  0.01430000  0.1667 0.0620097283
H  H574  1  0.21960000  0.57260000  0.01430000  0.1667 0.0620097283
H  H575  1  0.78040000  0.57260000  0.98570000  0.1667 0.0620097283
H  H576  1  0.21960000  0.42740000  0.98570000  0.1667 0.0620097283
H  H601  1  0.46550000  0.50000000  0.64550000  0.1667 -0.0094369106
H  H602  1  0.46550000  0.50000000  0.35450000  0.1667 -0.0094369106
H  H603  1  0.53450000  0.50000000  0.64550000  0.1667 -0.0094369106
H  H604  1  0.53450000  0.50000000  0.35450000  0.1667 -0.0094369106
H  H605  1  0.50000000  0.46550000  0.35450000  0.1667 -0.0094369106
H  H606  1  0.50000000  0.46550000  0.64550000  0.1667 -0.0094369106
H  H607  1  0.50000000  0.53450000  0.35450000  0.1667 -0.0094369106
H  H608  1  0.50000000  0.53450000  0.64550000  0.1667 -0.0094369106
H  H609  1  0.50000000  0.14550000  0.96550000  0.1667 -0.0094369106
H  H610  1  0.50000000  0.85450000  0.96550000  0.1667 -0.0094369106
H  H611  1  0.50000000  0.14550000  0.03450000  0.1667 -0.0094369106
H  H612  1  0.50000000  0.85450000  0.03450000  0.1667 -0.0094369106
H  H613  1  0.46550000  0.14550000  0.00000000  0.1667 -0.0094369106
H  H614  1  0.46550000  0.85450000  0.00000000  0.1667 -0.0094369106
H  H615  1  0.53450000  0.14550000  0.00000000  0.1667 -0.0094369106
H  H616  1  0.53450000  0.85450000  0.00000000  0.1667 -0.0094369106
H  H617  1  0.14550000  0.46550000  0.00000000  0.1667 -0.0094369106
H  H618  1  0.85450000  0.46550000  0.00000000  0.1667 -0.0094369106
H  H619  1  0.14550000  0.53450000  0.00000000  0.1667 -0.0094369106
H  H620  1  0.85450000  0.53450000  0.00000000  0.1667 -0.0094369106
H  H621  1  0.14550000  0.50000000  0.03450000  0.1667 -0.0094369106
H  H622  1  0.85450000  0.50000000  0.03450000  0.1667 -0.0094369106
H  H623  1  0.14550000  0.50000000  0.96550000  0.1667 -0.0094369106
H  H624  1  0.85450000  0.50000000  0.96550000  0.1667 -0.0094369106
H  H673  1  0.57490000  0.80660000  0.51470000  0.1667 0.0620097283
H  H674  1  0.42510000  0.19340000  0.51470000  0.1667 0.0620097283
H  H675  1  0.42510000  0.80660000  0.48530000  0.1667 0.0620097283
H  H676  1  0.57490000  0.19340000  0.48530000  0.1667 0.0620097283
H  H677  1  0.51470000  0.80660000  0.42510000  0.1667 0.0620097283
H  H678  1  0.51470000  0.19340000  0.57490000  0.1667 0.0620097283
H  H679  1  0.48530000  0.80660000  0.57490000  0.1667 0.0620097283
H  H680  1  0.48530000  0.19340000  0.42510000  0.1667 0.0620097283
H  H681  1  0.51470000  0.07490000  0.30660000  0.1667 0.0620097283
H  H682  1  0.51470000  0.92510000  0.69340000  0.1667 0.0620097283
H  H683  1  0.48530000  0.92510000  0.30660000  0.1667 0.0620097283
H  H684  1  0.48530000  0.07490000  0.69340000  0.1667 0.0620097283
H  H685  1  0.57490000  0.01470000  0.69340000  0.1667 0.0620097283
H  H686  1  0.42510000  0.01470000  0.30660000  0.1667 0.0620097283
H  H687  1  0.42510000  0.98530000  0.69340000  0.1667 0.0620097283
H  H688  1  0.57490000  0.98530000  0.30660000  0.1667 0.0620097283
H  H689  1  0.30660000  0.01470000  0.57490000  0.1667 0.0620097283
H  H690  1  0.69340000  0.01470000  0.42510000  0.1667 0.0620097283
H  H691  1  0.30660000  0.98530000  0.42510000  0.1667 0.0620097283
H  H692  1  0.69340000  0.98530000  0.57490000  0.1667 0.0620097283
H  H693  1  0.30660000  0.07490000  0.48530000  0.1667 0.0620097283
H  H694  1  0.69340000  0.92510000  0.48530000  0.1667 0.0620097283
H  H695  1  0.30660000  0.92510000  0.51470000  0.1667 0.0620097283
H  H696  1  0.69340000  0.07490000  0.51470000  0.1667 0.0620097283
H  H697  1  0.42510000  0.19340000  0.48530000  0.1667 0.0620097283
H  H698  1  0.57490000  0.80660000  0.48530000  0.1667 0.0620097283
H  H699  1  0.57490000  0.19340000  0.51470000  0.1667 0.0620097283
H  H700  1  0.42510000  0.80660000  0.51470000  0.1667 0.0620097283
H  H701  1  0.48530000  0.19340000  0.57490000  0.1667 0.0620097283
H  H702  1  0.48530000  0.80660000  0.42510000  0.1667 0.0620097283
H  H703  1  0.51470000  0.19340000  0.42510000  0.1667 0.0620097283
H  H704  1  0.51470000  0.80660000  0.57490000  0.1667 0.0620097283
H  H705  1  0.48530000  0.92510000  0.69340000  0.1667 0.0620097283
H  H706  1  0.48530000  0.07490000  0.30660000  0.1667 0.0620097283
H  H707  1  0.51470000  0.07490000  0.69340000  0.1667 0.0620097283
H  H708  1  0.51470000  0.92510000  0.30660000  0.1667 0.0620097283
H  H709  1  0.42510000  0.98530000  0.30660000  0.1667 0.0620097283
H  H710  1  0.57490000  0.98530000  0.69340000  0.1667 0.0620097283
H  H711  1  0.57490000  0.01470000  0.30660000  0.1667 0.0620097283
H  H712  1  0.42510000  0.01470000  0.69340000  0.1667 0.0620097283
H  H713  1  0.69340000  0.98530000  0.42510000  0.1667 0.0620097283
H  H714  1  0.30660000  0.98530000  0.57490000  0.1667 0.0620097283
H  H715  1  0.69340000  0.01470000  0.57490000  0.1667 0.0620097283
H  H716  1  0.30660000  0.01470000  0.42510000  0.1667 0.0620097283
H  H717  1  0.69340000  0.92510000  0.51470000  0.1667 0.0620097283
H  H718  1  0.30660000  0.07490000  0.51470000  0.1667 0.0620097283
H  H719  1  0.69340000  0.07490000  0.48530000  0.1667 0.0620097283
H  H720  1  0.30660000  0.92510000  0.48530000  0.1667 0.0620097283
H  H721  1  0.57260000  0.71960000  0.51430000  0.1667 0.0620097283
H  H722  1  0.42740000  0.28040000  0.51430000  0.1667 0.0620097283
H  H723  1  0.42740000  0.71960000  0.48570000  0.1667 0.0620097283
H  H724  1  0.57260000  0.28040000  0.48570000  0.1667 0.0620097283
H  H725  1  0.51430000  0.71960000  0.42740000  0.1667 0.0620097283
H  H726  1  0.51430000  0.28040000  0.57260000  0.1667 0.0620097283
H  H727  1  0.48570000  0.71960000  0.57260000  0.1667 0.0620097283
H  H728  1  0.48570000  0.28040000  0.42740000  0.1667 0.0620097283
H  H729  1  0.51430000  0.07260000  0.21960000  0.1667 0.0620097283
H  H730  1  0.51430000  0.92740000  0.78040000  0.1667 0.0620097283
H  H731  1  0.48570000  0.92740000  0.21960000  0.1667 0.0620097283
H  H732  1  0.48570000  0.07260000  0.78040000  0.1667 0.0620097283
H  H733  1  0.57260000  0.01430000  0.78040000  0.1667 0.0620097283
H  H734  1  0.42740000  0.01430000  0.21960000  0.1667 0.0620097283
H  H735  1  0.42740000  0.98570000  0.78040000  0.1667 0.0620097283
H  H736  1  0.57260000  0.98570000  0.21960000  0.1667 0.0620097283
H  H737  1  0.21960000  0.01430000  0.57260000  0.1667 0.0620097283
H  H738  1  0.78040000  0.01430000  0.42740000  0.1667 0.0620097283
H  H739  1  0.21960000  0.98570000  0.42740000  0.1667 0.0620097283
H  H740  1  0.78040000  0.98570000  0.57260000  0.1667 0.0620097283
H  H741  1  0.21960000  0.07260000  0.48570000  0.1667 0.0620097283
H  H742  1  0.78040000  0.92740000  0.48570000  0.1667 0.0620097283
H  H743  1  0.21960000  0.92740000  0.51430000  0.1667 0.0620097283
H  H744  1  0.78040000  0.07260000  0.51430000  0.1667 0.0620097283
H  H745  1  0.42740000  0.28040000  0.48570000  0.1667 0.0620097283
H  H746  1  0.57260000  0.71960000  0.48570000  0.1667 0.0620097283
H  H747  1  0.57260000  0.28040000  0.51430000  0.1667 0.0620097283
H  H748  1  0.42740000  0.71960000  0.51430000  0.1667 0.0620097283
H  H749  1  0.48570000  0.28040000  0.57260000  0.1667 0.0620097283
H  H750  1  0.48570000  0.71960000  0.42740000  0.1667 0.0620097283
H  H751  1  0.51430000  0.28040000  0.42740000  0.1667 0.0620097283
H  H752  1  0.51430000  0.71960000  0.57260000  0.1667 0.0620097283
H  H753  1  0.48570000  0.92740000  0.78040000  0.1667 0.0620097283
H  H754  1  0.48570000  0.07260000  0.21960000  0.1667 0.0620097283
H  H755  1  0.51430000  0.07260000  0.78040000  0.1667 0.0620097283
H  H756  1  0.51430000  0.92740000  0.21960000  0.1667 0.0620097283
H  H757  1  0.42740000  0.98570000  0.21960000  0.1667 0.0620097283
H  H758  1  0.57260000  0.98570000  0.78040000  0.1667 0.0620097283
H  H759  1  0.57260000  0.01430000  0.21960000  0.1667 0.0620097283
H  H760  1  0.42740000  0.01430000  0.78040000  0.1667 0.0620097283
H  H761  1  0.78040000  0.98570000  0.42740000  0.1667 0.0620097283
H  H762  1  0.21960000  0.98570000  0.57260000  0.1667 0.0620097283
H  H763  1  0.78040000  0.01430000  0.57260000  0.1667 0.0620097283
H  H764  1  0.21960000  0.01430000  0.42740000  0.1667 0.0620097283
H  H765  1  0.78040000  0.92740000  0.51430000  0.1667 0.0620097283
H  H766  1  0.21960000  0.07260000  0.51430000  0.1667 0.0620097283
H  H767  1  0.78040000  0.07260000  0.48570000  0.1667 0.0620097283
H  H768  1  0.21960000  0.92740000  0.48570000  0.1667 0.0620097283
H  H793  1  0.50000000  0.64550000  0.46550000  0.1667 -0.0094369106
H  H794  1  0.50000000  0.35450000  0.46550000  0.1667 -0.0094369106
H  H795  1  0.50000000  0.64550000  0.53450000  0.1667 -0.0094369106
H  H796  1  0.50000000  0.35450000  0.53450000  0.1667 -0.0094369106
H  H797  1  0.46550000  0.64550000  0.50000000  0.1667 -0.0094369106
H  H798  1  0.46550000  0.35450000  0.50000000  0.1667 -0.0094369106
H  H799  1  0.53450000  0.64550000  0.50000000  0.1667 -0.0094369106
H  H800  1  0.53450000  0.35450000  0.50000000  0.1667 -0.0094369106
H  H801  1  0.46550000  0.00000000  0.14550000  0.1667 -0.0094369106
H  H802  1  0.46550000  0.00000000  0.85450000  0.1667 -0.0094369106
H  H803  1  0.53450000  0.00000000  0.14550000  0.1667 -0.0094369106
H  H804  1  0.53450000  0.00000000  0.85450000  0.1667 -0.0094369106
H  H805  1  0.50000000  0.96550000  0.85450000  0.1667 -0.0094369106
H  H806  1  0.50000000  0.96550000  0.14550000  0.1667 -0.0094369106
H  H807  1  0.50000000  0.03450000  0.85450000  0.1667 -0.0094369106
H  H808  1  0.50000000  0.03450000  0.14550000  0.1667 -0.0094369106
H  H809  1  0.14550000  0.96550000  0.50000000  0.1667 -0.0094369106
H  H810  1  0.85450000  0.96550000  0.50000000  0.1667 -0.0094369106
H  H811  1  0.14550000  0.03450000  0.50000000  0.1667 -0.0094369106
H  H812  1  0.85450000  0.03450000  0.50000000  0.1667 -0.0094369106
H  H813  1  0.14550000  0.00000000  0.53450000  0.1667 -0.0094369106
H  H814  1  0.85450000  0.00000000  0.53450000  0.1667 -0.0094369106
H  H815  1  0.14550000  0.00000000  0.46550000  0.1667 -0.0094369106
H  H816  1  0.85450000  0.00000000  0.46550000  0.1667 -0.0094369106
H  H193  1  0.83430000  0.00000000  0.90000000  0.3333 0.0943308714
H  H194  1  0.16570000  0.00000000  0.10000000  0.3333 0.0943308714
H  H195  1  0.83430000  0.00000000  0.10000000  0.3333 0.0943308714
H  H196  1  0.16570000  0.00000000  0.90000000  0.3333 0.0943308714
H  H197  1  0.83430000  0.90000000  0.00000000  0.3333 0.0943308714
H  H198  1  0.16570000  0.10000000  0.00000000  0.3333 0.0943308714
H  H199  1  0.83430000  0.10000000  0.00000000  0.3333 0.0943308714
H  H200  1  0.16570000  0.90000000  0.00000000  0.3333 0.0943308714
H  H201  1  0.90000000  0.83430000  0.00000000  0.3333 0.0943308714
H  H202  1  0.10000000  0.16570000  0.00000000  0.3333 0.0943308714
H  H203  1  0.10000000  0.83430000  0.00000000  0.3333 0.0943308714
H  H204  1  0.90000000  0.16570000  0.00000000  0.3333 0.0943308714
H  H205  1  0.00000000  0.83430000  0.10000000  0.3333 0.0943308714
H  H206  1  0.00000000  0.16570000  0.90000000  0.3333 0.0943308714
H  H207  1  0.00000000  0.83430000  0.90000000  0.3333 0.0943308714
H  H208  1  0.00000000  0.16570000  0.10000000  0.3333 0.0943308714
H  H209  1  0.00000000  0.90000000  0.83430000  0.3333 0.0943308714
H  H210  1  0.00000000  0.10000000  0.16570000  0.3333 0.0943308714
H  H211  1  0.00000000  0.10000000  0.83430000  0.3333 0.0943308714
H  H212  1  0.00000000  0.90000000  0.16570000  0.3333 0.0943308714
H  H213  1  0.90000000  0.00000000  0.16570000  0.3333 0.0943308714
H  H214  1  0.10000000  0.00000000  0.83430000  0.3333 0.0943308714
H  H215  1  0.10000000  0.00000000  0.16570000  0.3333 0.0943308714
H  H216  1  0.90000000  0.00000000  0.83430000  0.3333 0.0943308714
H  H385  1  0.83430000  0.50000000  0.40000000  0.3333 0.0943308714
H  H386  1  0.16570000  0.50000000  0.60000000  0.3333 0.0943308714
H  H387  1  0.83430000  0.50000000  0.60000000  0.3333 0.0943308714
H  H388  1  0.16570000  0.50000000  0.40000000  0.3333 0.0943308714
H  H389  1  0.83430000  0.40000000  0.50000000  0.3333 0.0943308714
H  H390  1  0.16570000  0.60000000  0.50000000  0.3333 0.0943308714
H  H391  1  0.83430000  0.60000000  0.50000000  0.3333 0.0943308714
H  H392  1  0.16570000  0.40000000  0.50000000  0.3333 0.0943308714
H  H393  1  0.00000000  0.40000000  0.33430000  0.3333 0.0943308714
H  H394  1  0.00000000  0.60000000  0.66570000  0.3333 0.0943308714
H  H395  1  0.00000000  0.60000000  0.33430000  0.3333 0.0943308714
H  H396  1  0.00000000  0.40000000  0.66570000  0.3333 0.0943308714
H  H397  1  0.90000000  0.50000000  0.66570000  0.3333 0.0943308714
H  H398  1  0.10000000  0.50000000  0.33430000  0.3333 0.0943308714
H  H399  1  0.10000000  0.50000000  0.66570000  0.3333 0.0943308714
H  H400  1  0.90000000  0.50000000  0.33430000  0.3333 0.0943308714
H  H401  1  0.90000000  0.33430000  0.50000000  0.3333 0.0943308714
H  H402  1  0.10000000  0.66570000  0.50000000  0.3333 0.0943308714
H  H403  1  0.10000000  0.33430000  0.50000000  0.3333 0.0943308714
H  H404  1  0.90000000  0.66570000  0.50000000  0.3333 0.0943308714
H  H405  1  0.00000000  0.33430000  0.60000000  0.3333 0.0943308714
H  H406  1  0.00000000  0.66570000  0.40000000  0.3333 0.0943308714
H  H407  1  0.00000000  0.33430000  0.40000000  0.3333 0.0943308714
H  H408  1  0.00000000  0.66570000  0.60000000  0.3333 0.0943308714
H  H577  1  0.50000000  0.40000000  0.83430000  0.3333 0.0943308714
H  H578  1  0.50000000  0.60000000  0.16570000  0.3333 0.0943308714
H  H579  1  0.50000000  0.60000000  0.83430000  0.3333 0.0943308714
H  H580  1  0.50000000  0.40000000  0.16570000  0.3333 0.0943308714
H  H581  1  0.40000000  0.50000000  0.16570000  0.3333 0.0943308714
H  H582  1  0.60000000  0.50000000  0.83430000  0.3333 0.0943308714
H  H583  1  0.60000000  0.50000000  0.16570000  0.3333 0.0943308714
H  H584  1  0.40000000  0.50000000  0.83430000  0.3333 0.0943308714
H  H585  1  0.40000000  0.33430000  0.00000000  0.3333 0.0943308714
H  H586  1  0.60000000  0.66570000  0.00000000  0.3333 0.0943308714
H  H587  1  0.60000000  0.33430000  0.00000000  0.3333 0.0943308714
H  H588  1  0.40000000  0.66570000  0.00000000  0.3333 0.0943308714
H  H589  1  0.50000000  0.33430000  0.10000000  0.3333 0.0943308714
H  H590  1  0.50000000  0.66570000  0.90000000  0.3333 0.0943308714
H  H591  1  0.50000000  0.33430000  0.90000000  0.3333 0.0943308714
H  H592  1  0.50000000  0.66570000  0.10000000  0.3333 0.0943308714
H  H593  1  0.33430000  0.50000000  0.90000000  0.3333 0.0943308714
H  H594  1  0.66570000  0.50000000  0.10000000  0.3333 0.0943308714
H  H595  1  0.33430000  0.50000000  0.10000000  0.3333 0.0943308714
H  H596  1  0.66570000  0.50000000  0.90000000  0.3333 0.0943308714
H  H597  1  0.33430000  0.40000000  0.00000000  0.3333 0.0943308714
H  H598  1  0.66570000  0.60000000  0.00000000  0.3333 0.0943308714
H  H599  1  0.33430000  0.60000000  0.00000000  0.3333 0.0943308714
H  H600  1  0.66570000  0.40000000  0.00000000  0.3333 0.0943308714
H  H769  1  0.40000000  0.83430000  0.50000000  0.3333 0.0943308714
H  H770  1  0.60000000  0.16570000  0.50000000  0.3333 0.0943308714
H  H771  1  0.60000000  0.83430000  0.50000000  0.3333 0.0943308714
H  H772  1  0.40000000  0.16570000  0.50000000  0.3333 0.0943308714
H  H773  1  0.50000000  0.83430000  0.60000000  0.3333 0.0943308714
H  H774  1  0.50000000  0.16570000  0.40000000  0.3333 0.0943308714
H  H775  1  0.50000000  0.83430000  0.40000000  0.3333 0.0943308714
H  H776  1  0.50000000  0.16570000  0.60000000  0.3333 0.0943308714
H  H777  1  0.50000000  0.90000000  0.33430000  0.3333 0.0943308714
H  H778  1  0.50000000  0.10000000  0.66570000  0.3333 0.0943308714
H  H779  1  0.50000000  0.10000000  0.33430000  0.3333 0.0943308714
H  H780  1  0.50000000  0.90000000  0.66570000  0.3333 0.0943308714
H  H781  1  0.40000000  0.00000000  0.66570000  0.3333 0.0943308714
H  H782  1  0.60000000  0.00000000  0.33430000  0.3333 0.0943308714
H  H783  1  0.60000000  0.00000000  0.66570000  0.3333 0.0943308714
H  H784  1  0.40000000  0.00000000  0.33430000  0.3333 0.0943308714
H  H785  1  0.33430000  0.00000000  0.40000000  0.3333 0.0943308714
H  H786  1  0.66570000  0.00000000  0.60000000  0.3333 0.0943308714
H  H787  1  0.33430000  0.00000000  0.60000000  0.3333 0.0943308714
H  H788  1  0.66570000  0.00000000  0.40000000  0.3333 0.0943308714
H  H789  1  0.33430000  0.90000000  0.50000000  0.3333 0.0943308714
H  H790  1  0.66570000  0.10000000  0.50000000  0.3333 0.0943308714
H  H791  1  0.33430000  0.10000000  0.50000000  0.3333 0.0943308714
H  H792  1  0.66570000  0.90000000  0.50000000  0.3333 0.0943308714
C  C1  1  0.67820000  0.88640000  0.32180000  1.0 -0.0305279601
C  C2  1  0.32180000  0.11360000  0.32180000  1.0 -0.0305279601
C  C3  1  0.32180000  0.88640000  0.67820000  1.0 -0.0305279601
C  C4  1  0.67820000  0.11360000  0.67820000  1.0 -0.0305279601
C  C5  1  0.32180000  0.67820000  0.88640000  1.0 -0.0305279601
C  C6  1  0.32180000  0.32180000  0.11360000  1.0 -0.0305279601
C  C7  1  0.67820000  0.32180000  0.88640000  1.0 -0.0305279601
C  C8  1  0.67820000  0.67820000  0.11360000  1.0 -0.0305279601
C  C9  1  0.88640000  0.32180000  0.67820000  1.0 -0.0305279601
C  C10  1  0.11360000  0.32180000  0.32180000  1.0 -0.0305279601
C  C11  1  0.88640000  0.67820000  0.32180000  1.0 -0.0305279601
C  C12  1  0.11360000  0.67820000  0.67820000  1.0 -0.0305279601
C  C13  1  0.88640000  0.67820000  0.67820000  1.0 -0.0305279601
C  C14  1  0.11360000  0.32180000  0.67820000  1.0 -0.0305279601
C  C15  1  0.88640000  0.32180000  0.32180000  1.0 -0.0305279601
C  C16  1  0.11360000  0.67820000  0.32180000  1.0 -0.0305279601
C  C17  1  0.67820000  0.32180000  0.11360000  1.0 -0.0305279601
C  C18  1  0.32180000  0.32180000  0.88640000  1.0 -0.0305279601
C  C19  1  0.32180000  0.67820000  0.11360000  1.0 -0.0305279601
C  C20  1  0.67820000  0.67820000  0.88640000  1.0 -0.0305279601
C  C21  1  0.32180000  0.88640000  0.32180000  1.0 -0.0305279601
C  C22  1  0.32180000  0.11360000  0.67820000  1.0 -0.0305279601
C  C23  1  0.67820000  0.88640000  0.67820000  1.0 -0.0305279601
C  C24  1  0.67820000  0.11360000  0.32180000  1.0 -0.0305279601
C  C25  1  0.67820000  0.38640000  0.82180000  1.0 -0.0305279601
C  C26  1  0.32180000  0.61360000  0.82180000  1.0 -0.0305279601
C  C27  1  0.32180000  0.38640000  0.17820000  1.0 -0.0305279601
C  C28  1  0.67820000  0.61360000  0.17820000  1.0 -0.0305279601
C  C29  1  0.32180000  0.17820000  0.38640000  1.0 -0.0305279601
C  C30  1  0.32180000  0.82180000  0.61360000  1.0 -0.0305279601
C  C31  1  0.67820000  0.82180000  0.38640000  1.0 -0.0305279601
C  C32  1  0.67820000  0.17820000  0.61360000  1.0 -0.0305279601
C  C33  1  0.88640000  0.82180000  0.17820000  1.0 -0.0305279601
C  C34  1  0.11360000  0.82180000  0.82180000  1.0 -0.0305279601
C  C35  1  0.88640000  0.17820000  0.82180000  1.0 -0.0305279601
C  C36  1  0.11360000  0.17820000  0.17820000  1.0 -0.0305279601
C  C37  1  0.88640000  0.17820000  0.17820000  1.0 -0.0305279601
C  C38  1  0.11360000  0.82180000  0.17820000  1.0 -0.0305279601
C  C39  1  0.88640000  0.82180000  0.82180000  1.0 -0.0305279601
C  C40  1  0.11360000  0.17820000  0.82180000  1.0 -0.0305279601
C  C41  1  0.67820000  0.82180000  0.61360000  1.0 -0.0305279601
C  C42  1  0.32180000  0.82180000  0.38640000  1.0 -0.0305279601
C  C43  1  0.32180000  0.17820000  0.61360000  1.0 -0.0305279601
C  C44  1  0.67820000  0.17820000  0.38640000  1.0 -0.0305279601
C  C45  1  0.32180000  0.38640000  0.82180000  1.0 -0.0305279601
C  C46  1  0.32180000  0.61360000  0.17820000  1.0 -0.0305279601
C  C47  1  0.67820000  0.38640000  0.17820000  1.0 -0.0305279601
C  C48  1  0.67820000  0.61360000  0.82180000  1.0 -0.0305279601
C  C49  1  0.17820000  0.88640000  0.82180000  1.0 -0.0305279601
C  C50  1  0.82180000  0.11360000  0.82180000  1.0 -0.0305279601
C  C51  1  0.82180000  0.88640000  0.17820000  1.0 -0.0305279601
C  C52  1  0.17820000  0.11360000  0.17820000  1.0 -0.0305279601
C  C53  1  0.82180000  0.67820000  0.38640000  1.0 -0.0305279601
C  C54  1  0.82180000  0.32180000  0.61360000  1.0 -0.0305279601
C  C55  1  0.17820000  0.32180000  0.38640000  1.0 -0.0305279601
C  C56  1  0.17820000  0.67820000  0.61360000  1.0 -0.0305279601
C  C57  1  0.38640000  0.32180000  0.17820000  1.0 -0.0305279601
C  C58  1  0.61360000  0.32180000  0.82180000  1.0 -0.0305279601
C  C59  1  0.38640000  0.67820000  0.82180000  1.0 -0.0305279601
C  C60  1  0.61360000  0.67820000  0.17820000  1.0 -0.0305279601
C  C61  1  0.38640000  0.67820000  0.17820000  1.0 -0.0305279601
C  C62  1  0.61360000  0.32180000  0.17820000  1.0 -0.0305279601
C  C63  1  0.38640000  0.32180000  0.82180000  1.0 -0.0305279601
C  C64  1  0.61360000  0.67820000  0.82180000  1.0 -0.0305279601
C  C65  1  0.17820000  0.32180000  0.61360000  1.0 -0.0305279601
C  C66  1  0.82180000  0.32180000  0.38640000  1.0 -0.0305279601
C  C67  1  0.82180000  0.67820000  0.61360000  1.0 -0.0305279601
C  C68  1  0.17820000  0.67820000  0.38640000  1.0 -0.0305279601
C  C69  1  0.82180000  0.88640000  0.82180000  1.0 -0.0305279601
C  C70  1  0.82180000  0.11360000  0.17820000  1.0 -0.0305279601
C  C71  1  0.17820000  0.88640000  0.17820000  1.0 -0.0305279601
C  C72  1  0.17820000  0.11360000  0.82180000  1.0 -0.0305279601
C  C73  1  0.17820000  0.38640000  0.32180000  1.0 -0.0305279601
C  C74  1  0.82180000  0.61360000  0.32180000  1.0 -0.0305279601
C  C75  1  0.82180000  0.38640000  0.67820000  1.0 -0.0305279601
C  C76  1  0.17820000  0.61360000  0.67820000  1.0 -0.0305279601
C  C77  1  0.82180000  0.17820000  0.88640000  1.0 -0.0305279601
C  C78  1  0.82180000  0.82180000  0.11360000  1.0 -0.0305279601
C  C79  1  0.17820000  0.82180000  0.88640000  1.0 -0.0305279601
C  C80  1  0.17820000  0.17820000  0.11360000  1.0 -0.0305279601
C  C81  1  0.38640000  0.82180000  0.67820000  1.0 -0.0305279601
C  C82  1  0.61360000  0.82180000  0.32180000  1.0 -0.0305279601
C  C83  1  0.38640000  0.17820000  0.32180000  1.0 -0.0305279601
C  C84  1  0.61360000  0.17820000  0.67820000  1.0 -0.0305279601
C  C85  1  0.38640000  0.17820000  0.67820000  1.0 -0.0305279601
C  C86  1  0.61360000  0.82180000  0.67820000  1.0 -0.0305279601
C  C87  1  0.38640000  0.82180000  0.32180000  1.0 -0.0305279601
C  C88  1  0.61360000  0.17820000  0.32180000  1.0 -0.0305279601
C  C89  1  0.17820000  0.82180000  0.11360000  1.0 -0.0305279601
C  C90  1  0.82180000  0.82180000  0.88640000  1.0 -0.0305279601
C  C91  1  0.82180000  0.17820000  0.11360000  1.0 -0.0305279601
C  C92  1  0.17820000  0.17820000  0.88640000  1.0 -0.0305279601
C  C93  1  0.82180000  0.38640000  0.32180000  1.0 -0.0305279601
C  C94  1  0.82180000  0.61360000  0.67820000  1.0 -0.0305279601
C  C95  1  0.17820000  0.38640000  0.67820000  1.0 -0.0305279601
C  C96  1  0.17820000  0.61360000  0.32180000  1.0 -0.0305279601
C  C97  1  0.63500000  0.86500000  0.30030000  1.0 -0.1028376177
C  C98  1  0.36500000  0.13500000  0.30030000  1.0 -0.1028376177
C  C99  1  0.36500000  0.86500000  0.69970000  1.0 -0.1028376177
C  C100  1  0.63500000  0.13500000  0.69970000  1.0 -0.1028376177
C  C101  1  0.30030000  0.63500000  0.86500000  1.0 -0.1028376177
C  C102  1  0.30030000  0.36500000  0.13500000  1.0 -0.1028376177
C  C103  1  0.69970000  0.36500000  0.86500000  1.0 -0.1028376177
C  C104  1  0.69970000  0.63500000  0.13500000  1.0 -0.1028376177
C  C105  1  0.86500000  0.30030000  0.63500000  1.0 -0.1028376177
C  C106  1  0.13500000  0.30030000  0.36500000  1.0 -0.1028376177
C  C107  1  0.86500000  0.69970000  0.36500000  1.0 -0.1028376177
C  C108  1  0.13500000  0.69970000  0.63500000  1.0 -0.1028376177
C  C109  1  0.86500000  0.63500000  0.69970000  1.0 -0.1028376177
C  C110  1  0.13500000  0.36500000  0.69970000  1.0 -0.1028376177
C  C111  1  0.86500000  0.36500000  0.30030000  1.0 -0.1028376177
C  C112  1  0.13500000  0.63500000  0.30030000  1.0 -0.1028376177
C  C113  1  0.63500000  0.30030000  0.13500000  1.0 -0.1028376177
C  C114  1  0.36500000  0.30030000  0.86500000  1.0 -0.1028376177
C  C115  1  0.36500000  0.69970000  0.13500000  1.0 -0.1028376177
C  C116  1  0.63500000  0.69970000  0.86500000  1.0 -0.1028376177
C  C117  1  0.30030000  0.86500000  0.36500000  1.0 -0.1028376177
C  C118  1  0.30030000  0.13500000  0.63500000  1.0 -0.1028376177
C  C119  1  0.69970000  0.86500000  0.63500000  1.0 -0.1028376177
C  C120  1  0.69970000  0.13500000  0.36500000  1.0 -0.1028376177
C  C121  1  0.63500000  0.36500000  0.80030000  1.0 -0.1028376177
C  C122  1  0.36500000  0.63500000  0.80030000  1.0 -0.1028376177
C  C123  1  0.36500000  0.36500000  0.19970000  1.0 -0.1028376177
C  C124  1  0.63500000  0.63500000  0.19970000  1.0 -0.1028376177
C  C125  1  0.30030000  0.13500000  0.36500000  1.0 -0.1028376177
C  C126  1  0.30030000  0.86500000  0.63500000  1.0 -0.1028376177
C  C127  1  0.69970000  0.86500000  0.36500000  1.0 -0.1028376177
C  C128  1  0.69970000  0.13500000  0.63500000  1.0 -0.1028376177
C  C129  1  0.86500000  0.80030000  0.13500000  1.0 -0.1028376177
C  C130  1  0.13500000  0.80030000  0.86500000  1.0 -0.1028376177
C  C131  1  0.86500000  0.19970000  0.86500000  1.0 -0.1028376177
C  C132  1  0.13500000  0.19970000  0.13500000  1.0 -0.1028376177
C  C133  1  0.86500000  0.13500000  0.19970000  1.0 -0.1028376177
C  C134  1  0.13500000  0.86500000  0.19970000  1.0 -0.1028376177
C  C135  1  0.86500000  0.86500000  0.80030000  1.0 -0.1028376177
C  C136  1  0.13500000  0.13500000  0.80030000  1.0 -0.1028376177
C  C137  1  0.63500000  0.80030000  0.63500000  1.0 -0.1028376177
C  C138  1  0.36500000  0.80030000  0.36500000  1.0 -0.1028376177
C  C139  1  0.36500000  0.19970000  0.63500000  1.0 -0.1028376177
C  C140  1  0.63500000  0.19970000  0.36500000  1.0 -0.1028376177
C  C141  1  0.30030000  0.36500000  0.86500000  1.0 -0.1028376177
C  C142  1  0.30030000  0.63500000  0.13500000  1.0 -0.1028376177
C  C143  1  0.69970000  0.36500000  0.13500000  1.0 -0.1028376177
C  C144  1  0.69970000  0.63500000  0.86500000  1.0 -0.1028376177
C  C145  1  0.13500000  0.86500000  0.80030000  1.0 -0.1028376177
C  C146  1  0.86500000  0.13500000  0.80030000  1.0 -0.1028376177
C  C147  1  0.86500000  0.86500000  0.19970000  1.0 -0.1028376177
C  C148  1  0.13500000  0.13500000  0.19970000  1.0 -0.1028376177
C  C149  1  0.80030000  0.63500000  0.36500000  1.0 -0.1028376177
C  C150  1  0.80030000  0.36500000  0.63500000  1.0 -0.1028376177
C  C151  1  0.19970000  0.36500000  0.36500000  1.0 -0.1028376177
C  C152  1  0.19970000  0.63500000  0.63500000  1.0 -0.1028376177
C  C153  1  0.36500000  0.30030000  0.13500000  1.0 -0.1028376177
C  C154  1  0.63500000  0.30030000  0.86500000  1.0 -0.1028376177
C  C155  1  0.36500000  0.69970000  0.86500000  1.0 -0.1028376177
C  C156  1  0.63500000  0.69970000  0.13500000  1.0 -0.1028376177
C  C157  1  0.36500000  0.63500000  0.19970000  1.0 -0.1028376177
C  C158  1  0.63500000  0.36500000  0.19970000  1.0 -0.1028376177
C  C159  1  0.36500000  0.36500000  0.80030000  1.0 -0.1028376177
C  C160  1  0.63500000  0.63500000  0.80030000  1.0 -0.1028376177
C  C161  1  0.13500000  0.30030000  0.63500000  1.0 -0.1028376177
C  C162  1  0.86500000  0.30030000  0.36500000  1.0 -0.1028376177
C  C163  1  0.86500000  0.69970000  0.63500000  1.0 -0.1028376177
C  C164  1  0.13500000  0.69970000  0.36500000  1.0 -0.1028376177
C  C165  1  0.80030000  0.86500000  0.86500000  1.0 -0.1028376177
C  C166  1  0.80030000  0.13500000  0.13500000  1.0 -0.1028376177
C  C167  1  0.19970000  0.86500000  0.13500000  1.0 -0.1028376177
C  C168  1  0.19970000  0.13500000  0.86500000  1.0 -0.1028376177
C  C169  1  0.13500000  0.36500000  0.30030000  1.0 -0.1028376177
C  C170  1  0.86500000  0.63500000  0.30030000  1.0 -0.1028376177
C  C171  1  0.86500000  0.36500000  0.69970000  1.0 -0.1028376177
C  C172  1  0.13500000  0.63500000  0.69970000  1.0 -0.1028376177
C  C173  1  0.80030000  0.13500000  0.86500000  1.0 -0.1028376177
C  C174  1  0.80030000  0.86500000  0.13500000  1.0 -0.1028376177
C  C175  1  0.19970000  0.86500000  0.86500000  1.0 -0.1028376177
C  C176  1  0.19970000  0.13500000  0.13500000  1.0 -0.1028376177
C  C177  1  0.36500000  0.80030000  0.63500000  1.0 -0.1028376177
C  C178  1  0.63500000  0.80030000  0.36500000  1.0 -0.1028376177
C  C179  1  0.36500000  0.19970000  0.36500000  1.0 -0.1028376177
C  C180  1  0.63500000  0.19970000  0.63500000  1.0 -0.1028376177
C  C181  1  0.36500000  0.13500000  0.69970000  1.0 -0.1028376177
C  C182  1  0.63500000  0.86500000  0.69970000  1.0 -0.1028376177
C  C183  1  0.36500000  0.86500000  0.30030000  1.0 -0.1028376177
C  C184  1  0.63500000  0.13500000  0.30030000  1.0 -0.1028376177
C  C185  1  0.13500000  0.80030000  0.13500000  1.0 -0.1028376177
C  C186  1  0.86500000  0.80030000  0.86500000  1.0 -0.1028376177
C  C187  1  0.86500000  0.19970000  0.13500000  1.0 -0.1028376177
C  C188  1  0.13500000  0.19970000  0.86500000  1.0 -0.1028376177
C  C189  1  0.80030000  0.36500000  0.36500000  1.0 -0.1028376177
C  C190  1  0.80030000  0.63500000  0.63500000  1.0 -0.1028376177
C  C191  1  0.19970000  0.36500000  0.63500000  1.0 -0.1028376177
C  C192  1  0.19970000  0.63500000  0.36500000  1.0 -0.1028376177
C  C193  1  0.70270000  0.93080000  0.29730000  1.0 0.5609312459
C  C194  1  0.29730000  0.06920000  0.29730000  1.0 0.5609312459
C  C195  1  0.29730000  0.93080000  0.70270000  1.0 0.5609312459
C  C196  1  0.70270000  0.06920000  0.70270000  1.0 0.5609312459
C  C197  1  0.29730000  0.70270000  0.93080000  1.0 0.5609312459
C  C198  1  0.29730000  0.29730000  0.06920000  1.0 0.5609312459
C  C199  1  0.70270000  0.29730000  0.93080000  1.0 0.5609312459
C  C200  1  0.70270000  0.70270000  0.06920000  1.0 0.5609312459
C  C201  1  0.93080000  0.29730000  0.70270000  1.0 0.5609312459
C  C202  1  0.06920000  0.29730000  0.29730000  1.0 0.5609312459
C  C203  1  0.93080000  0.70270000  0.29730000  1.0 0.5609312459
C  C204  1  0.06920000  0.70270000  0.70270000  1.0 0.5609312459
C  C205  1  0.93080000  0.70270000  0.70270000  1.0 0.5609312459
C  C206  1  0.06920000  0.29730000  0.70270000  1.0 0.5609312459
C  C207  1  0.93080000  0.29730000  0.29730000  1.0 0.5609312459
C  C208  1  0.06920000  0.70270000  0.29730000  1.0 0.5609312459
C  C209  1  0.70270000  0.29730000  0.06920000  1.0 0.5609312459
C  C210  1  0.29730000  0.29730000  0.93080000  1.0 0.5609312459
C  C211  1  0.29730000  0.70270000  0.06920000  1.0 0.5609312459
C  C212  1  0.70270000  0.70270000  0.93080000  1.0 0.5609312459
C  C213  1  0.29730000  0.93080000  0.29730000  1.0 0.5609312459
C  C214  1  0.29730000  0.06920000  0.70270000  1.0 0.5609312459
C  C215  1  0.70270000  0.93080000  0.70270000  1.0 0.5609312459
C  C216  1  0.70270000  0.06920000  0.29730000  1.0 0.5609312459
C  C217  1  0.70270000  0.43080000  0.79730000  1.0 0.5609312459
C  C218  1  0.29730000  0.56920000  0.79730000  1.0 0.5609312459
C  C219  1  0.29730000  0.43080000  0.20270000  1.0 0.5609312459
C  C220  1  0.70270000  0.56920000  0.20270000  1.0 0.5609312459
C  C221  1  0.29730000  0.20270000  0.43080000  1.0 0.5609312459
C  C222  1  0.29730000  0.79730000  0.56920000  1.0 0.5609312459
C  C223  1  0.70270000  0.79730000  0.43080000  1.0 0.5609312459
C  C224  1  0.70270000  0.20270000  0.56920000  1.0 0.5609312459
C  C225  1  0.93080000  0.79730000  0.20270000  1.0 0.5609312459
C  C226  1  0.06920000  0.79730000  0.79730000  1.0 0.5609312459
C  C227  1  0.93080000  0.20270000  0.79730000  1.0 0.5609312459
C  C228  1  0.06920000  0.20270000  0.20270000  1.0 0.5609312459
C  C229  1  0.93080000  0.20270000  0.20270000  1.0 0.5609312459
C  C230  1  0.06920000  0.79730000  0.20270000  1.0 0.5609312459
C  C231  1  0.93080000  0.79730000  0.79730000  1.0 0.5609312459
C  C232  1  0.06920000  0.20270000  0.79730000  1.0 0.5609312459
C  C233  1  0.70270000  0.79730000  0.56920000  1.0 0.5609312459
C  C234  1  0.29730000  0.79730000  0.43080000  1.0 0.5609312459
C  C235  1  0.29730000  0.20270000  0.56920000  1.0 0.5609312459
C  C236  1  0.70270000  0.20270000  0.43080000  1.0 0.5609312459
C  C237  1  0.29730000  0.43080000  0.79730000  1.0 0.5609312459
C  C238  1  0.29730000  0.56920000  0.20270000  1.0 0.5609312459
C  C239  1  0.70270000  0.43080000  0.20270000  1.0 0.5609312459
C  C240  1  0.70270000  0.56920000  0.79730000  1.0 0.5609312459
C  C241  1  0.20270000  0.93080000  0.79730000  1.0 0.5609312459
C  C242  1  0.79730000  0.06920000  0.79730000  1.0 0.5609312459
C  C243  1  0.79730000  0.93080000  0.20270000  1.0 0.5609312459
C  C244  1  0.20270000  0.06920000  0.20270000  1.0 0.5609312459
C  C245  1  0.79730000  0.70270000  0.43080000  1.0 0.5609312459
C  C246  1  0.79730000  0.29730000  0.56920000  1.0 0.5609312459
C  C247  1  0.20270000  0.29730000  0.43080000  1.0 0.5609312459
C  C248  1  0.20270000  0.70270000  0.56920000  1.0 0.5609312459
C  C249  1  0.43080000  0.29730000  0.20270000  1.0 0.5609312459
C  C250  1  0.56920000  0.29730000  0.79730000  1.0 0.5609312459
C  C251  1  0.43080000  0.70270000  0.79730000  1.0 0.5609312459
C  C252  1  0.56920000  0.70270000  0.20270000  1.0 0.5609312459
C  C253  1  0.43080000  0.70270000  0.20270000  1.0 0.5609312459
C  C254  1  0.56920000  0.29730000  0.20270000  1.0 0.5609312459
C  C255  1  0.43080000  0.29730000  0.79730000  1.0 0.5609312459
C  C256  1  0.56920000  0.70270000  0.79730000  1.0 0.5609312459
C  C257  1  0.20270000  0.29730000  0.56920000  1.0 0.5609312459
C  C258  1  0.79730000  0.29730000  0.43080000  1.0 0.5609312459
C  C259  1  0.79730000  0.70270000  0.56920000  1.0 0.5609312459
C  C260  1  0.20270000  0.70270000  0.43080000  1.0 0.5609312459
C  C261  1  0.79730000  0.93080000  0.79730000  1.0 0.5609312459
C  C262  1  0.79730000  0.06920000  0.20270000  1.0 0.5609312459
C  C263  1  0.20270000  0.93080000  0.20270000  1.0 0.5609312459
C  C264  1  0.20270000  0.06920000  0.79730000  1.0 0.5609312459
C  C265  1  0.20270000  0.43080000  0.29730000  1.0 0.5609312459
C  C266  1  0.79730000  0.56920000  0.29730000  1.0 0.5609312459
C  C267  1  0.79730000  0.43080000  0.70270000  1.0 0.5609312459
C  C268  1  0.20270000  0.56920000  0.70270000  1.0 0.5609312459
C  C269  1  0.79730000  0.20270000  0.93080000  1.0 0.5609312459
C  C270  1  0.79730000  0.79730000  0.06920000  1.0 0.5609312459
C  C271  1  0.20270000  0.79730000  0.93080000  1.0 0.5609312459
C  C272  1  0.20270000  0.20270000  0.06920000  1.0 0.5609312459
C  C273  1  0.43080000  0.79730000  0.70270000  1.0 0.5609312459
C  C274  1  0.56920000  0.79730000  0.29730000  1.0 0.5609312459
C  C275  1  0.43080000  0.20270000  0.29730000  1.0 0.5609312459
C  C276  1  0.56920000  0.20270000  0.70270000  1.0 0.5609312459
C  C277  1  0.43080000  0.20270000  0.70270000  1.0 0.5609312459
C  C278  1  0.56920000  0.79730000  0.70270000  1.0 0.5609312459
C  C279  1  0.43080000  0.79730000  0.29730000  1.0 0.5609312459
C  C280  1  0.56920000  0.20270000  0.29730000  1.0 0.5609312459
C  C281  1  0.20270000  0.79730000  0.06920000  1.0 0.5609312459
C  C282  1  0.79730000  0.79730000  0.93080000  1.0 0.5609312459
C  C283  1  0.79730000  0.20270000  0.06920000  1.0 0.5609312459
C  C284  1  0.20270000  0.20270000  0.93080000  1.0 0.5609312459
C  C285  1  0.79730000  0.43080000  0.29730000  1.0 0.5609312459
C  C286  1  0.79730000  0.56920000  0.70270000  1.0 0.5609312459
C  C287  1  0.20270000  0.43080000  0.70270000  1.0 0.5609312459
C  C288  1  0.20270000  0.56920000  0.29730000  1.0 0.5609312459
C  C301  1  0.78910000  0.00900000  0.04410000  0.1667 -0.0443635071
C  C302  1  0.21090000  0.00900000  0.95590000  0.1667 -0.0443635071
C  C303  1  0.78910000  0.99100000  0.95590000  0.1667 -0.0443635071
C  C304  1  0.21090000  0.99100000  0.04410000  0.1667 -0.0443635071
C  C305  1  0.78910000  0.04410000  0.99100000  0.1667 -0.0443635071
C  C306  1  0.21090000  0.95590000  0.99100000  0.1667 -0.0443635071
C  C307  1  0.78910000  0.95590000  0.00900000  0.1667 -0.0443635071
C  C308  1  0.21090000  0.04410000  0.00900000  0.1667 -0.0443635071
C  C309  1  0.04410000  0.78910000  0.00900000  0.1667 -0.0443635071
C  C310  1  0.95590000  0.21090000  0.00900000  0.1667 -0.0443635071
C  C311  1  0.95590000  0.78910000  0.99100000  0.1667 -0.0443635071
C  C312  1  0.04410000  0.21090000  0.99100000  0.1667 -0.0443635071
C  C313  1  0.00900000  0.78910000  0.95590000  0.1667 -0.0443635071
C  C314  1  0.00900000  0.21090000  0.04410000  0.1667 -0.0443635071
C  C315  1  0.99100000  0.78910000  0.04410000  0.1667 -0.0443635071
C  C316  1  0.99100000  0.21090000  0.95590000  0.1667 -0.0443635071
C  C317  1  0.00900000  0.04410000  0.78910000  0.1667 -0.0443635071
C  C318  1  0.00900000  0.95590000  0.21090000  0.1667 -0.0443635071
C  C319  1  0.99100000  0.95590000  0.78910000  0.1667 -0.0443635071
C  C320  1  0.99100000  0.04410000  0.21090000  0.1667 -0.0443635071
C  C321  1  0.04410000  0.00900000  0.21090000  0.1667 -0.0443635071
C  C322  1  0.95590000  0.00900000  0.78910000  0.1667 -0.0443635071
C  C323  1  0.95590000  0.99100000  0.21090000  0.1667 -0.0443635071
C  C324  1  0.04410000  0.99100000  0.78910000  0.1667 -0.0443635071
C  C325  1  0.21090000  0.99100000  0.95590000  0.1667 -0.0443635071
C  C326  1  0.78910000  0.99100000  0.04410000  0.1667 -0.0443635071
C  C327  1  0.21090000  0.00900000  0.04410000  0.1667 -0.0443635071
C  C328  1  0.78910000  0.00900000  0.95590000  0.1667 -0.0443635071
C  C329  1  0.21090000  0.95590000  0.00900000  0.1667 -0.0443635071
C  C330  1  0.78910000  0.04410000  0.00900000  0.1667 -0.0443635071
C  C331  1  0.21090000  0.04410000  0.99100000  0.1667 -0.0443635071
C  C332  1  0.78910000  0.95590000  0.99100000  0.1667 -0.0443635071
C  C333  1  0.95590000  0.21090000  0.99100000  0.1667 -0.0443635071
C  C334  1  0.04410000  0.78910000  0.99100000  0.1667 -0.0443635071
C  C335  1  0.04410000  0.21090000  0.00900000  0.1667 -0.0443635071
C  C336  1  0.95590000  0.78910000  0.00900000  0.1667 -0.0443635071
C  C337  1  0.99100000  0.21090000  0.04410000  0.1667 -0.0443635071
C  C338  1  0.99100000  0.78910000  0.95590000  0.1667 -0.0443635071
C  C339  1  0.00900000  0.21090000  0.95590000  0.1667 -0.0443635071
C  C340  1  0.00900000  0.78910000  0.04410000  0.1667 -0.0443635071
C  C341  1  0.99100000  0.95590000  0.21090000  0.1667 -0.0443635071
C  C342  1  0.99100000  0.04410000  0.78910000  0.1667 -0.0443635071
C  C343  1  0.00900000  0.04410000  0.21090000  0.1667 -0.0443635071
C  C344  1  0.00900000  0.95590000  0.78910000  0.1667 -0.0443635071
C  C345  1  0.95590000  0.99100000  0.78910000  0.1667 -0.0443635071
C  C346  1  0.04410000  0.99100000  0.21090000  0.1667 -0.0443635071
C  C347  1  0.04410000  0.00900000  0.78910000  0.1667 -0.0443635071
C  C348  1  0.95590000  0.00900000  0.21090000  0.1667 -0.0443635071
C  C349  1  0.73820000  0.00800000  0.04250000  0.1667 -0.0305279601
C  C350  1  0.26180000  0.00800000  0.95750000  0.1667 -0.0305279601
C  C351  1  0.73820000  0.99200000  0.95750000  0.1667 -0.0305279601
C  C352  1  0.26180000  0.99200000  0.04250000  0.1667 -0.0305279601
C  C353  1  0.73820000  0.04250000  0.99200000  0.1667 -0.0305279601
C  C354  1  0.26180000  0.95750000  0.99200000  0.1667 -0.0305279601
C  C355  1  0.73820000  0.95750000  0.00800000  0.1667 -0.0305279601
C  C356  1  0.26180000  0.04250000  0.00800000  0.1667 -0.0305279601
C  C357  1  0.04250000  0.73820000  0.00800000  0.1667 -0.0305279601
C  C358  1  0.95750000  0.26180000  0.00800000  0.1667 -0.0305279601
C  C359  1  0.95750000  0.73820000  0.99200000  0.1667 -0.0305279601
C  C360  1  0.04250000  0.26180000  0.99200000  0.1667 -0.0305279601
C  C361  1  0.00800000  0.73820000  0.95750000  0.1667 -0.0305279601
C  C362  1  0.00800000  0.26180000  0.04250000  0.1667 -0.0305279601
C  C363  1  0.99200000  0.73820000  0.04250000  0.1667 -0.0305279601
C  C364  1  0.99200000  0.26180000  0.95750000  0.1667 -0.0305279601
C  C365  1  0.00800000  0.04250000  0.73820000  0.1667 -0.0305279601
C  C366  1  0.00800000  0.95750000  0.26180000  0.1667 -0.0305279601
C  C367  1  0.99200000  0.95750000  0.73820000  0.1667 -0.0305279601
C  C368  1  0.99200000  0.04250000  0.26180000  0.1667 -0.0305279601
C  C369  1  0.04250000  0.00800000  0.26180000  0.1667 -0.0305279601
C  C370  1  0.95750000  0.00800000  0.73820000  0.1667 -0.0305279601
C  C371  1  0.95750000  0.99200000  0.26180000  0.1667 -0.0305279601
C  C372  1  0.04250000  0.99200000  0.73820000  0.1667 -0.0305279601
C  C373  1  0.26180000  0.99200000  0.95750000  0.1667 -0.0305279601
C  C374  1  0.73820000  0.99200000  0.04250000  0.1667 -0.0305279601
C  C375  1  0.26180000  0.00800000  0.04250000  0.1667 -0.0305279601
C  C376  1  0.73820000  0.00800000  0.95750000  0.1667 -0.0305279601
C  C377  1  0.26180000  0.95750000  0.00800000  0.1667 -0.0305279601
C  C378  1  0.73820000  0.04250000  0.00800000  0.1667 -0.0305279601
C  C379  1  0.26180000  0.04250000  0.99200000  0.1667 -0.0305279601
C  C380  1  0.73820000  0.95750000  0.99200000  0.1667 -0.0305279601
C  C381  1  0.95750000  0.26180000  0.99200000  0.1667 -0.0305279601
C  C382  1  0.04250000  0.73820000  0.99200000  0.1667 -0.0305279601
C  C383  1  0.04250000  0.26180000  0.00800000  0.1667 -0.0305279601
C  C384  1  0.95750000  0.73820000  0.00800000  0.1667 -0.0305279601
C  C385  1  0.99200000  0.26180000  0.04250000  0.1667 -0.0305279601
C  C386  1  0.99200000  0.73820000  0.95750000  0.1667 -0.0305279601
C  C387  1  0.00800000  0.26180000  0.95750000  0.1667 -0.0305279601
C  C388  1  0.00800000  0.73820000  0.04250000  0.1667 -0.0305279601
C  C389  1  0.99200000  0.95750000  0.26180000  0.1667 -0.0305279601
C  C390  1  0.99200000  0.04250000  0.73820000  0.1667 -0.0305279601
C  C391  1  0.00800000  0.04250000  0.26180000  0.1667 -0.0305279601
C  C392  1  0.00800000  0.95750000  0.73820000  0.1667 -0.0305279601
C  C393  1  0.95750000  0.99200000  0.73820000  0.1667 -0.0305279601
C  C394  1  0.04250000  0.99200000  0.26180000  0.1667 -0.0305279601
C  C395  1  0.04250000  0.00800000  0.73820000  0.1667 -0.0305279601
C  C396  1  0.95750000  0.00800000  0.26180000  0.1667 -0.0305279601
C  C463  1  0.78910000  0.50900000  0.54410000  0.1667 -0.0443635071
C  C464  1  0.21090000  0.50900000  0.45590000  0.1667 -0.0443635071
C  C465  1  0.78910000  0.49100000  0.45590000  0.1667 -0.0443635071
C  C466  1  0.21090000  0.49100000  0.54410000  0.1667 -0.0443635071
C  C467  1  0.78910000  0.54410000  0.49100000  0.1667 -0.0443635071
C  C468  1  0.21090000  0.45590000  0.49100000  0.1667 -0.0443635071
C  C469  1  0.78910000  0.45590000  0.50900000  0.1667 -0.0443635071
C  C470  1  0.21090000  0.54410000  0.50900000  0.1667 -0.0443635071
C  C471  1  0.00900000  0.54410000  0.28910000  0.1667 -0.0443635071
C  C472  1  0.00900000  0.45590000  0.71090000  0.1667 -0.0443635071
C  C473  1  0.99100000  0.45590000  0.28910000  0.1667 -0.0443635071
C  C474  1  0.99100000  0.54410000  0.71090000  0.1667 -0.0443635071
C  C475  1  0.04410000  0.50900000  0.71090000  0.1667 -0.0443635071
C  C476  1  0.95590000  0.50900000  0.28910000  0.1667 -0.0443635071
C  C477  1  0.95590000  0.49100000  0.71090000  0.1667 -0.0443635071
C  C478  1  0.04410000  0.49100000  0.28910000  0.1667 -0.0443635071
C  C479  1  0.04410000  0.28910000  0.50900000  0.1667 -0.0443635071
C  C480  1  0.95590000  0.71090000  0.50900000  0.1667 -0.0443635071
C  C481  1  0.95590000  0.28910000  0.49100000  0.1667 -0.0443635071
C  C482  1  0.04410000  0.71090000  0.49100000  0.1667 -0.0443635071
C  C483  1  0.00900000  0.28910000  0.45590000  0.1667 -0.0443635071
C  C484  1  0.00900000  0.71090000  0.54410000  0.1667 -0.0443635071
C  C485  1  0.99100000  0.28910000  0.54410000  0.1667 -0.0443635071
C  C486  1  0.99100000  0.71090000  0.45590000  0.1667 -0.0443635071
C  C487  1  0.21090000  0.49100000  0.45590000  0.1667 -0.0443635071
C  C488  1  0.78910000  0.49100000  0.54410000  0.1667 -0.0443635071
C  C489  1  0.21090000  0.50900000  0.54410000  0.1667 -0.0443635071
C  C490  1  0.78910000  0.50900000  0.45590000  0.1667 -0.0443635071
C  C491  1  0.21090000  0.45590000  0.50900000  0.1667 -0.0443635071
C  C492  1  0.78910000  0.54410000  0.50900000  0.1667 -0.0443635071
C  C493  1  0.21090000  0.54410000  0.49100000  0.1667 -0.0443635071
C  C494  1  0.78910000  0.45590000  0.49100000  0.1667 -0.0443635071
C  C495  1  0.99100000  0.45590000  0.71090000  0.1667 -0.0443635071
C  C496  1  0.99100000  0.54410000  0.28910000  0.1667 -0.0443635071
C  C497  1  0.00900000  0.54410000  0.71090000  0.1667 -0.0443635071
C  C498  1  0.00900000  0.45590000  0.28910000  0.1667 -0.0443635071
C  C499  1  0.95590000  0.49100000  0.28910000  0.1667 -0.0443635071
C  C500  1  0.04410000  0.49100000  0.71090000  0.1667 -0.0443635071
C  C501  1  0.04410000  0.50900000  0.28910000  0.1667 -0.0443635071
C  C502  1  0.95590000  0.50900000  0.71090000  0.1667 -0.0443635071
C  C503  1  0.95590000  0.71090000  0.49100000  0.1667 -0.0443635071
C  C504  1  0.04410000  0.28910000  0.49100000  0.1667 -0.0443635071
C  C505  1  0.04410000  0.71090000  0.50900000  0.1667 -0.0443635071
C  C506  1  0.95590000  0.28910000  0.50900000  0.1667 -0.0443635071
C  C507  1  0.99100000  0.71090000  0.54410000  0.1667 -0.0443635071
C  C508  1  0.99100000  0.28910000  0.45590000  0.1667 -0.0443635071
C  C509  1  0.00900000  0.71090000  0.45590000  0.1667 -0.0443635071
C  C510  1  0.00900000  0.28910000  0.54410000  0.1667 -0.0443635071
C  C511  1  0.73820000  0.50800000  0.54250000  0.1667 -0.0305279601
C  C512  1  0.26180000  0.50800000  0.45750000  0.1667 -0.0305279601
C  C513  1  0.73820000  0.49200000  0.45750000  0.1667 -0.0305279601
C  C514  1  0.26180000  0.49200000  0.54250000  0.1667 -0.0305279601
C  C515  1  0.73820000  0.54250000  0.49200000  0.1667 -0.0305279601
C  C516  1  0.26180000  0.45750000  0.49200000  0.1667 -0.0305279601
C  C517  1  0.73820000  0.45750000  0.50800000  0.1667 -0.0305279601
C  C518  1  0.26180000  0.54250000  0.50800000  0.1667 -0.0305279601
C  C519  1  0.00800000  0.54250000  0.23820000  0.1667 -0.0305279601
C  C520  1  0.00800000  0.45750000  0.76180000  0.1667 -0.0305279601
C  C521  1  0.99200000  0.45750000  0.23820000  0.1667 -0.0305279601
C  C522  1  0.99200000  0.54250000  0.76180000  0.1667 -0.0305279601
C  C523  1  0.04250000  0.50800000  0.76180000  0.1667 -0.0305279601
C  C524  1  0.95750000  0.50800000  0.23820000  0.1667 -0.0305279601
C  C525  1  0.95750000  0.49200000  0.76180000  0.1667 -0.0305279601
C  C526  1  0.04250000  0.49200000  0.23820000  0.1667 -0.0305279601
C  C527  1  0.04250000  0.23820000  0.50800000  0.1667 -0.0305279601
C  C528  1  0.95750000  0.76180000  0.50800000  0.1667 -0.0305279601
C  C529  1  0.95750000  0.23820000  0.49200000  0.1667 -0.0305279601
C  C530  1  0.04250000  0.76180000  0.49200000  0.1667 -0.0305279601
C  C531  1  0.00800000  0.23820000  0.45750000  0.1667 -0.0305279601
C  C532  1  0.00800000  0.76180000  0.54250000  0.1667 -0.0305279601
C  C533  1  0.99200000  0.23820000  0.54250000  0.1667 -0.0305279601
C  C534  1  0.99200000  0.76180000  0.45750000  0.1667 -0.0305279601
C  C535  1  0.26180000  0.49200000  0.45750000  0.1667 -0.0305279601
C  C536  1  0.73820000  0.49200000  0.54250000  0.1667 -0.0305279601
C  C537  1  0.26180000  0.50800000  0.54250000  0.1667 -0.0305279601
C  C538  1  0.73820000  0.50800000  0.45750000  0.1667 -0.0305279601
C  C539  1  0.26180000  0.45750000  0.50800000  0.1667 -0.0305279601
C  C540  1  0.73820000  0.54250000  0.50800000  0.1667 -0.0305279601
C  C541  1  0.26180000  0.54250000  0.49200000  0.1667 -0.0305279601
C  C542  1  0.73820000  0.45750000  0.49200000  0.1667 -0.0305279601
C  C543  1  0.99200000  0.45750000  0.76180000  0.1667 -0.0305279601
C  C544  1  0.99200000  0.54250000  0.23820000  0.1667 -0.0305279601
C  C545  1  0.00800000  0.54250000  0.76180000  0.1667 -0.0305279601
C  C546  1  0.00800000  0.45750000  0.23820000  0.1667 -0.0305279601
C  C547  1  0.95750000  0.49200000  0.23820000  0.1667 -0.0305279601
C  C548  1  0.04250000  0.49200000  0.76180000  0.1667 -0.0305279601
C  C549  1  0.04250000  0.50800000  0.23820000  0.1667 -0.0305279601
C  C550  1  0.95750000  0.50800000  0.76180000  0.1667 -0.0305279601
C  C551  1  0.95750000  0.76180000  0.49200000  0.1667 -0.0305279601
C  C552  1  0.04250000  0.23820000  0.49200000  0.1667 -0.0305279601
C  C553  1  0.04250000  0.76180000  0.50800000  0.1667 -0.0305279601
C  C554  1  0.95750000  0.23820000  0.50800000  0.1667 -0.0305279601
C  C555  1  0.99200000  0.76180000  0.54250000  0.1667 -0.0305279601
C  C556  1  0.99200000  0.23820000  0.45750000  0.1667 -0.0305279601
C  C557  1  0.00800000  0.76180000  0.45750000  0.1667 -0.0305279601
C  C558  1  0.00800000  0.23820000  0.54250000  0.1667 -0.0305279601
C  C625  1  0.50900000  0.54410000  0.78910000  0.1667 -0.0443635071
C  C626  1  0.50900000  0.45590000  0.21090000  0.1667 -0.0443635071
C  C627  1  0.49100000  0.45590000  0.78910000  0.1667 -0.0443635071
C  C628  1  0.49100000  0.54410000  0.21090000  0.1667 -0.0443635071
C  C629  1  0.54410000  0.50900000  0.21090000  0.1667 -0.0443635071
C  C630  1  0.45590000  0.50900000  0.78910000  0.1667 -0.0443635071
C  C631  1  0.45590000  0.49100000  0.21090000  0.1667 -0.0443635071
C  C632  1  0.54410000  0.49100000  0.78910000  0.1667 -0.0443635071
C  C633  1  0.54410000  0.28910000  0.00900000  0.1667 -0.0443635071
C  C634  1  0.45590000  0.71090000  0.00900000  0.1667 -0.0443635071
C  C635  1  0.45590000  0.28910000  0.99100000  0.1667 -0.0443635071
C  C636  1  0.54410000  0.71090000  0.99100000  0.1667 -0.0443635071
C  C637  1  0.50900000  0.28910000  0.95590000  0.1667 -0.0443635071
C  C638  1  0.50900000  0.71090000  0.04410000  0.1667 -0.0443635071
C  C639  1  0.49100000  0.28910000  0.04410000  0.1667 -0.0443635071
C  C640  1  0.49100000  0.71090000  0.95590000  0.1667 -0.0443635071
C  C641  1  0.28910000  0.50900000  0.04410000  0.1667 -0.0443635071
C  C642  1  0.71090000  0.50900000  0.95590000  0.1667 -0.0443635071
C  C643  1  0.28910000  0.49100000  0.95590000  0.1667 -0.0443635071
C  C644  1  0.71090000  0.49100000  0.04410000  0.1667 -0.0443635071
C  C645  1  0.28910000  0.54410000  0.99100000  0.1667 -0.0443635071
C  C646  1  0.71090000  0.45590000  0.99100000  0.1667 -0.0443635071
C  C647  1  0.28910000  0.45590000  0.00900000  0.1667 -0.0443635071
C  C648  1  0.71090000  0.54410000  0.00900000  0.1667 -0.0443635071
C  C649  1  0.49100000  0.45590000  0.21090000  0.1667 -0.0443635071
C  C650  1  0.49100000  0.54410000  0.78910000  0.1667 -0.0443635071
C  C651  1  0.50900000  0.54410000  0.21090000  0.1667 -0.0443635071
C  C652  1  0.50900000  0.45590000  0.78910000  0.1667 -0.0443635071
C  C653  1  0.45590000  0.49100000  0.78910000  0.1667 -0.0443635071
C  C654  1  0.54410000  0.49100000  0.21090000  0.1667 -0.0443635071
C  C655  1  0.54410000  0.50900000  0.78910000  0.1667 -0.0443635071
C  C656  1  0.45590000  0.50900000  0.21090000  0.1667 -0.0443635071
C  C657  1  0.45590000  0.71090000  0.99100000  0.1667 -0.0443635071
C  C658  1  0.54410000  0.28910000  0.99100000  0.1667 -0.0443635071
C  C659  1  0.54410000  0.71090000  0.00900000  0.1667 -0.0443635071
C  C660  1  0.45590000  0.28910000  0.00900000  0.1667 -0.0443635071
C  C661  1  0.49100000  0.71090000  0.04410000  0.1667 -0.0443635071
C  C662  1  0.49100000  0.28910000  0.95590000  0.1667 -0.0443635071
C  C663  1  0.50900000  0.71090000  0.95590000  0.1667 -0.0443635071
C  C664  1  0.50900000  0.28910000  0.04410000  0.1667 -0.0443635071
C  C665  1  0.71090000  0.49100000  0.95590000  0.1667 -0.0443635071
C  C666  1  0.28910000  0.49100000  0.04410000  0.1667 -0.0443635071
C  C667  1  0.71090000  0.50900000  0.04410000  0.1667 -0.0443635071
C  C668  1  0.28910000  0.50900000  0.95590000  0.1667 -0.0443635071
C  C669  1  0.71090000  0.45590000  0.00900000  0.1667 -0.0443635071
C  C670  1  0.28910000  0.54410000  0.00900000  0.1667 -0.0443635071
C  C671  1  0.71090000  0.54410000  0.99100000  0.1667 -0.0443635071
C  C672  1  0.28910000  0.45590000  0.99100000  0.1667 -0.0443635071
C  C673  1  0.50800000  0.54250000  0.73820000  0.1667 -0.0305279601
C  C674  1  0.50800000  0.45750000  0.26180000  0.1667 -0.0305279601
C  C675  1  0.49200000  0.45750000  0.73820000  0.1667 -0.0305279601
C  C676  1  0.49200000  0.54250000  0.26180000  0.1667 -0.0305279601
C  C677  1  0.54250000  0.50800000  0.26180000  0.1667 -0.0305279601
C  C678  1  0.45750000  0.50800000  0.73820000  0.1667 -0.0305279601
C  C679  1  0.45750000  0.49200000  0.26180000  0.1667 -0.0305279601
C  C680  1  0.54250000  0.49200000  0.73820000  0.1667 -0.0305279601
C  C681  1  0.54250000  0.23820000  0.00800000  0.1667 -0.0305279601
C  C682  1  0.45750000  0.76180000  0.00800000  0.1667 -0.0305279601
C  C683  1  0.45750000  0.23820000  0.99200000  0.1667 -0.0305279601
C  C684  1  0.54250000  0.76180000  0.99200000  0.1667 -0.0305279601
C  C685  1  0.50800000  0.23820000  0.95750000  0.1667 -0.0305279601
C  C686  1  0.50800000  0.76180000  0.04250000  0.1667 -0.0305279601
C  C687  1  0.49200000  0.23820000  0.04250000  0.1667 -0.0305279601
C  C688  1  0.49200000  0.76180000  0.95750000  0.1667 -0.0305279601
C  C689  1  0.23820000  0.50800000  0.04250000  0.1667 -0.0305279601
C  C690  1  0.76180000  0.50800000  0.95750000  0.1667 -0.0305279601
C  C691  1  0.23820000  0.49200000  0.95750000  0.1667 -0.0305279601
C  C692  1  0.76180000  0.49200000  0.04250000  0.1667 -0.0305279601
C  C693  1  0.23820000  0.54250000  0.99200000  0.1667 -0.0305279601
C  C694  1  0.76180000  0.45750000  0.99200000  0.1667 -0.0305279601
C  C695  1  0.23820000  0.45750000  0.00800000  0.1667 -0.0305279601
C  C696  1  0.76180000  0.54250000  0.00800000  0.1667 -0.0305279601
C  C697  1  0.49200000  0.45750000  0.26180000  0.1667 -0.0305279601
C  C698  1  0.49200000  0.54250000  0.73820000  0.1667 -0.0305279601
C  C699  1  0.50800000  0.54250000  0.26180000  0.1667 -0.0305279601
C  C700  1  0.50800000  0.45750000  0.73820000  0.1667 -0.0305279601
C  C701  1  0.45750000  0.49200000  0.73820000  0.1667 -0.0305279601
C  C702  1  0.54250000  0.49200000  0.26180000  0.1667 -0.0305279601
C  C703  1  0.54250000  0.50800000  0.73820000  0.1667 -0.0305279601
C  C704  1  0.45750000  0.50800000  0.26180000  0.1667 -0.0305279601
C  C705  1  0.45750000  0.76180000  0.99200000  0.1667 -0.0305279601
C  C706  1  0.54250000  0.23820000  0.99200000  0.1667 -0.0305279601
C  C707  1  0.54250000  0.76180000  0.00800000  0.1667 -0.0305279601
C  C708  1  0.45750000  0.23820000  0.00800000  0.1667 -0.0305279601
C  C709  1  0.49200000  0.76180000  0.04250000  0.1667 -0.0305279601
C  C710  1  0.49200000  0.23820000  0.95750000  0.1667 -0.0305279601
C  C711  1  0.50800000  0.76180000  0.95750000  0.1667 -0.0305279601
C  C712  1  0.50800000  0.23820000  0.04250000  0.1667 -0.0305279601
C  C713  1  0.76180000  0.49200000  0.95750000  0.1667 -0.0305279601
C  C714  1  0.23820000  0.49200000  0.04250000  0.1667 -0.0305279601
C  C715  1  0.76180000  0.50800000  0.04250000  0.1667 -0.0305279601
C  C716  1  0.23820000  0.50800000  0.95750000  0.1667 -0.0305279601
C  C717  1  0.76180000  0.45750000  0.00800000  0.1667 -0.0305279601
C  C718  1  0.23820000  0.54250000  0.00800000  0.1667 -0.0305279601
C  C719  1  0.76180000  0.54250000  0.99200000  0.1667 -0.0305279601
C  C720  1  0.23820000  0.45750000  0.99200000  0.1667 -0.0305279601
C  C787  1  0.54410000  0.78910000  0.50900000  0.1667 -0.0443635071
C  C788  1  0.45590000  0.21090000  0.50900000  0.1667 -0.0443635071
C  C789  1  0.45590000  0.78910000  0.49100000  0.1667 -0.0443635071
C  C790  1  0.54410000  0.21090000  0.49100000  0.1667 -0.0443635071
C  C791  1  0.50900000  0.78910000  0.45590000  0.1667 -0.0443635071
C  C792  1  0.50900000  0.21090000  0.54410000  0.1667 -0.0443635071
C  C793  1  0.49100000  0.78910000  0.54410000  0.1667 -0.0443635071
C  C794  1  0.49100000  0.21090000  0.45590000  0.1667 -0.0443635071
C  C795  1  0.50900000  0.04410000  0.28910000  0.1667 -0.0443635071
C  C796  1  0.50900000  0.95590000  0.71090000  0.1667 -0.0443635071
C  C797  1  0.49100000  0.95590000  0.28910000  0.1667 -0.0443635071
C  C798  1  0.49100000  0.04410000  0.71090000  0.1667 -0.0443635071
C  C799  1  0.54410000  0.00900000  0.71090000  0.1667 -0.0443635071
C  C800  1  0.45590000  0.00900000  0.28910000  0.1667 -0.0443635071
C  C801  1  0.45590000  0.99100000  0.71090000  0.1667 -0.0443635071
C  C802  1  0.54410000  0.99100000  0.28910000  0.1667 -0.0443635071
C  C803  1  0.28910000  0.00900000  0.54410000  0.1667 -0.0443635071
C  C804  1  0.71090000  0.00900000  0.45590000  0.1667 -0.0443635071
C  C805  1  0.28910000  0.99100000  0.45590000  0.1667 -0.0443635071
C  C806  1  0.71090000  0.99100000  0.54410000  0.1667 -0.0443635071
C  C807  1  0.28910000  0.04410000  0.49100000  0.1667 -0.0443635071
C  C808  1  0.71090000  0.95590000  0.49100000  0.1667 -0.0443635071
C  C809  1  0.28910000  0.95590000  0.50900000  0.1667 -0.0443635071
C  C810  1  0.71090000  0.04410000  0.50900000  0.1667 -0.0443635071
C  C811  1  0.45590000  0.21090000  0.49100000  0.1667 -0.0443635071
C  C812  1  0.54410000  0.78910000  0.49100000  0.1667 -0.0443635071
C  C813  1  0.54410000  0.21090000  0.50900000  0.1667 -0.0443635071
C  C814  1  0.45590000  0.78910000  0.50900000  0.1667 -0.0443635071
C  C815  1  0.49100000  0.21090000  0.54410000  0.1667 -0.0443635071
C  C816  1  0.49100000  0.78910000  0.45590000  0.1667 -0.0443635071
C  C817  1  0.50900000  0.21090000  0.45590000  0.1667 -0.0443635071
C  C818  1  0.50900000  0.78910000  0.54410000  0.1667 -0.0443635071
C  C819  1  0.49100000  0.95590000  0.71090000  0.1667 -0.0443635071
C  C820  1  0.49100000  0.04410000  0.28910000  0.1667 -0.0443635071
C  C821  1  0.50900000  0.04410000  0.71090000  0.1667 -0.0443635071
C  C822  1  0.50900000  0.95590000  0.28910000  0.1667 -0.0443635071
C  C823  1  0.45590000  0.99100000  0.28910000  0.1667 -0.0443635071
C  C824  1  0.54410000  0.99100000  0.71090000  0.1667 -0.0443635071
C  C825  1  0.54410000  0.00900000  0.28910000  0.1667 -0.0443635071
C  C826  1  0.45590000  0.00900000  0.71090000  0.1667 -0.0443635071
C  C827  1  0.71090000  0.99100000  0.45590000  0.1667 -0.0443635071
C  C828  1  0.28910000  0.99100000  0.54410000  0.1667 -0.0443635071
C  C829  1  0.71090000  0.00900000  0.54410000  0.1667 -0.0443635071
C  C830  1  0.28910000  0.00900000  0.45590000  0.1667 -0.0443635071
C  C831  1  0.71090000  0.95590000  0.50900000  0.1667 -0.0443635071
C  C832  1  0.28910000  0.04410000  0.50900000  0.1667 -0.0443635071
C  C833  1  0.71090000  0.04410000  0.49100000  0.1667 -0.0443635071
C  C834  1  0.28910000  0.95590000  0.49100000  0.1667 -0.0443635071
C  C835  1  0.54250000  0.73820000  0.50800000  0.1667 -0.0305279601
C  C836  1  0.45750000  0.26180000  0.50800000  0.1667 -0.0305279601
C  C837  1  0.45750000  0.73820000  0.49200000  0.1667 -0.0305279601
C  C838  1  0.54250000  0.26180000  0.49200000  0.1667 -0.0305279601
C  C839  1  0.50800000  0.73820000  0.45750000  0.1667 -0.0305279601
C  C840  1  0.50800000  0.26180000  0.54250000  0.1667 -0.0305279601
C  C841  1  0.49200000  0.73820000  0.54250000  0.1667 -0.0305279601
C  C842  1  0.49200000  0.26180000  0.45750000  0.1667 -0.0305279601
C  C843  1  0.50800000  0.04250000  0.23820000  0.1667 -0.0305279601
C  C844  1  0.50800000  0.95750000  0.76180000  0.1667 -0.0305279601
C  C845  1  0.49200000  0.95750000  0.23820000  0.1667 -0.0305279601
C  C846  1  0.49200000  0.04250000  0.76180000  0.1667 -0.0305279601
C  C847  1  0.54250000  0.00800000  0.76180000  0.1667 -0.0305279601
C  C848  1  0.45750000  0.00800000  0.23820000  0.1667 -0.0305279601
C  C849  1  0.45750000  0.99200000  0.76180000  0.1667 -0.0305279601
C  C850  1  0.54250000  0.99200000  0.23820000  0.1667 -0.0305279601
C  C851  1  0.23820000  0.00800000  0.54250000  0.1667 -0.0305279601
C  C852  1  0.76180000  0.00800000  0.45750000  0.1667 -0.0305279601
C  C853  1  0.23820000  0.99200000  0.45750000  0.1667 -0.0305279601
C  C854  1  0.76180000  0.99200000  0.54250000  0.1667 -0.0305279601
C  C855  1  0.23820000  0.04250000  0.49200000  0.1667 -0.0305279601
C  C856  1  0.76180000  0.95750000  0.49200000  0.1667 -0.0305279601
C  C857  1  0.23820000  0.95750000  0.50800000  0.1667 -0.0305279601
C  C858  1  0.76180000  0.04250000  0.50800000  0.1667 -0.0305279601
C  C859  1  0.45750000  0.26180000  0.49200000  0.1667 -0.0305279601
C  C860  1  0.54250000  0.73820000  0.49200000  0.1667 -0.0305279601
C  C861  1  0.54250000  0.26180000  0.50800000  0.1667 -0.0305279601
C  C862  1  0.45750000  0.73820000  0.50800000  0.1667 -0.0305279601
C  C863  1  0.49200000  0.26180000  0.54250000  0.1667 -0.0305279601
C  C864  1  0.49200000  0.73820000  0.45750000  0.1667 -0.0305279601
C  C865  1  0.50800000  0.26180000  0.45750000  0.1667 -0.0305279601
C  C866  1  0.50800000  0.73820000  0.54250000  0.1667 -0.0305279601
C  C867  1  0.49200000  0.95750000  0.76180000  0.1667 -0.0305279601
C  C868  1  0.49200000  0.04250000  0.23820000  0.1667 -0.0305279601
C  C869  1  0.50800000  0.04250000  0.76180000  0.1667 -0.0305279601
C  C870  1  0.50800000  0.95750000  0.23820000  0.1667 -0.0305279601
C  C871  1  0.45750000  0.99200000  0.23820000  0.1667 -0.0305279601
C  C872  1  0.54250000  0.99200000  0.76180000  0.1667 -0.0305279601
C  C873  1  0.54250000  0.00800000  0.23820000  0.1667 -0.0305279601
C  C874  1  0.45750000  0.00800000  0.76180000  0.1667 -0.0305279601
C  C875  1  0.76180000  0.99200000  0.45750000  0.1667 -0.0305279601
C  C876  1  0.23820000  0.99200000  0.54250000  0.1667 -0.0305279601
C  C877  1  0.76180000  0.00800000  0.54250000  0.1667 -0.0305279601
C  C878  1  0.23820000  0.00800000  0.45750000  0.1667 -0.0305279601
C  C879  1  0.76180000  0.95750000  0.50800000  0.1667 -0.0305279601
C  C880  1  0.23820000  0.04250000  0.50800000  0.1667 -0.0305279601
C  C881  1  0.76180000  0.04250000  0.49200000  0.1667 -0.0305279601
C  C882  1  0.23820000  0.95750000  0.49200000  0.1667 -0.0305279601
C  C397  1  0.89350000  0.00000000  0.95280000  0.3333 0.074952866
C  C398  1  0.10650000  0.00000000  0.04720000  0.3333 0.074952866
C  C399  1  0.89350000  0.00000000  0.04720000  0.3333 0.074952866
C  C400  1  0.10650000  0.00000000  0.95280000  0.3333 0.074952866
C  C401  1  0.89350000  0.95280000  0.00000000  0.3333 0.074952866
C  C402  1  0.10650000  0.04720000  0.00000000  0.3333 0.074952866
C  C403  1  0.89350000  0.04720000  0.00000000  0.3333 0.074952866
C  C404  1  0.10650000  0.95280000  0.00000000  0.3333 0.074952866
C  C405  1  0.95280000  0.89350000  0.00000000  0.3333 0.074952866
C  C406  1  0.04720000  0.10650000  0.00000000  0.3333 0.074952866
C  C407  1  0.04720000  0.89350000  0.00000000  0.3333 0.074952866
C  C408  1  0.95280000  0.10650000  0.00000000  0.3333 0.074952866
C  C409  1  0.00000000  0.89350000  0.04720000  0.3333 0.074952866
C  C410  1  0.00000000  0.10650000  0.95280000  0.3333 0.074952866
C  C411  1  0.00000000  0.89350000  0.95280000  0.3333 0.074952866
C  C412  1  0.00000000  0.10650000  0.04720000  0.3333 0.074952866
C  C413  1  0.00000000  0.95280000  0.89350000  0.3333 0.074952866
C  C414  1  0.00000000  0.04720000  0.10650000  0.3333 0.074952866
C  C415  1  0.00000000  0.04720000  0.89350000  0.3333 0.074952866
C  C416  1  0.00000000  0.95280000  0.10650000  0.3333 0.074952866
C  C417  1  0.95280000  0.00000000  0.10650000  0.3333 0.074952866
C  C418  1  0.04720000  0.00000000  0.89350000  0.3333 0.074952866
C  C419  1  0.04720000  0.00000000  0.10650000  0.3333 0.074952866
C  C420  1  0.95280000  0.00000000  0.89350000  0.3333 0.074952866
C  C421  1  0.86930000  0.00000000  0.90530000  0.3333 -0.1762370922
C  C422  1  0.13070000  0.00000000  0.09470000  0.3333 -0.1762370922
C  C423  1  0.86930000  0.00000000  0.09470000  0.3333 -0.1762370922
C  C424  1  0.13070000  0.00000000  0.90530000  0.3333 -0.1762370922
C  C425  1  0.86930000  0.90530000  0.00000000  0.3333 -0.1762370922
C  C426  1  0.13070000  0.09470000  0.00000000  0.3333 -0.1762370922
C  C427  1  0.86930000  0.09470000  0.00000000  0.3333 -0.1762370922
C  C428  1  0.13070000  0.90530000  0.00000000  0.3333 -0.1762370922
C  C429  1  0.90530000  0.86930000  0.00000000  0.3333 -0.1762370922
C  C430  1  0.09470000  0.13070000  0.00000000  0.3333 -0.1762370922
C  C431  1  0.09470000  0.86930000  0.00000000  0.3333 -0.1762370922
C  C432  1  0.90530000  0.13070000  0.00000000  0.3333 -0.1762370922
C  C433  1  0.00000000  0.86930000  0.09470000  0.3333 -0.1762370922
C  C434  1  0.00000000  0.13070000  0.90530000  0.3333 -0.1762370922
C  C435  1  0.00000000  0.86930000  0.90530000  0.3333 -0.1762370922
C  C436  1  0.00000000  0.13070000  0.09470000  0.3333 -0.1762370922
C  C437  1  0.00000000  0.90530000  0.86930000  0.3333 -0.1762370922
C  C438  1  0.00000000  0.09470000  0.13070000  0.3333 -0.1762370922
C  C439  1  0.00000000  0.09470000  0.86930000  0.3333 -0.1762370922
C  C440  1  0.00000000  0.90530000  0.13070000  0.3333 -0.1762370922
C  C441  1  0.90530000  0.00000000  0.13070000  0.3333 -0.1762370922
C  C442  1  0.09470000  0.00000000  0.86930000  0.3333 -0.1762370922
C  C443  1  0.09470000  0.00000000  0.13070000  0.3333 -0.1762370922
C  C444  1  0.90530000  0.00000000  0.86930000  0.3333 -0.1762370922
C  C559  1  0.89350000  0.50000000  0.45280000  0.3333 0.074952866
C  C560  1  0.10650000  0.50000000  0.54720000  0.3333 0.074952866
C  C561  1  0.89350000  0.50000000  0.54720000  0.3333 0.074952866
C  C562  1  0.10650000  0.50000000  0.45280000  0.3333 0.074952866
C  C563  1  0.89350000  0.45280000  0.50000000  0.3333 0.074952866
C  C564  1  0.10650000  0.54720000  0.50000000  0.3333 0.074952866
C  C565  1  0.89350000  0.54720000  0.50000000  0.3333 0.074952866
C  C566  1  0.10650000  0.45280000  0.50000000  0.3333 0.074952866
C  C567  1  0.00000000  0.45280000  0.39350000  0.3333 0.074952866
C  C568  1  0.00000000  0.54720000  0.60650000  0.3333 0.074952866
C  C569  1  0.00000000  0.54720000  0.39350000  0.3333 0.074952866
C  C570  1  0.00000000  0.45280000  0.60650000  0.3333 0.074952866
C  C571  1  0.95280000  0.50000000  0.60650000  0.3333 0.074952866
C  C572  1  0.04720000  0.50000000  0.39350000  0.3333 0.074952866
C  C573  1  0.04720000  0.50000000  0.60650000  0.3333 0.074952866
C  C574  1  0.95280000  0.50000000  0.39350000  0.3333 0.074952866
C  C575  1  0.95280000  0.39350000  0.50000000  0.3333 0.074952866
C  C576  1  0.04720000  0.60650000  0.50000000  0.3333 0.074952866
C  C577  1  0.04720000  0.39350000  0.50000000  0.3333 0.074952866
C  C578  1  0.95280000  0.60650000  0.50000000  0.3333 0.074952866
C  C579  1  0.00000000  0.39350000  0.54720000  0.3333 0.074952866
C  C580  1  0.00000000  0.60650000  0.45280000  0.3333 0.074952866
C  C581  1  0.00000000  0.39350000  0.45280000  0.3333 0.074952866
C  C582  1  0.00000000  0.60650000  0.54720000  0.3333 0.074952866
C  C583  1  0.86930000  0.50000000  0.40530000  0.3333 -0.1762370922
C  C584  1  0.13070000  0.50000000  0.59470000  0.3333 -0.1762370922
C  C585  1  0.86930000  0.50000000  0.59470000  0.3333 -0.1762370922
C  C586  1  0.13070000  0.50000000  0.40530000  0.3333 -0.1762370922
C  C587  1  0.86930000  0.40530000  0.50000000  0.3333 -0.1762370922
C  C588  1  0.13070000  0.59470000  0.50000000  0.3333 -0.1762370922
C  C589  1  0.86930000  0.59470000  0.50000000  0.3333 -0.1762370922
C  C590  1  0.13070000  0.40530000  0.50000000  0.3333 -0.1762370922
C  C591  1  0.00000000  0.40530000  0.36930000  0.3333 -0.1762370922
C  C592  1  0.00000000  0.59470000  0.63070000  0.3333 -0.1762370922
C  C593  1  0.00000000  0.59470000  0.36930000  0.3333 -0.1762370922
C  C594  1  0.00000000  0.40530000  0.63070000  0.3333 -0.1762370922
C  C595  1  0.90530000  0.50000000  0.63070000  0.3333 -0.1762370922
C  C596  1  0.09470000  0.50000000  0.36930000  0.3333 -0.1762370922
C  C597  1  0.09470000  0.50000000  0.63070000  0.3333 -0.1762370922
C  C598  1  0.90530000  0.50000000  0.36930000  0.3333 -0.1762370922
C  C599  1  0.90530000  0.36930000  0.50000000  0.3333 -0.1762370922
C  C600  1  0.09470000  0.63070000  0.50000000  0.3333 -0.1762370922
C  C601  1  0.09470000  0.36930000  0.50000000  0.3333 -0.1762370922
C  C602  1  0.90530000  0.63070000  0.50000000  0.3333 -0.1762370922
C  C603  1  0.00000000  0.36930000  0.59470000  0.3333 -0.1762370922
C  C604  1  0.00000000  0.63070000  0.40530000  0.3333 -0.1762370922
C  C605  1  0.00000000  0.36930000  0.40530000  0.3333 -0.1762370922
C  C606  1  0.00000000  0.63070000  0.59470000  0.3333 -0.1762370922
C  C721  1  0.50000000  0.45280000  0.89350000  0.3333 0.074952866
C  C722  1  0.50000000  0.54720000  0.10650000  0.3333 0.074952866
C  C723  1  0.50000000  0.54720000  0.89350000  0.3333 0.074952866
C  C724  1  0.50000000  0.45280000  0.10650000  0.3333 0.074952866
C  C725  1  0.45280000  0.50000000  0.10650000  0.3333 0.074952866
C  C726  1  0.54720000  0.50000000  0.89350000  0.3333 0.074952866
C  C727  1  0.54720000  0.50000000  0.10650000  0.3333 0.074952866
C  C728  1  0.45280000  0.50000000  0.89350000  0.3333 0.074952866
C  C729  1  0.45280000  0.39350000  0.00000000  0.3333 0.074952866
C  C730  1  0.54720000  0.60650000  0.00000000  0.3333 0.074952866
C  C731  1  0.54720000  0.39350000  0.00000000  0.3333 0.074952866
C  C732  1  0.45280000  0.60650000  0.00000000  0.3333 0.074952866
C  C733  1  0.50000000  0.39350000  0.04720000  0.3333 0.074952866
C  C734  1  0.50000000  0.60650000  0.95280000  0.3333 0.074952866
C  C735  1  0.50000000  0.39350000  0.95280000  0.3333 0.074952866
C  C736  1  0.50000000  0.60650000  0.04720000  0.3333 0.074952866
C  C737  1  0.39350000  0.50000000  0.95280000  0.3333 0.074952866
C  C738  1  0.60650000  0.50000000  0.04720000  0.3333 0.074952866
C  C739  1  0.39350000  0.50000000  0.04720000  0.3333 0.074952866
C  C740  1  0.60650000  0.50000000  0.95280000  0.3333 0.074952866
C  C741  1  0.39350000  0.45280000  0.00000000  0.3333 0.074952866
C  C742  1  0.60650000  0.54720000  0.00000000  0.3333 0.074952866
C  C743  1  0.39350000  0.54720000  0.00000000  0.3333 0.074952866
C  C744  1  0.60650000  0.45280000  0.00000000  0.3333 0.074952866
C  C745  1  0.50000000  0.40530000  0.86930000  0.3333 -0.1762370922
C  C746  1  0.50000000  0.59470000  0.13070000  0.3333 -0.1762370922
C  C747  1  0.50000000  0.59470000  0.86930000  0.3333 -0.1762370922
C  C748  1  0.50000000  0.40530000  0.13070000  0.3333 -0.1762370922
C  C749  1  0.40530000  0.50000000  0.13070000  0.3333 -0.1762370922
C  C750  1  0.59470000  0.50000000  0.86930000  0.3333 -0.1762370922
C  C751  1  0.59470000  0.50000000  0.13070000  0.3333 -0.1762370922
C  C752  1  0.40530000  0.50000000  0.86930000  0.3333 -0.1762370922
C  C753  1  0.40530000  0.36930000  0.00000000  0.3333 -0.1762370922
C  C754  1  0.59470000  0.63070000  0.00000000  0.3333 -0.1762370922
C  C755  1  0.59470000  0.36930000  0.00000000  0.3333 -0.1762370922
C  C756  1  0.40530000  0.63070000  0.00000000  0.3333 -0.1762370922
C  C757  1  0.50000000  0.36930000  0.09470000  0.3333 -0.1762370922
C  C758  1  0.50000000  0.63070000  0.90530000  0.3333 -0.1762370922
C  C759  1  0.50000000  0.36930000  0.90530000  0.3333 -0.1762370922
C  C760  1  0.50000000  0.63070000  0.09470000  0.3333 -0.1762370922
C  C761  1  0.36930000  0.50000000  0.90530000  0.3333 -0.1762370922
C  C762  1  0.63070000  0.50000000  0.09470000  0.3333 -0.1762370922
C  C763  1  0.36930000  0.50000000  0.09470000  0.3333 -0.1762370922
C  C764  1  0.63070000  0.50000000  0.90530000  0.3333 -0.1762370922
C  C765  1  0.36930000  0.40530000  0.00000000  0.3333 -0.1762370922
C  C766  1  0.63070000  0.59470000  0.00000000  0.3333 -0.1762370922
C  C767  1  0.36930000  0.59470000  0.00000000  0.3333 -0.1762370922
C  C768  1  0.63070000  0.40530000  0.00000000  0.3333 -0.1762370922
C  C883  1  0.45280000  0.89350000  0.50000000  0.3333 0.074952866
C  C884  1  0.54720000  0.10650000  0.50000000  0.3333 0.074952866
C  C885  1  0.54720000  0.89350000  0.50000000  0.3333 0.074952866
C  C886  1  0.45280000  0.10650000  0.50000000  0.3333 0.074952866
C  C887  1  0.50000000  0.89350000  0.54720000  0.3333 0.074952866
C  C888  1  0.50000000  0.10650000  0.45280000  0.3333 0.074952866
C  C889  1  0.50000000  0.89350000  0.45280000  0.3333 0.074952866
C  C890  1  0.50000000  0.10650000  0.54720000  0.3333 0.074952866
C  C891  1  0.50000000  0.95280000  0.39350000  0.3333 0.074952866
C  C892  1  0.50000000  0.04720000  0.60650000  0.3333 0.074952866
C  C893  1  0.50000000  0.04720000  0.39350000  0.3333 0.074952866
C  C894  1  0.50000000  0.95280000  0.60650000  0.3333 0.074952866
C  C895  1  0.45280000  0.00000000  0.60650000  0.3333 0.074952866
C  C896  1  0.54720000  0.00000000  0.39350000  0.3333 0.074952866
C  C897  1  0.54720000  0.00000000  0.60650000  0.3333 0.074952866
C  C898  1  0.45280000  0.00000000  0.39350000  0.3333 0.074952866
C  C899  1  0.39350000  0.00000000  0.45280000  0.3333 0.074952866
C  C900  1  0.60650000  0.00000000  0.54720000  0.3333 0.074952866
C  C901  1  0.39350000  0.00000000  0.54720000  0.3333 0.074952866
C  C902  1  0.60650000  0.00000000  0.45280000  0.3333 0.074952866
C  C903  1  0.39350000  0.95280000  0.50000000  0.3333 0.074952866
C  C904  1  0.60650000  0.04720000  0.50000000  0.3333 0.074952866
C  C905  1  0.39350000  0.04720000  0.50000000  0.3333 0.074952866
C  C906  1  0.60650000  0.95280000  0.50000000  0.3333 0.074952866
C  C907  1  0.40530000  0.86930000  0.50000000  0.3333 -0.1762370922
C  C908  1  0.59470000  0.13070000  0.50000000  0.3333 -0.1762370922
C  C909  1  0.59470000  0.86930000  0.50000000  0.3333 -0.1762370922
C  C910  1  0.40530000  0.13070000  0.50000000  0.3333 -0.1762370922
C  C911  1  0.50000000  0.86930000  0.59470000  0.3333 -0.1762370922
C  C912  1  0.50000000  0.13070000  0.40530000  0.3333 -0.1762370922
C  C913  1  0.50000000  0.86930000  0.40530000  0.3333 -0.1762370922
C  C914  1  0.50000000  0.13070000  0.59470000  0.3333 -0.1762370922
C  C915  1  0.50000000  0.90530000  0.36930000  0.3333 -0.1762370922
C  C916  1  0.50000000  0.09470000  0.63070000  0.3333 -0.1762370922
C  C917  1  0.50000000  0.09470000  0.36930000  0.3333 -0.1762370922
C  C918  1  0.50000000  0.90530000  0.63070000  0.3333 -0.1762370922
C  C919  1  0.40530000  0.00000000  0.63070000  0.3333 -0.1762370922
C  C920  1  0.59470000  0.00000000  0.36930000  0.3333 -0.1762370922
C  C921  1  0.59470000  0.00000000  0.63070000  0.3333 -0.1762370922
C  C922  1  0.40530000  0.00000000  0.36930000  0.3333 -0.1762370922
C  C923  1  0.36930000  0.00000000  0.40530000  0.3333 -0.1762370922
C  C924  1  0.63070000  0.00000000  0.59470000  0.3333 -0.1762370922
C  C925  1  0.36930000  0.00000000  0.59470000  0.3333 -0.1762370922
C  C926  1  0.63070000  0.00000000  0.40530000  0.3333 -0.1762370922
C  C927  1  0.36930000  0.90530000  0.50000000  0.3333 -0.1762370922
C  C928  1  0.63070000  0.09470000  0.50000000  0.3333 -0.1762370922
C  C929  1  0.36930000  0.09470000  0.50000000  0.3333 -0.1762370922
C  C930  1  0.63070000  0.90530000  0.50000000  0.3333 -0.1762370922
C  C289  1  0.87070000  0.00000000  0.00000000  0.6667 -0.0675269653
C  C290  1  0.12930000  0.00000000  0.00000000  0.6667 -0.0675269653
C  C291  1  0.00000000  0.87070000  0.00000000  0.6667 -0.0675269653
C  C292  1  0.00000000  0.12930000  0.00000000  0.6667 -0.0675269653
C  C293  1  0.00000000  0.00000000  0.87070000  0.6667 -0.0675269653
C  C294  1  0.00000000  0.00000000  0.12930000  0.6667 -0.0675269653
C  C295  1  0.81520000  0.00000000  0.00000000  0.6667 0.034861832
C  C296  1  0.18480000  0.00000000  0.00000000  0.6667 0.034861832
C  C297  1  0.00000000  0.81520000  0.00000000  0.6667 0.034861832
C  C298  1  0.00000000  0.18480000  0.00000000  0.6667 0.034861832
C  C299  1  0.00000000  0.00000000  0.81520000  0.6667 0.034861832
C  C300  1  0.00000000  0.00000000  0.18480000  0.6667 0.034861832
C  C445  1  0.65800000  0.00000000  0.00000000  0.6667 -0.2516901222
C  C446  1  0.34200000  0.00000000  0.00000000  0.6667 -0.2516901222
C  C447  1  0.00000000  0.65800000  0.00000000  0.6667 -0.2516901222
C  C448  1  0.00000000  0.34200000  0.00000000  0.6667 -0.2516901222
C  C449  1  0.00000000  0.00000000  0.65800000  0.6667 -0.2516901222
C  C450  1  0.00000000  0.00000000  0.34200000  0.6667 -0.2516901222
C  C451  1  0.87070000  0.50000000  0.50000000  0.6667 -0.0675269653
C  C452  1  0.12930000  0.50000000  0.50000000  0.6667 -0.0675269653
C  C453  1  0.00000000  0.50000000  0.37070000  0.6667 -0.0675269653
C  C454  1  0.00000000  0.50000000  0.62930000  0.6667 -0.0675269653
C  C455  1  0.00000000  0.37070000  0.50000000  0.6667 -0.0675269653
C  C456  1  0.00000000  0.62930000  0.50000000  0.6667 -0.0675269653
C  C457  1  0.81520000  0.50000000  0.50000000  0.6667 0.034861832
C  C458  1  0.18480000  0.50000000  0.50000000  0.6667 0.034861832
C  C459  1  0.00000000  0.50000000  0.31520000  0.6667 0.034861832
C  C460  1  0.00000000  0.50000000  0.68480000  0.6667 0.034861832
C  C461  1  0.00000000  0.31520000  0.50000000  0.6667 0.034861832
C  C462  1  0.00000000  0.68480000  0.50000000  0.6667 0.034861832
C  C607  1  0.65800000  0.50000000  0.50000000  0.6667 -0.2516901222
C  C608  1  0.34200000  0.50000000  0.50000000  0.6667 -0.2516901222
C  C609  1  0.00000000  0.50000000  0.15800000  0.6667 -0.2516901222
C  C610  1  0.00000000  0.50000000  0.84200000  0.6667 -0.2516901222
C  C611  1  0.00000000  0.15800000  0.50000000  0.6667 -0.2516901222
C  C612  1  0.00000000  0.84200000  0.50000000  0.6667 -0.2516901222
C  C613  1  0.50000000  0.50000000  0.87070000  0.6667 -0.0675269653
C  C614  1  0.50000000  0.50000000  0.12930000  0.6667 -0.0675269653
C  C615  1  0.50000000  0.37070000  0.00000000  0.6667 -0.0675269653
C  C616  1  0.50000000  0.62930000  0.00000000  0.6667 -0.0675269653
C  C617  1  0.37070000  0.50000000  0.00000000  0.6667 -0.0675269653
C  C618  1  0.62930000  0.50000000  0.00000000  0.6667 -0.0675269653
C  C619  1  0.50000000  0.50000000  0.81520000  0.6667 0.034861832
C  C620  1  0.50000000  0.50000000  0.18480000  0.6667 0.034861832
C  C621  1  0.50000000  0.31520000  0.00000000  0.6667 0.034861832
C  C622  1  0.50000000  0.68480000  0.00000000  0.6667 0.034861832
C  C623  1  0.31520000  0.50000000  0.00000000  0.6667 0.034861832
C  C624  1  0.68480000  0.50000000  0.00000000  0.6667 0.034861832
C  C769  1  0.50000000  0.50000000  0.65800000  0.6667 -0.2516901222
C  C770  1  0.50000000  0.50000000  0.34200000  0.6667 -0.2516901222
C  C771  1  0.50000000  0.15800000  0.00000000  0.6667 -0.2516901222
C  C772  1  0.50000000  0.84200000  0.00000000  0.6667 -0.2516901222
C  C773  1  0.15800000  0.50000000  0.00000000  0.6667 -0.2516901222
C  C774  1  0.84200000  0.50000000  0.00000000  0.6667 -0.2516901222
C  C775  1  0.50000000  0.87070000  0.50000000  0.6667 -0.0675269653
C  C776  1  0.50000000  0.12930000  0.50000000  0.6667 -0.0675269653
C  C777  1  0.50000000  0.00000000  0.37070000  0.6667 -0.0675269653
C  C778  1  0.50000000  0.00000000  0.62930000  0.6667 -0.0675269653
C  C779  1  0.37070000  0.00000000  0.50000000  0.6667 -0.0675269653
C  C780  1  0.62930000  0.00000000  0.50000000  0.6667 -0.0675269653
C  C781  1  0.50000000  0.81520000  0.50000000  0.6667 0.034861832
C  C782  1  0.50000000  0.18480000  0.50000000  0.6667 0.034861832
C  C783  1  0.50000000  0.00000000  0.31520000  0.6667 0.034861832
C  C784  1  0.50000000  0.00000000  0.68480000  0.6667 0.034861832
C  C785  1  0.31520000  0.00000000  0.50000000  0.6667 0.034861832
C  C786  1  0.68480000  0.00000000  0.50000000  0.6667 0.034861832
C  C931  1  0.50000000  0.65800000  0.50000000  0.6667 -0.2516901222
C  C932  1  0.50000000  0.34200000  0.50000000  0.6667 -0.2516901222
C  C933  1  0.50000000  0.00000000  0.15800000  0.6667 -0.2516901222
C  C934  1  0.50000000  0.00000000  0.84200000  0.6667 -0.2516901222
C  C935  1  0.15800000  0.00000000  0.50000000  0.6667 -0.2516901222
C  C936  1  0.84200000  0.00000000  0.50000000  0.6667 -0.2516901222
N  N1  1  0.71300000  0.00000000  0.00000000  0.6667 -0.0168816456
N  N2  1  0.28700000  0.00000000  0.00000000  0.6667 -0.0168816456
N  N3  1  0.00000000  0.71300000  0.00000000  0.6667 -0.0168816456
N  N4  1  0.00000000  0.28700000  0.00000000  0.6667 -0.0168816456
N  N5  1  0.00000000  0.00000000  0.71300000  0.6667 -0.0168816456
N  N6  1  0.00000000  0.00000000  0.28700000  0.6667 -0.0168816456
N  N19  1  0.71300000  0.50000000  0.50000000  0.6667 -0.0168816456
N  N20  1  0.28700000  0.50000000  0.50000000  0.6667 -0.0168816456
N  N21  1  0.00000000  0.50000000  0.21300000  0.6667 -0.0168816456
N  N22  1  0.00000000  0.50000000  0.78700000  0.6667 -0.0168816456
N  N23  1  0.00000000  0.21300000  0.50000000  0.6667 -0.0168816456
N  N24  1  0.00000000  0.78700000  0.50000000  0.6667 -0.0168816456
N  N37  1  0.50000000  0.50000000  0.71300000  0.6667 -0.0168816456
N  N38  1  0.50000000  0.50000000  0.28700000  0.6667 -0.0168816456
N  N39  1  0.50000000  0.21300000  0.00000000  0.6667 -0.0168816456
N  N40  1  0.50000000  0.78700000  0.00000000  0.6667 -0.0168816456
N  N41  1  0.21300000  0.50000000  0.00000000  0.6667 -0.0168816456
N  N42  1  0.78700000  0.50000000  0.00000000  0.6667 -0.0168816456
N  N55  1  0.50000000  0.71300000  0.50000000  0.6667 -0.0168816456
N  N56  1  0.50000000  0.28700000  0.50000000  0.6667 -0.0168816456
N  N57  1  0.50000000  0.00000000  0.21300000  0.6667 -0.0168816456
N  N58  1  0.50000000  0.00000000  0.78700000  0.6667 -0.0168816456
N  N59  1  0.21300000  0.00000000  0.50000000  0.6667 -0.0168816456
N  N60  1  0.78700000  0.00000000  0.50000000  0.6667 -0.0168816456
N  N7  1  0.94500000  0.00000000  0.94500000  0.3333 -0.0462056558
N  N8  1  0.05500000  0.00000000  0.05500000  0.3333 -0.0462056558
N  N9  1  0.94500000  0.00000000  0.05500000  0.3333 -0.0462056558
N  N10  1  0.05500000  0.00000000  0.94500000  0.3333 -0.0462056558
N  N11  1  0.94500000  0.94500000  0.00000000  0.3333 -0.0443635071
N  N12  1  0.05500000  0.05500000  0.00000000  0.3333 -0.0443635071
N  N13  1  0.94500000  0.05500000  0.00000000  0.3333 -0.0443635071
N  N14  1  0.05500000  0.94500000  0.00000000  0.3333 -0.0443635071
N  N15  1  0.00000000  0.94500000  0.05500000  0.3333 -0.0443635071
N  N16  1  0.00000000  0.05500000  0.94500000  0.3333 -0.0462056558
N  N17  1  0.00000000  0.94500000  0.94500000  0.3333 -0.0462056558
N  N18  1  0.00000000  0.05500000  0.05500000  0.3333 -0.0443635071
N  N25  1  0.94500000  0.50000000  0.44500000  0.3333 -0.0462056558
N  N26  1  0.05500000  0.50000000  0.55500000  0.3333 -0.0462056558
N  N27  1  0.94500000  0.50000000  0.55500000  0.3333 -0.0462056558
N  N28  1  0.05500000  0.50000000  0.44500000  0.3333 -0.0462056558
N  N29  1  0.94500000  0.44500000  0.50000000  0.3333 -0.0462056558
N  N30  1  0.05500000  0.55500000  0.50000000  0.3333 -0.0462056558
N  N31  1  0.94500000  0.55500000  0.50000000  0.3333 -0.0462056558
N  N32  1  0.05500000  0.44500000  0.50000000  0.3333 -0.0462056558
N  N33  1  0.00000000  0.44500000  0.44500000  0.3333 -0.0462056558
N  N34  1  0.00000000  0.55500000  0.55500000  0.3333 -0.0462056558
N  N35  1  0.00000000  0.55500000  0.44500000  0.3333 -0.0443635071
N  N36  1  0.00000000  0.44500000  0.55500000  0.3333 -0.0462056558
N  N43  1  0.50000000  0.44500000  0.94500000  0.3333 -0.0462056558
N  N44  1  0.50000000  0.55500000  0.05500000  0.3333 -0.0443635071
N  N45  1  0.50000000  0.55500000  0.94500000  0.3333 -0.0462056558
N  N46  1  0.50000000  0.44500000  0.05500000  0.3333 -0.0443635071
N  N47  1  0.44500000  0.50000000  0.05500000  0.3333 -0.0443635071
N  N48  1  0.55500000  0.50000000  0.94500000  0.3333 -0.0462056558
N  N49  1  0.55500000  0.50000000  0.05500000  0.3333 -0.0443635071
N  N50  1  0.44500000  0.50000000  0.94500000  0.3333 -0.0462056558
N  N51  1  0.44500000  0.44500000  0.00000000  0.3333 -0.0443635071
N  N52  1  0.55500000  0.55500000  0.00000000  0.3333 -0.0443635071
N  N53  1  0.55500000  0.44500000  0.00000000  0.3333 -0.0443635071
N  N54  1  0.44500000  0.55500000  0.00000000  0.3333 -0.0443635071
N  N61  1  0.44500000  0.94500000  0.50000000  0.3333 -0.0443635071
N  N62  1  0.55500000  0.05500000  0.50000000  0.3333 -0.0462056558
N  N63  1  0.55500000  0.94500000  0.50000000  0.3333 -0.0443635071
N  N64  1  0.44500000  0.05500000  0.50000000  0.3333 -0.0462056558
N  N65  1  0.50000000  0.94500000  0.55500000  0.3333 -0.0443635071
N  N66  1  0.50000000  0.05500000  0.44500000  0.3333 -0.0462056558
N  N67  1  0.50000000  0.94500000  0.44500000  0.3333 -0.0443635071
N  N68  1  0.50000000  0.05500000  0.55500000  0.3333 -0.0462056558
N  N69  1  0.44500000  0.00000000  0.55500000  0.3333 -0.0462056558
N  N70  1  0.55500000  0.00000000  0.44500000  0.3333 -0.0462056558
N  N71  1  0.55500000  0.00000000  0.55500000  0.3333 -0.0462056558
N  N72  1  0.44500000  0.00000000  0.44500000  0.3333 -0.0462056558
O  O1  1  0.68290000  0.94740000  0.25800000  1.0 -0.5052931278
O  O2  1  0.31710000  0.05260000  0.25800000  1.0 -0.5045343385
O  O3  1  0.31710000  0.94740000  0.74200000  1.0 -0.5052931278
O  O4  1  0.68290000  0.05260000  0.74200000  1.0 -0.5052931278
O  O5  1  0.25800000  0.68290000  0.94740000  1.0 -0.5052931278
O  O6  1  0.25800000  0.31710000  0.05260000  1.0 -0.5052931278
O  O7  1  0.74200000  0.31710000  0.94740000  1.0 -0.5052931278
O  O8  1  0.74200000  0.68290000  0.05260000  1.0 -0.5052931278
O  O9  1  0.94740000  0.25800000  0.68290000  1.0 -0.5052931278
O  O10  1  0.05260000  0.25800000  0.31710000  1.0 -0.5052931278
O  O11  1  0.94740000  0.74200000  0.31710000  1.0 -0.5052931278
O  O12  1  0.05260000  0.74200000  0.68290000  1.0 -0.5052931278
O  O13  1  0.94740000  0.68290000  0.74200000  1.0 -0.5052931278
O  O14  1  0.05260000  0.31710000  0.74200000  1.0 -0.5052931278
O  O15  1  0.94740000  0.31710000  0.25800000  1.0 -0.5052931278
O  O16  1  0.05260000  0.68290000  0.25800000  1.0 -0.5052931278
O  O17  1  0.68290000  0.25800000  0.05260000  1.0 -0.5052931278
O  O18  1  0.31710000  0.25800000  0.94740000  1.0 -0.5045343385
O  O19  1  0.31710000  0.74200000  0.05260000  1.0 -0.5052931278
O  O20  1  0.68290000  0.74200000  0.94740000  1.0 -0.5052931278
O  O21  1  0.25800000  0.94740000  0.31710000  1.0 -0.5052931278
O  O22  1  0.25800000  0.05260000  0.68290000  1.0 -0.5052931278
O  O23  1  0.74200000  0.94740000  0.68290000  1.0 -0.5052931278
O  O24  1  0.74200000  0.05260000  0.31710000  1.0 -0.5052931278
O  O25  1  0.68290000  0.44740000  0.75800000  1.0 -0.5052931278
O  O26  1  0.31710000  0.55260000  0.75800000  1.0 -0.5052931278
O  O27  1  0.31710000  0.44740000  0.24200000  1.0 -0.5052931278
O  O28  1  0.68290000  0.55260000  0.24200000  1.0 -0.5052931278
O  O29  1  0.25800000  0.18290000  0.44740000  1.0 -0.5052931278
O  O30  1  0.25800000  0.81710000  0.55260000  1.0 -0.5052931278
O  O31  1  0.74200000  0.81710000  0.44740000  1.0 -0.5052931278
O  O32  1  0.74200000  0.18290000  0.55260000  1.0 -0.5052931278
O  O33  1  0.94740000  0.75800000  0.18290000  1.0 -0.5052931278
O  O34  1  0.05260000  0.75800000  0.81710000  1.0 -0.5052931278
O  O35  1  0.94740000  0.24200000  0.81710000  1.0 -0.5052931278
O  O36  1  0.05260000  0.24200000  0.18290000  1.0 -0.5052931278
O  O37  1  0.94740000  0.18290000  0.24200000  1.0 -0.5052931278
O  O38  1  0.05260000  0.81710000  0.24200000  1.0 -0.5052931278
O  O39  1  0.94740000  0.81710000  0.75800000  1.0 -0.5052931278
O  O40  1  0.05260000  0.18290000  0.75800000  1.0 -0.5052931278
O  O41  1  0.68290000  0.75800000  0.55260000  1.0 -0.5052931278
O  O42  1  0.31710000  0.75800000  0.44740000  1.0 -0.5052931278
O  O43  1  0.31710000  0.24200000  0.55260000  1.0 -0.5052931278
O  O44  1  0.68290000  0.24200000  0.44740000  1.0 -0.5052931278
O  O45  1  0.25800000  0.44740000  0.81710000  1.0 -0.5052931278
O  O46  1  0.25800000  0.55260000  0.18290000  1.0 -0.5052931278
O  O47  1  0.74200000  0.44740000  0.18290000  1.0 -0.5052931278
O  O48  1  0.74200000  0.55260000  0.81710000  1.0 -0.5052931278
O  O49  1  0.18290000  0.94740000  0.75800000  1.0 -0.5052931278
O  O50  1  0.81710000  0.05260000  0.75800000  1.0 -0.5052931278
O  O51  1  0.81710000  0.94740000  0.24200000  1.0 -0.5052931278
O  O52  1  0.18290000  0.05260000  0.24200000  1.0 -0.5052931278
O  O53  1  0.75800000  0.68290000  0.44740000  1.0 -0.5052931278
O  O54  1  0.75800000  0.31710000  0.55260000  1.0 -0.5052931278
O  O55  1  0.24200000  0.31710000  0.44740000  1.0 -0.5052931278
O  O56  1  0.24200000  0.68290000  0.55260000  1.0 -0.5052931278
O  O57  1  0.44740000  0.25800000  0.18290000  1.0 -0.5052931278
O  O58  1  0.55260000  0.25800000  0.81710000  1.0 -0.5045343385
O  O59  1  0.44740000  0.74200000  0.81710000  1.0 -0.5052931278
O  O60  1  0.55260000  0.74200000  0.18290000  1.0 -0.5052931278
O  O61  1  0.44740000  0.68290000  0.24200000  1.0 -0.5052931278
O  O62  1  0.55260000  0.31710000  0.24200000  1.0 -0.5052931278
O  O63  1  0.44740000  0.31710000  0.75800000  1.0 -0.5052931278
O  O64  1  0.55260000  0.68290000  0.75800000  1.0 -0.5052931278
O  O65  1  0.18290000  0.25800000  0.55260000  1.0 -0.5052931278
O  O66  1  0.81710000  0.25800000  0.44740000  1.0 -0.5052931278
O  O67  1  0.81710000  0.74200000  0.55260000  1.0 -0.5052931278
O  O68  1  0.18290000  0.74200000  0.44740000  1.0 -0.5052931278
O  O69  1  0.75800000  0.94740000  0.81710000  1.0 -0.5052931278
O  O70  1  0.75800000  0.05260000  0.18290000  1.0 -0.5052931278
O  O71  1  0.24200000  0.94740000  0.18290000  1.0 -0.5052931278
O  O72  1  0.24200000  0.05260000  0.81710000  1.0 -0.5052931278
O  O73  1  0.18290000  0.44740000  0.25800000  1.0 -0.5052931278
O  O74  1  0.81710000  0.55260000  0.25800000  1.0 -0.5052931278
O  O75  1  0.81710000  0.44740000  0.74200000  1.0 -0.5052931278
O  O76  1  0.18290000  0.55260000  0.74200000  1.0 -0.5052931278
O  O77  1  0.75800000  0.18290000  0.94740000  1.0 -0.5052931278
O  O78  1  0.75800000  0.81710000  0.05260000  1.0 -0.5052931278
O  O79  1  0.24200000  0.81710000  0.94740000  1.0 -0.5052931278
O  O80  1  0.24200000  0.18290000  0.05260000  1.0 -0.5052931278
O  O81  1  0.44740000  0.75800000  0.68290000  1.0 -0.5052931278
O  O82  1  0.55260000  0.75800000  0.31710000  1.0 -0.5052931278
O  O83  1  0.44740000  0.24200000  0.31710000  1.0 -0.5052931278
O  O84  1  0.55260000  0.24200000  0.68290000  1.0 -0.5052931278
O  O85  1  0.44740000  0.18290000  0.74200000  1.0 -0.5052931278
O  O86  1  0.55260000  0.81710000  0.74200000  1.0 -0.5052931278
O  O87  1  0.44740000  0.81710000  0.25800000  1.0 -0.5052931278
O  O88  1  0.55260000  0.18290000  0.25800000  1.0 -0.5045343385
O  O89  1  0.18290000  0.75800000  0.05260000  1.0 -0.5052931278
O  O90  1  0.81710000  0.75800000  0.94740000  1.0 -0.5052931278
O  O91  1  0.81710000  0.24200000  0.05260000  1.0 -0.5052931278
O  O92  1  0.18290000  0.24200000  0.94740000  1.0 -0.5052931278
O  O93  1  0.75800000  0.44740000  0.31710000  1.0 -0.5052931278
O  O94  1  0.75800000  0.55260000  0.68290000  1.0 -0.5052931278
O  O95  1  0.24200000  0.44740000  0.68290000  1.0 -0.5052931278
O  O96  1  0.24200000  0.55260000  0.31710000  1.0 -0.5052931278
O  O97  1  0.31710000  0.05260000  0.74200000  1.0 -0.5052931278
O  O98  1  0.68290000  0.94740000  0.74200000  1.0 -0.5052931278
O  O99  1  0.68290000  0.05260000  0.25800000  1.0 -0.5052931278
O  O100  1  0.31710000  0.94740000  0.25800000  1.0 -0.5052931278
O  O101  1  0.74200000  0.31710000  0.05260000  1.0 -0.5052931278
O  O102  1  0.74200000  0.68290000  0.94740000  1.0 -0.5052931278
O  O103  1  0.25800000  0.68290000  0.05260000  1.0 -0.5052931278
O  O104  1  0.25800000  0.31710000  0.94740000  1.0 -0.5052931278
O  O105  1  0.05260000  0.74200000  0.31710000  1.0 -0.5052931278
O  O106  1  0.94740000  0.74200000  0.68290000  1.0 -0.5052931278
O  O107  1  0.05260000  0.25800000  0.68290000  1.0 -0.5052931278
O  O108  1  0.94740000  0.25800000  0.31710000  1.0 -0.5052931278
O  O109  1  0.05260000  0.31710000  0.25800000  1.0 -0.5052931278
O  O110  1  0.94740000  0.68290000  0.25800000  1.0 -0.5052931278
O  O111  1  0.05260000  0.68290000  0.74200000  1.0 -0.5052931278
O  O112  1  0.94740000  0.31710000  0.74200000  1.0 -0.5052931278
O  O113  1  0.31710000  0.74200000  0.94740000  1.0 -0.5052931278
O  O114  1  0.68290000  0.74200000  0.05260000  1.0 -0.5052931278
O  O115  1  0.68290000  0.25800000  0.94740000  1.0 -0.5052931278
O  O116  1  0.31710000  0.25800000  0.05260000  1.0 -0.5052931278
O  O117  1  0.74200000  0.05260000  0.68290000  1.0 -0.5052931278
O  O118  1  0.74200000  0.94740000  0.31710000  1.0 -0.5052931278
O  O119  1  0.25800000  0.05260000  0.31710000  1.0 -0.5052931278
O  O120  1  0.25800000  0.94740000  0.68290000  1.0 -0.5052931278
O  O121  1  0.31710000  0.55260000  0.24200000  1.0 -0.5052931278
O  O122  1  0.68290000  0.44740000  0.24200000  1.0 -0.5052931278
O  O123  1  0.68290000  0.55260000  0.75800000  1.0 -0.5052931278
O  O124  1  0.31710000  0.44740000  0.75800000  1.0 -0.5052931278
O  O125  1  0.74200000  0.81710000  0.55260000  1.0 -0.5052931278
O  O126  1  0.74200000  0.18290000  0.44740000  1.0 -0.5052931278
O  O127  1  0.25800000  0.18290000  0.55260000  1.0 -0.5052931278
O  O128  1  0.25800000  0.81710000  0.44740000  1.0 -0.5052931278
O  O129  1  0.05260000  0.24200000  0.81710000  1.0 -0.5052931278
O  O130  1  0.94740000  0.24200000  0.18290000  1.0 -0.5052931278
O  O131  1  0.05260000  0.75800000  0.18290000  1.0 -0.5052931278
O  O132  1  0.94740000  0.75800000  0.81710000  1.0 -0.5052931278
O  O133  1  0.05260000  0.81710000  0.75800000  1.0 -0.5052931278
O  O134  1  0.94740000  0.18290000  0.75800000  1.0 -0.5052931278
O  O135  1  0.05260000  0.18290000  0.24200000  1.0 -0.5052931278
O  O136  1  0.94740000  0.81710000  0.24200000  1.0 -0.5052931278
O  O137  1  0.31710000  0.24200000  0.44740000  1.0 -0.5052931278
O  O138  1  0.68290000  0.24200000  0.55260000  1.0 -0.5052931278
O  O139  1  0.68290000  0.75800000  0.44740000  1.0 -0.5052931278
O  O140  1  0.31710000  0.75800000  0.55260000  1.0 -0.5052931278
O  O141  1  0.74200000  0.55260000  0.18290000  1.0 -0.5052931278
O  O142  1  0.74200000  0.44740000  0.81710000  1.0 -0.5052931278
O  O143  1  0.25800000  0.55260000  0.81710000  1.0 -0.5052931278
O  O144  1  0.25800000  0.44740000  0.18290000  1.0 -0.5052931278
O  O145  1  0.81710000  0.05260000  0.24200000  1.0 -0.5052931278
O  O146  1  0.18290000  0.94740000  0.24200000  1.0 -0.5052931278
O  O147  1  0.18290000  0.05260000  0.75800000  1.0 -0.5052931278
O  O148  1  0.81710000  0.94740000  0.75800000  1.0 -0.5052931278
O  O149  1  0.24200000  0.31710000  0.55260000  1.0 -0.5052931278
O  O150  1  0.24200000  0.68290000  0.44740000  1.0 -0.5052931278
O  O151  1  0.75800000  0.68290000  0.55260000  1.0 -0.5052931278
O  O152  1  0.75800000  0.31710000  0.44740000  1.0 -0.5052931278
O  O153  1  0.55260000  0.74200000  0.81710000  1.0 -0.5052931278
O  O154  1  0.44740000  0.74200000  0.18290000  1.0 -0.5052931278
O  O155  1  0.55260000  0.25800000  0.18290000  1.0 -0.5052931278
O  O156  1  0.44740000  0.25800000  0.81710000  1.0 -0.5052931278
O  O157  1  0.55260000  0.31710000  0.75800000  1.0 -0.5052931278
O  O158  1  0.44740000  0.68290000  0.75800000  1.0 -0.5052931278
O  O159  1  0.55260000  0.68290000  0.24200000  1.0 -0.5052931278
O  O160  1  0.44740000  0.31710000  0.24200000  1.0 -0.5052931278
O  O161  1  0.81710000  0.74200000  0.44740000  1.0 -0.5052931278
O  O162  1  0.18290000  0.74200000  0.55260000  1.0 -0.5052931278
O  O163  1  0.18290000  0.25800000  0.44740000  1.0 -0.5052931278
O  O164  1  0.81710000  0.25800000  0.55260000  1.0 -0.5052931278
O  O165  1  0.24200000  0.05260000  0.18290000  1.0 -0.5052931278
O  O166  1  0.24200000  0.94740000  0.81710000  1.0 -0.5052931278
O  O167  1  0.75800000  0.05260000  0.81710000  1.0 -0.5052931278
O  O168  1  0.75800000  0.94740000  0.18290000  1.0 -0.5052931278
O  O169  1  0.81710000  0.55260000  0.74200000  1.0 -0.5052931278
O  O170  1  0.18290000  0.44740000  0.74200000  1.0 -0.5052931278
O  O171  1  0.18290000  0.55260000  0.25800000  1.0 -0.5052931278
O  O172  1  0.81710000  0.44740000  0.25800000  1.0 -0.5052931278
O  O173  1  0.24200000  0.81710000  0.05260000  1.0 -0.5052931278
O  O174  1  0.24200000  0.18290000  0.94740000  1.0 -0.5052931278
O  O175  1  0.75800000  0.18290000  0.05260000  1.0 -0.5052931278
O  O176  1  0.75800000  0.81710000  0.94740000  1.0 -0.5052931278
O  O177  1  0.55260000  0.24200000  0.31710000  1.0 -0.5052931278
O  O178  1  0.44740000  0.24200000  0.68290000  1.0 -0.5052931278
O  O179  1  0.55260000  0.75800000  0.68290000  1.0 -0.5052931278
O  O180  1  0.44740000  0.75800000  0.31710000  1.0 -0.5052931278
O  O181  1  0.55260000  0.81710000  0.25800000  1.0 -0.5052931278
O  O182  1  0.44740000  0.18290000  0.25800000  1.0 -0.5052931278
O  O183  1  0.55260000  0.18290000  0.74200000  1.0 -0.5052931278
O  O184  1  0.44740000  0.81710000  0.74200000  1.0 -0.5052931278
O  O185  1  0.81710000  0.24200000  0.94740000  1.0 -0.5052931278
O  O186  1  0.18290000  0.24200000  0.05260000  1.0 -0.5052931278
O  O187  1  0.18290000  0.75800000  0.94740000  1.0 -0.5052931278
O  O188  1  0.81710000  0.75800000  0.05260000  1.0 -0.5052931278
O  O189  1  0.24200000  0.55260000  0.68290000  1.0 -0.5052931278
O  O190  1  0.24200000  0.44740000  0.31710000  1.0 -0.5052931278
O  O191  1  0.75800000  0.55260000  0.31710000  1.0 -0.5052931278
O  O192  1  0.75800000  0.44740000  0.68290000  1.0 -0.5052931278
