# DDEC6 charges by PACMAN v1.1 (https://github.com/mtap-research/PACMAN-charge/)
data_c6ce01965j2_1_ASR_pacman
_symmetry_space_group_name_H-M   'P 1'
_cell_length_a   9.77280000
_cell_length_b   31.65400000
_cell_length_c   37.31000000
_cell_angle_alpha   90.00000000
_cell_angle_beta   90.00000000
_cell_angle_gamma   90.00000000
_symmetry_Int_Tables_number   1
_chemical_formula_structural   Zn16H336C392.0N8O76.56
_chemical_formula_sum   'Zn16 H336 C392.0 N8 O76.56'
_cell_volume   11541.78175987
_cell_formula_units_Z   1
loop_
 _symmetry_equiv_pos_site_id
 _symmetry_equiv_pos_as_xyz
  1  'x, y, z'
loop_
 _atom_site_type_symbol
 _atom_site_label
 _atom_site_symmetry_multiplicity
 _atom_site_fract_x
 _atom_site_fract_y
 _atom_site_fract_z
 _atom_site_occupancy
 _atom_site_charge
Zn  Zn1  1  0.14670000  0.06867000  0.82180000  1.0 0.9386550144
Zn  Zn2  1  0.85330000  0.43133000  0.32180000  1.0 0.9386550144
Zn  Zn3  1  0.64670000  0.93133000  0.67820000  1.0 0.9386550144
Zn  Zn4  1  0.35330000  0.56867000  0.17820000  1.0 0.9386550144
Zn  Zn5  1  0.85330000  0.93133000  0.17820000  1.0 0.9386550144
Zn  Zn6  1  0.14670000  0.56867000  0.67820000  1.0 0.9386550144
Zn  Zn7  1  0.35330000  0.06867000  0.32180000  1.0 0.9386550144
Zn  Zn8  1  0.64670000  0.43133000  0.82180000  1.0 0.9386550144
Zn  Zn9  1  0.44440000  0.10815000  0.85674000  1.0 0.853792432
Zn  Zn10  1  0.55560000  0.39185000  0.35674000  1.0 0.853792432
Zn  Zn11  1  0.94440000  0.89185000  0.64326000  1.0 0.853792432
Zn  Zn12  1  0.05560000  0.60815000  0.14326000  1.0 0.853792432
Zn  Zn13  1  0.55560000  0.89185000  0.14326000  1.0 0.853792432
Zn  Zn14  1  0.44440000  0.60815000  0.64326000  1.0 0.853792432
Zn  Zn15  1  0.05560000  0.10815000  0.35674000  1.0 0.853792432
Zn  Zn16  1  0.94440000  0.39185000  0.85674000  1.0 0.853792432
H  H1  1  0.95070000  0.28290000  0.57280000  1.0 0.1214996973
H  H2  1  0.04930000  0.21710000  0.07280000  1.0 0.1214996973
H  H3  1  0.45070000  0.71710000  0.92720000  1.0 0.1214996973
H  H4  1  0.54930000  0.78290000  0.42720000  1.0 0.1214996973
H  H5  1  0.04930000  0.71710000  0.42720000  1.0 0.1214996973
H  H6  1  0.95070000  0.78290000  0.92720000  1.0 0.1214996973
H  H7  1  0.54930000  0.28290000  0.07280000  1.0 0.1214996973
H  H8  1  0.45070000  0.21710000  0.57280000  1.0 0.1214996973
H  H9  1  0.89980000  0.32580000  0.55470000  1.0 0.1270981701
H  H10  1  0.10020000  0.17420000  0.05470000  1.0 0.1270981701
H  H11  1  0.39980000  0.67420000  0.94530000  1.0 0.1270981701
H  H12  1  0.60020000  0.82580000  0.44530000  1.0 0.1270981701
H  H13  1  0.10020000  0.67420000  0.44530000  1.0 0.1270981701
H  H14  1  0.89980000  0.82580000  0.94530000  1.0 0.1270981701
H  H15  1  0.60020000  0.32580000  0.05470000  1.0 0.1270981701
H  H16  1  0.39980000  0.17420000  0.55470000  1.0 0.1270981701
H  H17  1  0.95210000  0.21800000  0.56990000  1.0 0.1214996973
H  H18  1  0.04790000  0.28200000  0.06990000  1.0 0.1214996973
H  H19  1  0.45210000  0.78200000  0.93010000  1.0 0.1214996973
H  H20  1  0.54790000  0.71800000  0.43010000  1.0 0.1214996973
H  H21  1  0.04790000  0.78200000  0.43010000  1.0 0.1214996973
H  H22  1  0.95210000  0.71800000  0.93010000  1.0 0.1214996973
H  H23  1  0.54790000  0.21800000  0.06990000  1.0 0.1214996973
H  H24  1  0.45210000  0.28200000  0.56990000  1.0 0.1214996973
H  H25  1  0.90520000  0.17720000  0.54770000  1.0 0.1214996973
H  H26  1  0.09480000  0.32280000  0.04770000  1.0 0.1214996973
H  H27  1  0.40520000  0.82280000  0.95230000  1.0 0.1214996973
H  H28  1  0.59480000  0.67720000  0.45230000  1.0 0.1214996973
H  H29  1  0.09480000  0.82280000  0.45230000  1.0 0.1214996973
H  H30  1  0.90520000  0.67720000  0.95230000  1.0 0.1214996973
H  H31  1  0.59480000  0.17720000  0.04770000  1.0 0.1214996973
H  H32  1  0.40520000  0.32280000  0.54770000  1.0 0.1214996973
H  H33  1  0.92280000  0.24410000  0.65890000  1.0 0.1270981701
H  H34  1  0.07720000  0.25590000  0.15890000  1.0 0.1270981701
H  H35  1  0.42280000  0.75590000  0.84110000  1.0 0.1270981701
H  H36  1  0.57720000  0.74410000  0.34110000  1.0 0.1270981701
H  H37  1  0.07720000  0.75590000  0.34110000  1.0 0.1270981701
H  H38  1  0.92280000  0.74410000  0.84110000  1.0 0.1270981701
H  H39  1  0.57720000  0.24410000  0.15890000  1.0 0.1270981701
H  H40  1  0.42280000  0.25590000  0.65890000  1.0 0.1270981701
H  H41  1  0.95850000  0.24760000  0.61730000  1.0 0.1214996973
H  H42  1  0.04150000  0.25240000  0.11730000  1.0 0.1214996973
H  H43  1  0.45850000  0.75240000  0.88270000  1.0 0.1214996973
H  H44  1  0.54150000  0.74760000  0.38270000  1.0 0.1214996973
H  H45  1  0.04150000  0.75240000  0.38270000  1.0 0.1214996973
H  H46  1  0.95850000  0.74760000  0.88270000  1.0 0.1214996973
H  H47  1  0.54150000  0.24760000  0.11730000  1.0 0.1214996973
H  H48  1  0.45850000  0.25240000  0.61730000  1.0 0.1214996973
H  H49  1  0.71460000  0.18120000  0.50880000  1.0 0.1214996973
H  H50  1  0.28540000  0.31880000  0.00880000  1.0 0.1214996973
H  H51  1  0.21460000  0.81880000  0.99120000  1.0 0.1214996973
H  H52  1  0.78540000  0.68120000  0.49120000  1.0 0.1214996973
H  H53  1  0.28540000  0.81880000  0.49120000  1.0 0.1214996973
H  H54  1  0.71460000  0.68120000  0.99120000  1.0 0.1214996973
H  H55  1  0.78540000  0.18120000  0.00880000  1.0 0.1214996973
H  H56  1  0.21460000  0.31880000  0.50880000  1.0 0.1214996973
H  H57  1  0.68610000  0.32510000  0.51970000  1.0 0.1270981701
H  H58  1  0.31390000  0.17490000  0.01970000  1.0 0.1270981701
H  H59  1  0.18610000  0.67490000  0.98030000  1.0 0.1270981701
H  H60  1  0.81390000  0.82510000  0.48030000  1.0 0.1270981701
H  H61  1  0.31390000  0.67490000  0.48030000  1.0 0.1270981701
H  H62  1  0.68610000  0.82510000  0.98030000  1.0 0.1270981701
H  H63  1  0.81390000  0.32510000  0.01970000  1.0 0.1270981701
H  H64  1  0.18610000  0.17490000  0.51970000  1.0 0.1270981701
H  H65  1  0.47350000  0.35430000  0.44830000  1.0 0.1214996973
H  H66  1  0.52650000  0.14570000  0.94830000  1.0 0.1214996973
H  H67  1  0.97350000  0.64570000  0.05170000  1.0 0.1214996973
H  H68  1  0.02650000  0.85430000  0.55170000  1.0 0.1214996973
H  H69  1  0.52650000  0.64570000  0.55170000  1.0 0.1214996973
H  H70  1  0.47350000  0.85430000  0.05170000  1.0 0.1214996973
H  H71  1  0.02650000  0.35430000  0.94830000  1.0 0.1214996973
H  H72  1  0.97350000  0.14570000  0.44830000  1.0 0.1214996973
H  H73  1  0.62820000  0.35490000  0.46230000  1.0 0.1214996973
H  H74  1  0.37180000  0.14510000  0.96230000  1.0 0.1214996973
H  H75  1  0.12820000  0.64510000  0.03770000  1.0 0.1118736751
H  H76  1  0.87180000  0.85490000  0.53770000  1.0 0.1118736751
H  H77  1  0.37180000  0.64510000  0.53770000  1.0 0.1118736751
H  H78  1  0.62820000  0.85490000  0.03770000  1.0 0.1118736751
H  H79  1  0.87180000  0.35490000  0.96230000  1.0 0.1214996973
H  H80  1  0.12820000  0.14510000  0.46230000  1.0 0.1118736751
H  H81  1  0.50440000  0.35340000  0.49040000  1.0 0.1021889824
H  H82  1  0.49560000  0.14660000  0.99040000  1.0 0.1021889824
H  H83  1  0.00440000  0.64660000  0.00960000  1.0 0.1021889824
H  H84  1  0.99560000  0.85340000  0.50960000  1.0 0.1021889824
H  H85  1  0.49560000  0.64660000  0.50960000  1.0 0.1021889824
H  H86  1  0.50440000  0.85340000  0.00960000  1.0 0.1021889824
H  H87  1  0.99560000  0.35340000  0.99040000  1.0 0.1021889824
H  H88  1  0.00440000  0.14660000  0.49040000  1.0 0.1021889824
H  H89  1  0.71190000  0.16980000  0.44270000  1.0 0.1214996973
H  H90  1  0.28810000  0.33020000  0.94270000  1.0 0.1214996973
H  H91  1  0.21190000  0.83020000  0.05730000  1.0 0.1214996973
H  H92  1  0.78810000  0.66980000  0.55730000  1.0 0.1214996973
H  H93  1  0.28810000  0.83020000  0.55730000  1.0 0.1214996973
H  H94  1  0.71190000  0.66980000  0.05730000  1.0 0.1214996973
H  H95  1  0.78810000  0.16980000  0.94270000  1.0 0.1214996973
H  H96  1  0.21190000  0.33020000  0.44270000  1.0 0.1214996973
H  H97  1  0.59890000  0.13380000  0.39720000  1.0 0.1270981701
H  H98  1  0.40110000  0.36620000  0.89720000  1.0 0.1270981701
H  H99  1  0.09890000  0.86620000  0.10280000  1.0 0.1270981701
H  H100  1  0.90110000  0.63380000  0.60280000  1.0 0.1270981701
H  H101  1  0.40110000  0.86620000  0.60280000  1.0 0.1270981701
H  H102  1  0.59890000  0.63380000  0.10280000  1.0 0.1270981701
H  H103  1  0.90110000  0.13380000  0.89720000  1.0 0.1270981701
H  H104  1  0.09890000  0.36620000  0.39720000  1.0 0.1270981701
H  H105  1  0.25330000  0.19660000  0.41900000  1.0 0.1270981701
H  H106  1  0.74670000  0.30340000  0.91900000  1.0 0.1270981701
H  H107  1  0.75330000  0.80340000  0.08100000  1.0 0.1270981701
H  H108  1  0.24670000  0.69660000  0.58100000  1.0 0.1270981701
H  H109  1  0.74670000  0.80340000  0.58100000  1.0 0.1270981701
H  H110  1  0.25330000  0.69660000  0.08100000  1.0 0.1270981701
H  H111  1  0.24670000  0.19660000  0.91900000  1.0 0.1270981701
H  H112  1  0.75330000  0.30340000  0.41900000  1.0 0.1270981701
H  H113  1  0.37340000  0.24050000  0.45990000  1.0 0.1214996973
H  H114  1  0.62660000  0.25950000  0.95990000  1.0 0.1214996973
H  H115  1  0.87340000  0.75950000  0.04010000  1.0 0.1214996973
H  H116  1  0.12660000  0.74050000  0.54010000  1.0 0.1214996973
H  H117  1  0.62660000  0.75950000  0.54010000  1.0 0.1214996973
H  H118  1  0.37340000  0.74050000  0.04010000  1.0 0.1214996973
H  H119  1  0.12660000  0.24050000  0.95990000  1.0 0.1214996973
H  H120  1  0.87340000  0.25950000  0.45990000  1.0 0.1214996973
H  H121  1  0.71940000  0.20440000  0.67780000  1.0 0.1214996973
H  H122  1  0.28060000  0.29560000  0.17780000  1.0 0.1214996973
H  H123  1  0.21940000  0.79560000  0.82220000  1.0 0.1214996973
H  H124  1  0.78060000  0.70440000  0.32220000  1.0 0.1214996973
H  H125  1  0.28060000  0.79560000  0.32220000  1.0 0.1214996973
H  H126  1  0.71940000  0.70440000  0.82220000  1.0 0.1214996973
H  H127  1  0.78060000  0.20440000  0.17780000  1.0 0.1214996973
H  H128  1  0.21940000  0.29560000  0.67780000  1.0 0.1214996973
H  H129  1  0.70640000  0.13710000  0.56680000  1.0 0.1270981701
H  H130  1  0.29360000  0.36290000  0.06680000  1.0 0.1270981701
H  H131  1  0.20640000  0.86290000  0.93320000  1.0 0.1270981701
H  H132  1  0.79360000  0.63710000  0.43320000  1.0 0.1270981701
H  H133  1  0.29360000  0.86290000  0.43320000  1.0 0.1270981701
H  H134  1  0.70640000  0.63710000  0.93320000  1.0 0.1270981701
H  H135  1  0.79360000  0.13710000  0.06680000  1.0 0.1270981701
H  H136  1  0.20640000  0.36290000  0.56680000  1.0 0.1270981701
H  H137  1  0.50710000  0.04950000  0.58300000  1.0 0.1270981701
H  H138  1  0.49290000  0.45050000  0.08300000  1.0 0.1270981701
H  H139  1  0.00710000  0.95050000  0.91700000  1.0 0.1270981701
H  H140  1  0.99290000  0.54950000  0.41700000  1.0 0.1270981701
H  H141  1  0.49290000  0.95050000  0.41700000  1.0 0.1270981701
H  H142  1  0.50710000  0.54950000  0.91700000  1.0 0.1270981701
H  H143  1  0.99290000  0.04950000  0.08300000  1.0 0.1270981701
H  H144  1  0.00710000  0.45050000  0.58300000  1.0 0.1270981701
H  H145  1  0.65820000  0.06700000  0.57590000  1.0 0.1118736751
H  H146  1  0.34180000  0.43300000  0.07590000  1.0 0.1118736751
H  H147  1  0.15820000  0.93300000  0.92410000  1.0 0.1118736751
H  H148  1  0.84180000  0.56700000  0.42410000  1.0 0.1118736751
H  H149  1  0.34180000  0.93300000  0.42410000  1.0 0.1118736751
H  H150  1  0.65820000  0.56700000  0.92410000  1.0 0.1118736751
H  H151  1  0.84180000  0.06700000  0.07590000  1.0 0.1118736751
H  H152  1  0.15820000  0.43300000  0.57590000  1.0 0.1118736751
H  H153  1  0.52830000  0.09300000  0.56190000  1.0 0.1118736751
H  H154  1  0.47170000  0.40700000  0.06190000  1.0 0.1118736751
H  H155  1  0.02830000  0.90700000  0.93810000  1.0 0.1118736751
H  H156  1  0.97170000  0.59300000  0.43810000  1.0 0.1118736751
H  H157  1  0.47170000  0.90700000  0.43810000  1.0 0.1118736751
H  H158  1  0.52830000  0.59300000  0.93810000  1.0 0.1118736751
H  H159  1  0.97170000  0.09300000  0.06190000  1.0 0.1118736751
H  H160  1  0.02830000  0.40700000  0.56190000  1.0 0.1118736751
H  H161  1  0.73260000  0.14350000  0.71700000  1.0 0.1214996973
H  H162  1  0.26740000  0.35650000  0.21700000  1.0 0.1214996973
H  H163  1  0.23260000  0.85650000  0.78300000  1.0 0.1214996973
H  H164  1  0.76740000  0.64350000  0.28300000  1.0 0.1214996973
H  H165  1  0.26740000  0.85650000  0.28300000  1.0 0.1214996973
H  H166  1  0.73260000  0.64350000  0.78300000  1.0 0.1214996973
H  H167  1  0.76740000  0.14350000  0.21700000  1.0 0.1214996973
H  H168  1  0.23260000  0.35650000  0.71700000  1.0 0.1214996973
H  H169  1  0.62000000  0.11540000  0.76820000  1.0 0.1214996973
H  H170  1  0.38000000  0.38460000  0.26820000  1.0 0.1214996973
H  H171  1  0.12000000  0.88460000  0.73180000  1.0 0.1214996973
H  H172  1  0.88000000  0.61540000  0.23180000  1.0 0.1214996973
H  H173  1  0.38000000  0.88460000  0.23180000  1.0 0.1214996973
H  H174  1  0.62000000  0.61540000  0.73180000  1.0 0.1214996973
H  H175  1  0.88000000  0.11540000  0.26820000  1.0 0.1214996973
H  H176  1  0.12000000  0.38460000  0.76820000  1.0 0.1214996973
H  H177  1  0.27880000  0.09950000  0.71270000  1.0 0.1214996973
H  H178  1  0.72120000  0.40050000  0.21270000  1.0 0.1214996973
H  H179  1  0.77880000  0.90050000  0.78730000  1.0 0.1214996973
H  H180  1  0.22120000  0.59950000  0.28730000  1.0 0.1214996973
H  H181  1  0.72120000  0.90050000  0.28730000  1.0 0.1214996973
H  H182  1  0.27880000  0.59950000  0.78730000  1.0 0.1214996973
H  H183  1  0.22120000  0.09950000  0.21270000  1.0 0.1214996973
H  H184  1  0.77880000  0.40050000  0.71270000  1.0 0.1214996973
H  H185  1  0.38560000  0.12050000  0.66160000  1.0 0.1118736751
H  H186  1  0.61440000  0.37950000  0.16160000  1.0 0.1118736751
H  H187  1  0.88560000  0.87950000  0.83840000  1.0 0.1118736751
H  H188  1  0.11440000  0.62050000  0.33840000  1.0 0.1118736751
H  H189  1  0.61440000  0.87950000  0.33840000  1.0 0.1118736751
H  H190  1  0.38560000  0.62050000  0.83840000  1.0 0.1118736751
H  H191  1  0.11440000  0.12050000  0.16160000  1.0 0.1118736751
H  H192  1  0.88560000  0.37950000  0.66160000  1.0 0.1118736751
H  H193  1  0.70650000  0.36440000  0.58220000  1.0 0.1214996973
H  H194  1  0.29350000  0.13560000  0.08220000  1.0 0.1214996973
H  H195  1  0.20650000  0.63560000  0.91780000  1.0 0.1214996973
H  H196  1  0.79350000  0.86440000  0.41780000  1.0 0.1214996973
H  H197  1  0.29350000  0.63560000  0.41780000  1.0 0.1214996973
H  H198  1  0.70650000  0.86440000  0.91780000  1.0 0.1214996973
H  H199  1  0.79350000  0.36440000  0.08220000  1.0 0.1214996973
H  H200  1  0.20650000  0.13560000  0.58220000  1.0 0.1214996973
H  H201  1  0.71860000  0.28150000  0.68410000  1.0 0.1214996973
H  H202  1  0.28140000  0.21850000  0.18410000  1.0 0.1214996973
H  H203  1  0.21860000  0.71850000  0.81590000  1.0 0.1214996973
H  H204  1  0.78140000  0.78150000  0.31590000  1.0 0.1270981701
H  H205  1  0.28140000  0.71850000  0.31590000  1.0 0.1270981701
H  H206  1  0.71860000  0.78150000  0.81590000  1.0 0.1214996973
H  H207  1  0.78140000  0.28150000  0.18410000  1.0 0.1214996973
H  H208  1  0.21860000  0.21850000  0.68410000  1.0 0.1214996973
H  H209  1  0.54080000  0.33210000  0.74260000  1.0 0.1376775161
H  H210  1  0.45920000  0.16790000  0.24260000  1.0 0.1376775161
H  H211  1  0.04080000  0.66790000  0.75740000  1.0 0.1376775161
H  H212  1  0.95920000  0.83210000  0.25740000  1.0 0.1376775161
H  H213  1  0.45920000  0.66790000  0.25740000  1.0 0.1376775161
H  H214  1  0.54080000  0.83210000  0.75740000  1.0 0.1376775161
H  H215  1  0.95920000  0.33210000  0.24260000  1.0 0.1376775161
H  H216  1  0.04080000  0.16790000  0.74260000  1.0 0.1376775161
H  H217  1  0.69100000  0.32060000  0.72850000  1.0 0.1214996973
H  H218  1  0.30900000  0.17940000  0.22850000  1.0 0.1214996973
H  H219  1  0.19100000  0.67940000  0.77150000  1.0 0.1214996973
H  H220  1  0.80900000  0.82060000  0.27150000  1.0 0.1214996973
H  H221  1  0.30900000  0.67940000  0.27150000  1.0 0.1214996973
H  H222  1  0.69100000  0.82060000  0.77150000  1.0 0.1214996973
H  H223  1  0.80900000  0.32060000  0.22850000  1.0 0.1214996973
H  H224  1  0.19100000  0.17940000  0.72850000  1.0 0.1214996973
H  H225  1  0.56270000  0.29260000  0.71650000  1.0 0.1118736751
H  H226  1  0.43730000  0.20740000  0.21650000  1.0 0.1118736751
H  H227  1  0.06270000  0.70740000  0.78350000  1.0 0.1118736751
H  H228  1  0.93730000  0.79260000  0.28350000  1.0 0.1118736751
H  H229  1  0.43730000  0.70740000  0.28350000  1.0 0.1118736751
H  H230  1  0.56270000  0.79260000  0.78350000  1.0 0.1118736751
H  H231  1  0.93730000  0.29260000  0.21650000  1.0 0.1118736751
H  H232  1  0.06270000  0.20740000  0.71650000  1.0 0.1118736751
H  H233  1  0.69250000  0.43480000  0.60180000  1.0 0.1118736751
H  H234  1  0.30750000  0.06520000  0.10180000  1.0 0.1118736751
H  H235  1  0.19250000  0.56520000  0.89820000  1.0 0.1118736751
H  H236  1  0.80750000  0.93480000  0.39820000  1.0 0.1118736751
H  H237  1  0.30750000  0.56520000  0.39820000  1.0 0.1118736751
H  H238  1  0.69250000  0.93480000  0.89820000  1.0 0.1118736751
H  H239  1  0.80750000  0.43480000  0.10180000  1.0 0.1118736751
H  H240  1  0.19250000  0.06520000  0.60180000  1.0 0.1118736751
H  H241  1  0.57090000  0.49730000  0.60210000  1.0 0.1214996973
H  H242  1  0.42910000  0.00270000  0.10210000  1.0 0.1214996973
H  H243  1  0.07090000  0.50270000  0.89790000  1.0 0.1214996973
H  H244  1  0.92910000  0.99730000  0.39790000  1.0 0.1214996973
H  H245  1  0.42910000  0.50270000  0.39790000  1.0 0.1214996973
H  H246  1  0.57090000  0.99730000  0.89790000  1.0 0.1214996973
H  H247  1  0.92910000  0.49730000  0.10210000  1.0 0.1214996973
H  H248  1  0.07090000  0.00270000  0.60210000  1.0 0.1214996973
H  H249  1  0.27690000  0.44310000  0.66120000  1.0 0.1270981701
H  H250  1  0.72310000  0.05690000  0.16120000  1.0 0.1270981701
H  H251  1  0.77690000  0.55690000  0.83880000  1.0 0.1214996973
H  H252  1  0.22310000  0.94310000  0.33880000  1.0 0.1270981701
H  H253  1  0.72310000  0.55690000  0.33880000  1.0 0.1270981701
H  H254  1  0.27690000  0.94310000  0.83880000  1.0 0.1270981701
H  H255  1  0.22310000  0.44310000  0.16120000  1.0 0.1270981701
H  H256  1  0.77690000  0.05690000  0.66120000  1.0 0.1214996973
H  H257  1  0.39460000  0.38050000  0.66080000  1.0 0.1021889824
H  H258  1  0.60540000  0.11950000  0.16080000  1.0 0.1021889824
H  H259  1  0.89460000  0.61950000  0.83920000  1.0 0.1021889824
H  H260  1  0.10540000  0.88050000  0.33920000  1.0 0.1021889824
H  H261  1  0.60540000  0.61950000  0.33920000  1.0 0.1021889824
H  H262  1  0.39460000  0.88050000  0.83920000  1.0 0.1021889824
H  H263  1  0.10540000  0.38050000  0.16080000  1.0 0.1021889824
H  H264  1  0.89460000  0.11950000  0.66080000  1.0 0.1021889824
H  H265  1  0.62290000  0.22000000  0.89120000  0.43 0.0786799971
H  H266  1  0.37710000  0.28000000  0.39120000  0.43 0.0786799971
H  H267  1  0.12290000  0.78000000  0.60880000  0.43 0.0786799971
H  H268  1  0.87710000  0.72000000  0.10880000  0.43 0.0786799971
H  H269  1  0.37710000  0.78000000  0.10880000  0.43 0.0786799971
H  H270  1  0.62290000  0.72000000  0.60880000  0.43 0.0786799971
H  H271  1  0.87710000  0.22000000  0.39120000  0.43 0.0786799971
H  H272  1  0.12290000  0.28000000  0.89120000  0.43 0.0786799971
H  H273  1  0.51950000  0.18130000  0.89660000  0.43 0.0920273633
H  H274  1  0.48050000  0.31870000  0.39660000  0.43 0.0920273633
H  H275  1  0.01950000  0.81870000  0.60340000  0.43 0.0920273633
H  H276  1  0.98050000  0.68130000  0.10340000  0.43 0.0920273633
H  H277  1  0.48050000  0.81870000  0.10340000  0.43 0.0920273633
H  H278  1  0.51950000  0.68130000  0.60340000  0.43 0.0920273633
H  H279  1  0.98050000  0.18130000  0.39660000  0.43 0.0920273633
H  H280  1  0.01950000  0.31870000  0.89660000  0.43 0.0920273633
H  H281  1  0.47270000  0.22190000  0.87420000  0.43 0.0786799971
H  H282  1  0.52730000  0.27810000  0.37420000  0.43 0.0786799971
H  H283  1  0.97270000  0.77810000  0.62580000  0.43 0.0786799971
H  H284  1  0.02730000  0.72190000  0.12580000  0.43 0.0786799971
H  H285  1  0.52730000  0.77810000  0.12580000  0.43 0.0786799971
H  H286  1  0.47270000  0.72190000  0.62580000  0.43 0.0786799971
H  H287  1  0.02730000  0.22190000  0.37420000  0.43 0.0786799971
H  H288  1  0.97270000  0.27810000  0.87420000  0.43 0.0786799971
H  H289  1  0.89630000  0.18140000  0.80720000  0.43 0.0920273633
H  H290  1  0.10370000  0.31860000  0.30720000  0.43 0.0920273633
H  H291  1  0.39630000  0.81860000  0.69280000  0.43 0.0920273633
H  H292  1  0.60370000  0.68140000  0.19280000  0.43 0.0920273633
H  H293  1  0.10370000  0.81860000  0.19280000  0.43 0.0920273633
H  H294  1  0.89630000  0.68140000  0.69280000  0.43 0.0920273633
H  H295  1  0.60370000  0.18140000  0.30720000  0.43 0.0920273633
H  H296  1  0.39630000  0.31860000  0.80720000  0.43 0.0920273633
H  H297  1  0.75490000  0.18010000  0.78550000  0.43 0.1118736751
H  H298  1  0.24510000  0.31990000  0.28550000  0.43 0.1118736751
H  H299  1  0.25490000  0.81990000  0.71450000  0.43 0.1118736751
H  H300  1  0.74510000  0.68010000  0.21450000  0.43 0.1118736751
H  H301  1  0.24510000  0.81990000  0.21450000  0.43 0.1118736751
H  H302  1  0.75490000  0.68010000  0.71450000  0.43 0.1118736751
H  H303  1  0.74510000  0.18010000  0.28550000  0.43 0.1118736751
H  H304  1  0.25490000  0.31990000  0.78550000  0.43 0.1118736751
H  H305  1  0.79930000  0.14080000  0.80990000  0.43 0.1214996973
H  H306  1  0.20070000  0.35920000  0.30990000  0.43 0.1214996973
H  H307  1  0.29930000  0.85920000  0.69010000  0.43 0.1214996973
H  H308  1  0.70070000  0.64080000  0.19010000  0.43 0.1214996973
H  H309  1  0.20070000  0.85920000  0.19010000  0.43 0.1214996973
H  H310  1  0.79930000  0.64080000  0.69010000  0.43 0.1214996973
H  H311  1  0.70070000  0.14080000  0.30990000  0.43 0.1214996973
H  H312  1  0.29930000  0.35920000  0.80990000  0.43 0.1214996973
H  H313  1  0.90260000  0.22420000  0.84710000  0.43 0.1021889824
H  H314  1  0.09740000  0.27580000  0.34710000  0.43 0.1021889824
H  H315  1  0.40260000  0.77580000  0.65290000  0.43 0.1021889824
H  H316  1  0.59740000  0.72420000  0.15290000  0.43 0.1021889824
H  H317  1  0.09740000  0.77580000  0.15290000  0.43 0.1021889824
H  H318  1  0.90260000  0.72420000  0.65290000  0.43 0.1021889824
H  H319  1  0.59740000  0.22420000  0.34710000  0.43 0.1021889824
H  H320  1  0.40260000  0.27580000  0.84710000  0.43 0.1021889824
H  H321  1  0.81130000  0.21810000  0.88230000  0.43 0.1021889824
H  H322  1  0.18870000  0.28190000  0.38230000  0.43 0.1021889824
H  H323  1  0.31130000  0.78190000  0.61770000  0.43 0.1021889824
H  H324  1  0.68870000  0.71810000  0.11770000  0.43 0.1021889824
H  H325  1  0.18870000  0.78190000  0.11770000  0.43 0.1021889824
H  H326  1  0.81130000  0.71810000  0.61770000  0.43 0.1021889824
H  H327  1  0.68870000  0.21810000  0.38230000  0.43 0.1021889824
H  H328  1  0.31130000  0.28190000  0.88230000  0.43 0.1021889824
H  H329  1  0.76530000  0.25120000  0.85220000  0.43 0.1118736751
H  H330  1  0.23470000  0.24880000  0.35220000  0.43 0.1118736751
H  H331  1  0.26530000  0.74880000  0.64780000  0.43 0.1118736751
H  H332  1  0.73470000  0.75120000  0.14780000  0.43 0.1118736751
H  H333  1  0.23470000  0.74880000  0.14780000  0.43 0.1118736751
H  H334  1  0.76530000  0.75120000  0.64780000  0.43 0.1118736751
H  H335  1  0.73470000  0.25120000  0.35220000  0.43 0.1118736751
H  H336  1  0.26530000  0.24880000  0.85220000  0.43 0.1118736751
H  H337  1  0.55840000  0.24560000  0.87270000  0.57 0.0786799971
H  H338  1  0.44160000  0.25440000  0.37270000  0.57 0.0786799971
H  H339  1  0.05840000  0.75440000  0.62730000  0.57 0.0786799971
H  H340  1  0.94160000  0.74560000  0.12730000  0.57 0.0786799971
H  H341  1  0.44160000  0.75440000  0.12730000  0.57 0.0786799971
H  H342  1  0.55840000  0.74560000  0.62730000  0.57 0.0786799971
H  H343  1  0.94160000  0.24560000  0.37270000  0.57 0.0786799971
H  H344  1  0.05840000  0.25440000  0.87270000  0.57 0.0786799971
H  H345  1  0.64020000  0.20260000  0.87970000  0.57 0.0786799971
H  H346  1  0.35980000  0.29740000  0.37970000  0.57 0.0786799971
H  H347  1  0.14020000  0.79740000  0.62030000  0.57 0.0786799971
H  H348  1  0.85980000  0.70260000  0.12030000  0.57 0.0786799971
H  H349  1  0.35980000  0.79740000  0.12030000  0.57 0.0786799971
H  H350  1  0.64020000  0.70260000  0.62030000  0.57 0.0786799971
H  H351  1  0.85980000  0.20260000  0.37970000  0.57 0.0786799971
H  H352  1  0.14020000  0.29740000  0.87970000  0.57 0.0786799971
H  H353  1  0.47960000  0.20500000  0.88780000  0.57 0.0920273633
H  H354  1  0.52040000  0.29500000  0.38780000  0.57 0.0920273633
H  H355  1  0.97960000  0.79500000  0.61220000  0.57 0.0920273633
H  H356  1  0.02040000  0.70500000  0.11220000  0.57 0.0920273633
H  H357  1  0.52040000  0.79500000  0.11220000  0.57 0.0920273633
H  H358  1  0.47960000  0.70500000  0.61220000  0.57 0.0920273633
H  H359  1  0.02040000  0.20500000  0.38780000  0.57 0.0920273633
H  H360  1  0.97960000  0.29500000  0.88780000  0.57 0.0920273633
H  H361  1  0.47630000  0.24180000  0.75690000  0.57 0.1118736751
H  H362  1  0.52370000  0.25820000  0.25690000  0.57 0.1118736751
H  H363  1  0.97630000  0.75820000  0.74310000  0.57 0.1118736751
H  H364  1  0.02370000  0.74180000  0.24310000  0.57 0.1118736751
H  H365  1  0.52370000  0.75820000  0.24310000  0.57 0.1118736751
H  H366  1  0.47630000  0.74180000  0.74310000  0.57 0.1118736751
H  H367  1  0.02370000  0.24180000  0.25690000  0.57 0.1118736751
H  H368  1  0.97630000  0.25820000  0.75690000  0.57 0.1118736751
H  H369  1  0.39840000  0.20040000  0.77060000  0.57 0.1214996973
H  H370  1  0.60160000  0.29960000  0.27060000  0.57 0.1214996973
H  H371  1  0.89840000  0.79960000  0.72940000  0.57 0.1214996973
H  H372  1  0.10160000  0.70040000  0.22940000  0.57 0.1214996973
H  H373  1  0.60160000  0.79960000  0.22940000  0.57 0.1214996973
H  H374  1  0.39840000  0.70040000  0.72940000  0.57 0.1214996973
H  H375  1  0.10160000  0.20040000  0.27060000  0.57 0.1214996973
H  H376  1  0.89840000  0.29960000  0.77060000  0.57 0.1214996973
H  H377  1  0.55980000  0.19900000  0.76340000  0.57 0.1118736751
H  H378  1  0.44020000  0.30100000  0.26340000  0.57 0.1118736751
H  H379  1  0.05980000  0.80100000  0.73660000  0.57 0.1118736751
H  H380  1  0.94020000  0.69900000  0.23660000  0.57 0.1118736751
H  H381  1  0.44020000  0.80100000  0.23660000  0.57 0.1118736751
H  H382  1  0.55980000  0.69900000  0.73660000  0.57 0.1118736751
H  H383  1  0.94020000  0.19900000  0.26340000  0.57 0.1118736751
H  H384  1  0.05980000  0.30100000  0.76340000  0.57 0.1118736751
H  H385  1  0.50980000  0.29000000  0.79340000  0.57 0.1021889824
H  H386  1  0.49020000  0.21000000  0.29340000  0.57 0.1021889824
H  H387  1  0.00980000  0.71000000  0.70660000  0.57 0.1021889824
H  H388  1  0.99020000  0.79000000  0.20660000  0.57 0.1118736751
H  H389  1  0.49020000  0.71000000  0.20660000  0.57 0.1021889824
H  H390  1  0.50980000  0.79000000  0.70660000  0.57 0.1021889824
H  H391  1  0.99020000  0.29000000  0.29340000  0.57 0.1021889824
H  H392  1  0.00980000  0.21000000  0.79340000  0.57 0.1021889824
H  H393  1  0.61620000  0.28020000  0.82490000  0.57 0.1214996973
H  H394  1  0.38380000  0.21980000  0.32490000  0.57 0.1214996973
H  H395  1  0.11620000  0.71980000  0.67510000  0.57 0.1214996973
H  H396  1  0.88380000  0.78020000  0.17510000  0.57 0.1214996973
H  H397  1  0.38380000  0.71980000  0.17510000  0.57 0.1214996973
H  H398  1  0.61620000  0.78020000  0.67510000  0.57 0.1214996973
H  H399  1  0.88380000  0.28020000  0.32490000  0.57 0.1214996973
H  H400  1  0.11620000  0.21980000  0.82490000  0.57 0.1214996973
H  H401  1  0.45620000  0.28350000  0.83360000  0.57 0.0786799971
H  H402  1  0.54380000  0.21650000  0.33360000  0.57 0.0786799971
H  H403  1  0.95620000  0.71650000  0.66640000  0.57 0.0786799971
H  H404  1  0.04380000  0.78350000  0.16640000  0.57 0.0786799971
H  H405  1  0.54380000  0.71650000  0.16640000  0.57 0.0786799971
H  H406  1  0.45620000  0.78350000  0.66640000  0.57 0.0786799971
H  H407  1  0.04380000  0.28350000  0.33360000  0.57 0.0786799971
H  H408  1  0.95620000  0.21650000  0.83360000  0.57 0.0786799971
C  C1  1  0.60300000  0.18340000  0.84620000  0.43 0.2137609229
C  C2  1  0.39700000  0.31660000  0.34620000  0.43 0.2137609229
C  C3  1  0.10300000  0.81660000  0.65380000  0.43 0.2137609229
C  C4  1  0.89700000  0.68340000  0.15380000  0.43 0.2137609229
C  C5  1  0.39700000  0.81660000  0.15380000  0.43 0.2137609229
C  C6  1  0.60300000  0.68340000  0.65380000  0.43 0.2137609229
C  C7  1  0.89700000  0.18340000  0.34620000  0.43 0.2137609229
C  C8  1  0.10300000  0.31660000  0.84620000  0.43 0.2137609229
C  C9  1  0.55000000  0.20300000  0.88000000  0.43 -0.234362398
C  C10  1  0.45000000  0.29700000  0.38000000  0.43 -0.234362398
C  C11  1  0.05000000  0.79700000  0.62000000  0.43 -0.234362398
C  C12  1  0.95000000  0.70300000  0.12000000  0.43 -0.234362398
C  C13  1  0.45000000  0.79700000  0.12000000  0.43 -0.234362398
C  C14  1  0.55000000  0.70300000  0.62000000  0.43 -0.234362398
C  C15  1  0.95000000  0.20300000  0.38000000  0.43 -0.234362398
C  C16  1  0.05000000  0.29700000  0.88000000  0.43 -0.234362398
C  C17  1  0.80100000  0.17200000  0.80800000  0.43 -0.3298190914
C  C18  1  0.19900000  0.32800000  0.30800000  0.43 -0.3298190914
C  C19  1  0.30100000  0.82800000  0.69200000  0.43 -0.3298190914
C  C20  1  0.69900000  0.67200000  0.19200000  0.43 -0.3298190914
C  C21  1  0.19900000  0.82800000  0.19200000  0.43 -0.3298190914
C  C22  1  0.80100000  0.67200000  0.69200000  0.43 -0.3298190914
C  C23  1  0.69900000  0.17200000  0.30800000  0.43 -0.3298190914
C  C24  1  0.30100000  0.32800000  0.80800000  0.43 -0.3298190914
C  C25  1  0.80900000  0.22400000  0.85700000  0.43 -0.3914753876
C  C26  1  0.19100000  0.27600000  0.35700000  0.43 -0.3914753876
C  C27  1  0.30900000  0.77600000  0.64300000  0.43 -0.3914753876
C  C28  1  0.69100000  0.72400000  0.14300000  0.43 -0.3914753876
C  C29  1  0.19100000  0.77600000  0.14300000  0.43 -0.3914753876
C  C30  1  0.80900000  0.72400000  0.64300000  0.43 -0.3914753876
C  C31  1  0.69100000  0.22400000  0.35700000  0.43 -0.3914753876
C  C32  1  0.30900000  0.27600000  0.85700000  0.43 -0.3914753876
C  C33  1  0.86820000  0.29930000  0.56620000  1.0 -0.3298190914
C  C34  1  0.13180000  0.20070000  0.06620000  1.0 -0.3298190914
C  C35  1  0.36820000  0.70070000  0.93380000  1.0 -0.3298190914
C  C36  1  0.63180000  0.79930000  0.43380000  1.0 -0.3298190914
C  C37  1  0.13180000  0.70070000  0.43380000  1.0 -0.3298190914
C  C38  1  0.86820000  0.79930000  0.93380000  1.0 -0.3298190914
C  C39  1  0.63180000  0.29930000  0.06620000  1.0 -0.3298190914
C  C40  1  0.36820000  0.20070000  0.56620000  1.0 -0.3298190914
C  C41  1  0.87140000  0.20200000  0.56130000  1.0 -0.3120403632
C  C42  1  0.12860000  0.29800000  0.06130000  1.0 -0.3120403632
C  C43  1  0.37140000  0.79800000  0.93870000  1.0 -0.3120403632
C  C44  1  0.62860000  0.70200000  0.43870000  1.0 -0.3120403632
C  C45  1  0.12860000  0.79800000  0.43870000  1.0 -0.3120403632
C  C46  1  0.87140000  0.70200000  0.93870000  1.0 -0.3120403632
C  C47  1  0.62860000  0.20200000  0.06130000  1.0 -0.3120403632
C  C48  1  0.37140000  0.29800000  0.56130000  1.0 -0.3120403632
C  C49  1  0.88210000  0.24600000  0.63470000  1.0 -0.3198273443
C  C50  1  0.11790000  0.25400000  0.13470000  1.0 -0.3198273443
C  C51  1  0.38210000  0.75400000  0.86530000  1.0 -0.3198273443
C  C52  1  0.61790000  0.74600000  0.36530000  1.0 -0.3198273443
C  C53  1  0.11790000  0.75400000  0.36530000  1.0 -0.3198273443
C  C54  1  0.88210000  0.74600000  0.86530000  1.0 -0.3198273443
C  C55  1  0.61790000  0.24600000  0.13470000  1.0 -0.3198273443
C  C56  1  0.38210000  0.25400000  0.63470000  1.0 -0.3198273443
C  C57  1  0.78910000  0.27440000  0.53890000  1.0 0.1118736751
C  C58  1  0.21090000  0.22560000  0.03890000  1.0 0.1118736751
C  C59  1  0.28910000  0.72560000  0.96110000  1.0 0.1118736751
C  C60  1  0.71090000  0.77440000  0.46110000  1.0 0.1118736751
C  C61  1  0.21090000  0.72560000  0.46110000  1.0 0.1118736751
C  C62  1  0.78910000  0.77440000  0.96110000  1.0 0.1118736751
C  C63  1  0.71090000  0.27440000  0.03890000  1.0 0.1118736751
C  C64  1  0.28910000  0.22560000  0.53890000  1.0 0.1118736751
C  C65  1  0.79070000  0.22980000  0.53620000  1.0 0.0786799971
C  C66  1  0.20930000  0.27020000  0.03620000  1.0 0.0786799971
C  C67  1  0.29070000  0.77020000  0.96380000  1.0 0.0786799971
C  C68  1  0.70930000  0.72980000  0.46380000  1.0 0.0786799971
C  C69  1  0.20930000  0.77020000  0.46380000  1.0 0.0786799971
C  C70  1  0.79070000  0.72980000  0.96380000  1.0 0.0786799971
C  C71  1  0.70930000  0.22980000  0.03620000  1.0 0.0786799971
C  C72  1  0.29070000  0.27020000  0.53620000  1.0 0.0786799971
C  C73  1  0.71200000  0.21120000  0.51020000  1.0 -0.1972712648
C  C74  1  0.28800000  0.28880000  0.01020000  1.0 -0.1972712648
C  C75  1  0.21200000  0.78880000  0.98980000  1.0 -0.1972712648
C  C76  1  0.78800000  0.71120000  0.48980000  1.0 -0.1972712648
C  C77  1  0.28800000  0.78880000  0.48980000  1.0 -0.1972712648
C  C78  1  0.71200000  0.71120000  0.98980000  1.0 -0.1972712648
C  C79  1  0.78800000  0.21120000  0.01020000  1.0 -0.1972712648
C  C80  1  0.21200000  0.28880000  0.51020000  1.0 -0.1972712648
C  C81  1  0.62940000  0.23190000  0.48590000  1.0 -0.0202685978
C  C82  1  0.37060000  0.26810000  0.98590000  1.0 -0.0202685978
C  C83  1  0.12940000  0.76810000  0.01410000  1.0 -0.0202685978
C  C84  1  0.87060000  0.73190000  0.51410000  1.0 -0.0202685978
C  C85  1  0.37060000  0.76810000  0.51410000  1.0 -0.0202685978
C  C86  1  0.62940000  0.73190000  0.01410000  1.0 -0.0202685978
C  C87  1  0.87060000  0.23190000  0.98590000  1.0 -0.0202685978
C  C88  1  0.12940000  0.26810000  0.48590000  1.0 -0.0202685978
C  C89  1  0.62110000  0.27590000  0.48980000  1.0 0.1999864161
C  C90  1  0.37890000  0.22410000  0.98980000  1.0 0.1999864161
C  C91  1  0.12110000  0.72410000  0.01020000  1.0 0.1999864161
C  C92  1  0.87890000  0.77590000  0.51020000  1.0 0.1999864161
C  C93  1  0.37890000  0.72410000  0.51020000  1.0 0.1999864161
C  C94  1  0.62110000  0.77590000  0.01020000  1.0 0.1999864161
C  C95  1  0.87890000  0.27590000  0.98980000  1.0 0.1999864161
C  C96  1  0.12110000  0.22410000  0.48980000  1.0 0.1999864161
C  C97  1  0.69720000  0.29550000  0.51650000  1.0 -0.293298532
C  C98  1  0.30280000  0.20450000  0.01650000  1.0 -0.293298532
C  C99  1  0.19720000  0.70450000  0.98350000  1.0 -0.293298532
C  C100  1  0.80280000  0.79550000  0.48350000  1.0 -0.293298532
C  C101  1  0.30280000  0.70450000  0.48350000  1.0 -0.293298532
C  C102  1  0.69720000  0.79550000  0.98350000  1.0 -0.293298532
C  C103  1  0.80280000  0.29550000  0.01650000  1.0 -0.293298532
C  C104  1  0.19720000  0.20450000  0.51650000  1.0 -0.293298532
C  C105  1  0.53600000  0.34390000  0.46680000  1.0 -0.2471999868
C  C106  1  0.46400000  0.15610000  0.96680000  1.0 -0.2471999868
C  C107  1  0.03600000  0.65610000  0.03320000  1.0 -0.2471999868
C  C108  1  0.96400000  0.84390000  0.53320000  1.0 -0.2471999868
C  C109  1  0.46400000  0.65610000  0.53320000  1.0 -0.2471999868
C  C110  1  0.53600000  0.84390000  0.03320000  1.0 -0.2471999868
C  C111  1  0.96400000  0.34390000  0.96680000  1.0 -0.2471999868
C  C112  1  0.03600000  0.15610000  0.46680000  1.0 -0.2471999868
C  C113  1  0.55500000  0.20950000  0.45590000  1.0 0.0786799971
C  C114  1  0.44500000  0.29050000  0.95590000  1.0 0.0786799971
C  C115  1  0.05500000  0.79050000  0.04410000  1.0 0.0786799971
C  C116  1  0.94500000  0.70950000  0.54410000  1.0 0.0786799971
C  C117  1  0.44500000  0.79050000  0.54410000  1.0 0.0786799971
C  C118  1  0.55500000  0.70950000  0.04410000  1.0 0.0786799971
C  C119  1  0.94500000  0.20950000  0.95590000  1.0 0.0786799971
C  C120  1  0.05500000  0.29050000  0.45590000  1.0 0.0786799971
C  C121  1  0.62000000  0.17680000  0.43730000  1.0 -0.1597454815
C  C122  1  0.38000000  0.32320000  0.93730000  1.0 -0.1597454815
C  C123  1  0.12000000  0.82320000  0.06270000  1.0 -0.1597454815
C  C124  1  0.88000000  0.67680000  0.56270000  1.0 -0.1597454815
C  C125  1  0.38000000  0.82320000  0.56270000  1.0 -0.1597454815
C  C126  1  0.62000000  0.67680000  0.06270000  1.0 -0.1597454815
C  C127  1  0.88000000  0.17680000  0.93730000  1.0 -0.1597454815
C  C128  1  0.12000000  0.32320000  0.43730000  1.0 -0.1597454815
C  C129  1  0.55100000  0.15430000  0.41080000  1.0 -0.0779713055
C  C130  1  0.44900000  0.34570000  0.91080000  1.0 -0.0779713055
C  C131  1  0.05100000  0.84570000  0.08920000  1.0 -0.0779713055
C  C132  1  0.94900000  0.65430000  0.58920000  1.0 -0.0779713055
C  C133  1  0.44900000  0.84570000  0.58920000  1.0 -0.0779713055
C  C134  1  0.55100000  0.65430000  0.08920000  1.0 -0.0779713055
C  C135  1  0.94900000  0.15430000  0.91080000  1.0 -0.0779713055
C  C136  1  0.05100000  0.34570000  0.41080000  1.0 -0.0779713055
C  C137  1  0.41600000  0.16120000  0.40420000  1.0 -0.0275153974
C  C138  1  0.58400000  0.33880000  0.90420000  1.0 -0.0275153974
C  C139  1  0.91600000  0.83880000  0.09580000  1.0 -0.0275153974
C  C140  1  0.08400000  0.66120000  0.59580000  1.0 -0.0275153974
C  C141  1  0.58400000  0.83880000  0.59580000  1.0 -0.0275153974
C  C142  1  0.41600000  0.66120000  0.09580000  1.0 -0.0275153974
C  C143  1  0.08400000  0.16120000  0.90420000  1.0 -0.0275153974
C  C144  1  0.91600000  0.33880000  0.40420000  1.0 -0.0275153974
C  C145  1  0.34800000  0.19220000  0.42290000  1.0 -0.1170291223
C  C146  1  0.65200000  0.30780000  0.92290000  1.0 -0.1170291223
C  C147  1  0.84800000  0.80780000  0.07710000  1.0 -0.1170291223
C  C148  1  0.15200000  0.69220000  0.57710000  1.0 -0.1170291223
C  C149  1  0.65200000  0.80780000  0.57710000  1.0 -0.1170291223
C  C150  1  0.34800000  0.69220000  0.07710000  1.0 -0.1170291223
C  C151  1  0.15200000  0.19220000  0.92290000  1.0 -0.1170291223
C  C152  1  0.84800000  0.30780000  0.42290000  1.0 -0.1170291223
C  C153  1  0.41900000  0.21790000  0.44830000  1.0 -0.1875776767
C  C154  1  0.58100000  0.28210000  0.94830000  1.0 -0.1875776767
C  C155  1  0.91900000  0.78210000  0.05170000  1.0 -0.1875776767
C  C156  1  0.08100000  0.71790000  0.55170000  1.0 -0.1875776767
C  C157  1  0.58100000  0.78210000  0.55170000  1.0 -0.1875776767
C  C158  1  0.41900000  0.71790000  0.05170000  1.0 -0.1875776767
C  C159  1  0.08100000  0.21790000  0.94830000  1.0 -0.1875776767
C  C160  1  0.91900000  0.28210000  0.44830000  1.0 -0.1875776767
C  C161  1  0.33700000  0.13380000  0.37850000  1.0 0.5699137032
C  C162  1  0.66300000  0.36620000  0.87850000  1.0 0.5699137032
C  C163  1  0.83700000  0.86620000  0.12150000  1.0 0.5699137032
C  C164  1  0.16300000  0.63380000  0.62150000  1.0 0.5699137032
C  C165  1  0.66300000  0.86620000  0.62150000  1.0 0.5699137032
C  C166  1  0.33700000  0.63380000  0.12150000  1.0 0.5699137032
C  C167  1  0.16300000  0.13380000  0.87850000  1.0 0.5699137032
C  C168  1  0.83700000  0.36620000  0.37850000  1.0 0.5699137032
C  C169  1  0.79160000  0.18670000  0.59330000  1.0 0.1118736751
C  C170  1  0.20840000  0.31330000  0.09330000  1.0 0.1118736751
C  C171  1  0.29160000  0.81330000  0.90670000  1.0 0.1118736751
C  C172  1  0.70840000  0.68670000  0.40670000  1.0 0.1118736751
C  C173  1  0.20840000  0.81330000  0.40670000  1.0 0.1118736751
C  C174  1  0.79160000  0.68670000  0.90670000  1.0 0.1118736751
C  C175  1  0.70840000  0.18670000  0.09330000  1.0 0.1118736751
C  C176  1  0.29160000  0.31330000  0.59330000  1.0 0.1118736751
C  C177  1  0.80330000  0.20590000  0.62760000  1.0 0.0708483688
C  C178  1  0.19670000  0.29410000  0.12760000  1.0 0.0708483688
C  C179  1  0.30330000  0.79410000  0.87240000  1.0 0.0708483688
C  C180  1  0.69670000  0.70590000  0.37240000  1.0 0.0708483688
C  C181  1  0.19670000  0.79410000  0.37240000  1.0 0.0708483688
C  C182  1  0.80330000  0.70590000  0.87240000  1.0 0.0708483688
C  C183  1  0.69670000  0.20590000  0.12760000  1.0 0.0708483688
C  C184  1  0.30330000  0.29410000  0.62760000  1.0 0.0708483688
C  C185  1  0.72170000  0.18940000  0.65580000  1.0 -0.1972712648
C  C186  1  0.27830000  0.31060000  0.15580000  1.0 -0.1972712648
C  C187  1  0.22170000  0.81060000  0.84420000  1.0 -0.1972712648
C  C188  1  0.77830000  0.68940000  0.34420000  1.0 -0.1972712648
C  C189  1  0.27830000  0.81060000  0.34420000  1.0 -0.1972712648
C  C190  1  0.72170000  0.68940000  0.84420000  1.0 -0.1972712648
C  C191  1  0.77830000  0.18940000  0.15580000  1.0 -0.1972712648
C  C192  1  0.22170000  0.31060000  0.65580000  1.0 -0.1972712648
C  C193  1  0.64730000  0.15390000  0.65300000  1.0 -0.0202685978
C  C194  1  0.35270000  0.34610000  0.15300000  1.0 -0.0202685978
C  C195  1  0.14730000  0.84610000  0.84700000  1.0 -0.0202685978
C  C196  1  0.85270000  0.65390000  0.34700000  1.0 -0.0202685978
C  C197  1  0.35270000  0.84610000  0.34700000  1.0 -0.0202685978
C  C198  1  0.64730000  0.65390000  0.84700000  1.0 -0.0202685978
C  C199  1  0.85270000  0.15390000  0.15300000  1.0 -0.0202685978
C  C200  1  0.14730000  0.34610000  0.65300000  1.0 -0.0202685978
C  C201  1  0.63310000  0.13540000  0.61730000  1.0 0.1999864161
C  C202  1  0.36690000  0.36460000  0.11730000  1.0 0.1999864161
C  C203  1  0.13310000  0.86460000  0.88270000  1.0 0.1999864161
C  C204  1  0.86690000  0.63540000  0.38270000  1.0 0.1999864161
C  C205  1  0.36690000  0.86460000  0.38270000  1.0 0.1999864161
C  C206  1  0.63310000  0.63540000  0.88270000  1.0 0.1999864161
C  C207  1  0.86690000  0.13540000  0.11730000  1.0 0.1999864161
C  C208  1  0.13310000  0.36460000  0.61730000  1.0 0.1999864161
C  C209  1  0.70960000  0.15100000  0.58930000  1.0 -0.3042171443
C  C210  1  0.29040000  0.34900000  0.08930000  1.0 -0.3120403632
C  C211  1  0.20960000  0.84900000  0.91070000  1.0 -0.3042171443
C  C212  1  0.79040000  0.65100000  0.41070000  1.0 -0.3042171443
C  C213  1  0.29040000  0.84900000  0.41070000  1.0 -0.3042171443
C  C214  1  0.70960000  0.65100000  0.91070000  1.0 -0.3042171443
C  C215  1  0.79040000  0.15100000  0.08930000  1.0 -0.3120403632
C  C216  1  0.20960000  0.34900000  0.58930000  1.0 -0.3042171443
C  C217  1  0.56300000  0.07500000  0.58120000  1.0 -0.2600951183
C  C218  1  0.43700000  0.42500000  0.08120000  1.0 -0.2600951183
C  C219  1  0.06300000  0.92500000  0.91880000  1.0 -0.2600951183
C  C220  1  0.93700000  0.57500000  0.41880000  1.0 -0.2600951183
C  C221  1  0.43700000  0.92500000  0.41880000  1.0 -0.2600951183
C  C222  1  0.56300000  0.57500000  0.91880000  1.0 -0.2600951183
C  C223  1  0.93700000  0.07500000  0.08120000  1.0 -0.2600951183
C  C224  1  0.06300000  0.42500000  0.58120000  1.0 -0.2600951183
C  C225  1  0.57100000  0.13580000  0.68420000  1.0 0.0920273633
C  C226  1  0.42900000  0.36420000  0.18420000  1.0 0.0920273633
C  C227  1  0.07100000  0.86420000  0.81580000  1.0 0.0920273633
C  C228  1  0.92900000  0.63580000  0.31580000  1.0 0.0920273633
C  C229  1  0.42900000  0.86420000  0.31580000  1.0 0.0920273633
C  C230  1  0.57100000  0.63580000  0.81580000  1.0 0.0920273633
C  C231  1  0.92900000  0.13580000  0.18420000  1.0 0.0920273633
C  C232  1  0.07100000  0.36420000  0.68420000  1.0 0.0920273633
C  C233  1  0.64000000  0.13420000  0.71550000  1.0 -0.1597454815
C  C234  1  0.36000000  0.36580000  0.21550000  1.0 -0.1597454815
C  C235  1  0.14000000  0.86580000  0.78450000  1.0 -0.1597454815
C  C236  1  0.86000000  0.63420000  0.28450000  1.0 -0.1597454815
C  C237  1  0.36000000  0.86580000  0.28450000  1.0 -0.1597454815
C  C238  1  0.64000000  0.63420000  0.78450000  1.0 -0.1597454815
C  C239  1  0.86000000  0.13420000  0.21550000  1.0 -0.1597454815
C  C240  1  0.14000000  0.36580000  0.71550000  1.0 -0.1597454815
C  C241  1  0.57000000  0.11790000  0.74650000  1.0 -0.0984951165
C  C242  1  0.43000000  0.38210000  0.24650000  1.0 -0.0984951165
C  C243  1  0.07000000  0.88210000  0.75350000  1.0 -0.0984951165
C  C244  1  0.93000000  0.61790000  0.25350000  1.0 -0.0984951165
C  C245  1  0.43000000  0.88210000  0.25350000  1.0 -0.0984951165
C  C246  1  0.57000000  0.61790000  0.75350000  1.0 -0.0984951165
C  C247  1  0.93000000  0.11790000  0.24650000  1.0 -0.0984951165
C  C248  1  0.07000000  0.38210000  0.74650000  1.0 -0.0984951165
C  C249  1  0.43900000  0.10610000  0.74700000  1.0 -0.0275153974
C  C250  1  0.56100000  0.39390000  0.24700000  1.0 -0.0275153974
C  C251  1  0.93900000  0.89390000  0.75300000  1.0 -0.0275153974
C  C252  1  0.06100000  0.60610000  0.25300000  1.0 -0.0275153974
C  C253  1  0.56100000  0.89390000  0.25300000  1.0 -0.0275153974
C  C254  1  0.43900000  0.60610000  0.75300000  1.0 -0.0275153974
C  C255  1  0.06100000  0.10610000  0.24700000  1.0 -0.0275153974
C  C256  1  0.93900000  0.39390000  0.74700000  1.0 -0.0275153974
C  C257  1  0.37200000  0.10790000  0.71390000  1.0 -0.0984951165
C  C258  1  0.62800000  0.39210000  0.21390000  1.0 -0.0984951165
C  C259  1  0.87200000  0.89210000  0.78610000  1.0 -0.0984951165
C  C260  1  0.12800000  0.60790000  0.28610000  1.0 -0.0984951165
C  C261  1  0.62800000  0.89210000  0.28610000  1.0 -0.0984951165
C  C262  1  0.37200000  0.60790000  0.78610000  1.0 -0.0984951165
C  C263  1  0.12800000  0.10790000  0.21390000  1.0 -0.0984951165
C  C264  1  0.87200000  0.39210000  0.71390000  1.0 -0.0984951165
C  C265  1  0.43400000  0.12110000  0.68360000  1.0 -0.1334138408
C  C266  1  0.56600000  0.37890000  0.18360000  1.0 -0.1334138408
C  C267  1  0.93400000  0.87890000  0.81640000  1.0 -0.1334138408
C  C268  1  0.06600000  0.62110000  0.31640000  1.0 -0.1334138408
C  C269  1  0.56600000  0.87890000  0.31640000  1.0 -0.1334138408
C  C270  1  0.43400000  0.62110000  0.81640000  1.0 -0.1334138408
C  C271  1  0.06600000  0.12110000  0.18360000  1.0 -0.1334138408
C  C272  1  0.93400000  0.37890000  0.68360000  1.0 -0.1334138408
C  C273  1  0.36400000  0.09410000  0.78080000  1.0 0.5800381259
C  C274  1  0.63600000  0.40590000  0.28080000  1.0 0.5800381259
C  C275  1  0.86400000  0.90590000  0.71920000  1.0 0.5800381259
C  C276  1  0.13600000  0.59410000  0.21920000  1.0 0.5800381259
C  C277  1  0.63600000  0.90590000  0.21920000  1.0 0.5800381259
C  C278  1  0.36400000  0.59410000  0.71920000  1.0 0.5800381259
C  C279  1  0.13600000  0.09410000  0.28080000  1.0 0.5800381259
C  C280  1  0.86400000  0.40590000  0.78080000  1.0 0.5800381259
C  C281  1  0.80140000  0.28660000  0.63240000  1.0 0.1118736751
C  C282  1  0.19860000  0.21340000  0.13240000  1.0 0.1118736751
C  C283  1  0.30140000  0.71340000  0.86760000  1.0 0.1118736751
C  C284  1  0.69860000  0.78660000  0.36760000  1.0 0.1118736751
C  C285  1  0.19860000  0.71340000  0.36760000  1.0 0.1118736751
C  C286  1  0.80140000  0.78660000  0.86760000  1.0 0.1118736751
C  C287  1  0.69860000  0.28660000  0.13240000  1.0 0.1118736751
C  C288  1  0.30140000  0.21340000  0.63240000  1.0 0.1118736751
C  C289  1  0.79280000  0.31100000  0.60060000  1.0 0.0708483688
C  C290  1  0.20720000  0.18900000  0.10060000  1.0 0.0708483688
C  C291  1  0.29280000  0.68900000  0.89940000  1.0 0.0708483688
C  C292  1  0.70720000  0.81100000  0.39940000  1.0 0.0708483688
C  C293  1  0.20720000  0.68900000  0.39940000  1.0 0.0708483688
C  C294  1  0.79280000  0.81100000  0.89940000  1.0 0.0708483688
C  C295  1  0.70720000  0.31100000  0.10060000  1.0 0.0708483688
C  C296  1  0.29280000  0.18900000  0.60060000  1.0 0.0708483688
C  C297  1  0.71100000  0.34710000  0.60290000  1.0 -0.1875776767
C  C298  1  0.28900000  0.15290000  0.10290000  1.0 -0.1875776767
C  C299  1  0.21100000  0.65290000  0.89710000  1.0 -0.1875776767
C  C300  1  0.78900000  0.84710000  0.39710000  1.0 -0.1875776767
C  C301  1  0.28900000  0.65290000  0.39710000  1.0 -0.1875776767
C  C302  1  0.71100000  0.84710000  0.89710000  1.0 -0.1875776767
C  C303  1  0.78900000  0.34710000  0.10290000  1.0 -0.1875776767
C  C304  1  0.21100000  0.15290000  0.60290000  1.0 -0.1875776767
C  C305  1  0.63900000  0.35940000  0.63070000  1.0 -0.0109715022
C  C306  1  0.36100000  0.14060000  0.13070000  1.0 -0.0109715022
C  C307  1  0.13900000  0.64060000  0.86930000  1.0 -0.0109715022
C  C308  1  0.86100000  0.85940000  0.36930000  1.0 -0.0109715022
C  C309  1  0.36100000  0.64060000  0.36930000  1.0 -0.0109715022
C  C310  1  0.63900000  0.85940000  0.86930000  1.0 -0.0109715022
C  C311  1  0.86100000  0.35940000  0.13070000  1.0 -0.0109715022
C  C312  1  0.13900000  0.14060000  0.63070000  1.0 -0.0109715022
C  C313  1  0.64700000  0.33380000  0.66250000  1.0 0.1796916083
C  C314  1  0.35300000  0.16620000  0.16250000  1.0 0.1796916083
C  C315  1  0.14700000  0.66620000  0.83750000  1.0 0.1796916083
C  C316  1  0.85300000  0.83380000  0.33750000  1.0 0.1796916083
C  C317  1  0.35300000  0.66620000  0.33750000  1.0 0.1796916083
C  C318  1  0.64700000  0.83380000  0.83750000  1.0 0.1796916083
C  C319  1  0.85300000  0.33380000  0.16250000  1.0 0.1796916083
C  C320  1  0.14700000  0.16620000  0.66250000  1.0 0.1796916083
C  C321  1  0.71950000  0.29880000  0.66330000  1.0 -0.3198273443
C  C322  1  0.28050000  0.20120000  0.16330000  1.0 -0.3198273443
C  C323  1  0.21950000  0.70120000  0.83670000  1.0 -0.3198273443
C  C324  1  0.78050000  0.79880000  0.33670000  1.0 -0.3198273443
C  C325  1  0.28050000  0.70120000  0.33670000  1.0 -0.3198273443
C  C326  1  0.71950000  0.79880000  0.83670000  1.0 -0.3198273443
C  C327  1  0.78050000  0.29880000  0.16330000  1.0 -0.3198273443
C  C328  1  0.21950000  0.20120000  0.66330000  1.0 -0.3198273443
C  C329  1  0.59400000  0.32120000  0.72230000  1.0 -0.2600951183
C  C330  1  0.40600000  0.17880000  0.22230000  1.0 -0.2600951183
C  C331  1  0.09400000  0.67880000  0.77770000  1.0 -0.2600951183
C  C332  1  0.90600000  0.82120000  0.27770000  1.0 -0.2600951183
C  C333  1  0.40600000  0.67880000  0.27770000  1.0 -0.2600951183
C  C334  1  0.59400000  0.82120000  0.77770000  1.0 -0.2600951183
C  C335  1  0.90600000  0.32120000  0.22230000  1.0 -0.2600951183
C  C336  1  0.09400000  0.17880000  0.72230000  1.0 -0.2600951183
C  C337  1  0.55800000  0.39990000  0.63070000  1.0 0.0920273633
C  C338  1  0.44200000  0.10010000  0.13070000  1.0 0.0920273633
C  C339  1  0.05800000  0.60010000  0.86930000  1.0 0.0920273633
C  C340  1  0.94200000  0.89990000  0.36930000  1.0 0.0920273633
C  C341  1  0.44200000  0.60010000  0.36930000  1.0 0.0920273633
C  C342  1  0.55800000  0.89990000  0.86930000  1.0 0.0920273633
C  C343  1  0.94200000  0.39990000  0.13070000  1.0 0.0920273633
C  C344  1  0.05800000  0.10010000  0.63070000  1.0 0.0920273633
C  C345  1  0.60700000  0.43600000  0.61410000  1.0 -0.1597454815
C  C346  1  0.39300000  0.06400000  0.11410000  1.0 -0.1597454815
C  C347  1  0.10700000  0.56400000  0.88590000  1.0 -0.1651018008
C  C348  1  0.89300000  0.93600000  0.38590000  1.0 -0.1597454815
C  C349  1  0.39300000  0.56400000  0.38590000  1.0 -0.1597454815
C  C350  1  0.60700000  0.93600000  0.88590000  1.0 -0.1651018008
C  C351  1  0.89300000  0.43600000  0.11410000  1.0 -0.1597454815
C  C352  1  0.10700000  0.06400000  0.61410000  1.0 -0.1597454815
C  C353  1  0.53600000  0.47360000  0.61480000  1.0 -0.1170291223
C  C354  1  0.46400000  0.02640000  0.11480000  1.0 -0.1170291223
C  C355  1  0.03600000  0.52640000  0.88520000  1.0 -0.1170291223
C  C356  1  0.96400000  0.97360000  0.38520000  1.0 -0.1170291223
C  C357  1  0.46400000  0.52640000  0.38520000  1.0 -0.1170291223
C  C358  1  0.53600000  0.97360000  0.88520000  1.0 -0.1170291223
C  C359  1  0.96400000  0.47360000  0.11480000  1.0 -0.1170291223
C  C360  1  0.03600000  0.02640000  0.61480000  1.0 -0.1170291223
C  C361  1  0.40900000  0.47770000  0.63470000  1.0 -0.0275153974
C  C362  1  0.59100000  0.02230000  0.13470000  1.0 -0.0275153974
C  C363  1  0.90900000  0.52230000  0.86530000  1.0 -0.0275153974
C  C364  1  0.09100000  0.97770000  0.36530000  1.0 -0.0275153974
C  C365  1  0.59100000  0.52230000  0.36530000  1.0 -0.0275153974
C  C366  1  0.40900000  0.97770000  0.86530000  1.0 -0.0275153974
C  C367  1  0.09100000  0.47770000  0.13470000  1.0 -0.0275153974
C  C368  1  0.90900000  0.02230000  0.63470000  1.0 -0.0275153974
C  C369  1  0.36300000  0.44230000  0.64940000  1.0 -0.088059223
C  C370  1  0.63700000  0.05770000  0.14940000  1.0 -0.088059223
C  C371  1  0.86300000  0.55770000  0.85060000  1.0 -0.088059223
C  C372  1  0.13700000  0.94230000  0.35060000  1.0 -0.088059223
C  C373  1  0.63700000  0.55770000  0.35060000  1.0 -0.088059223
C  C374  1  0.36300000  0.94230000  0.85060000  1.0 -0.088059223
C  C375  1  0.13700000  0.44230000  0.14940000  1.0 -0.088059223
C  C376  1  0.86300000  0.05770000  0.64940000  1.0 -0.088059223
C  C377  1  0.43200000  0.40420000  0.64880000  1.0 -0.1501150548
C  C378  1  0.56800000  0.09580000  0.14880000  1.0 -0.1501150548
C  C379  1  0.93200000  0.59580000  0.85120000  1.0 -0.1501150548
C  C380  1  0.06800000  0.90420000  0.35120000  1.0 -0.1501150548
C  C381  1  0.56800000  0.59580000  0.35120000  1.0 -0.1501150548
C  C382  1  0.43200000  0.90420000  0.85120000  1.0 -0.1501150548
C  C383  1  0.06800000  0.40420000  0.14880000  1.0 -0.1501150548
C  C384  1  0.93200000  0.09580000  0.64880000  1.0 -0.1501150548
C  C385  1  0.34700000  0.52100000  0.63680000  1.0 0.5958095745
C  C386  1  0.65300000  0.97900000  0.13680000  1.0 0.5958095745
C  C387  1  0.84700000  0.47900000  0.86320000  1.0 0.5949811891
C  C388  1  0.15300000  0.02100000  0.36320000  1.0 0.5958095745
C  C389  1  0.65300000  0.47900000  0.36320000  1.0 0.5958095745
C  C390  1  0.34700000  0.02100000  0.86320000  1.0 0.5958095745
C  C391  1  0.15300000  0.52100000  0.13680000  1.0 0.5958095745
C  C392  1  0.84700000  0.97900000  0.63680000  1.0 0.5949811891
C  C393  1  0.52300000  0.20080000  0.83420000  0.57 0.2375241064
C  C394  1  0.47700000  0.29920000  0.33420000  0.57 0.2375241064
C  C395  1  0.02300000  0.79920000  0.66580000  0.57 0.2375241064
C  C396  1  0.97700000  0.70080000  0.16580000  0.57 0.2375241064
C  C397  1  0.47700000  0.79920000  0.16580000  0.57 0.2375241064
C  C398  1  0.52300000  0.70080000  0.66580000  0.57 0.2375241064
C  C399  1  0.97700000  0.20080000  0.33420000  0.57 0.2375241064
C  C400  1  0.02300000  0.29920000  0.83420000  0.57 0.2375241064
C  C401  1  0.55300000  0.21500000  0.87190000  0.57 -0.2413145692
C  C402  1  0.44700000  0.28500000  0.37190000  0.57 -0.2413145692
C  C403  1  0.05300000  0.78500000  0.62810000  0.57 -0.2413145692
C  C404  1  0.94700000  0.71500000  0.12810000  0.57 -0.2413145692
C  C405  1  0.44700000  0.78500000  0.12810000  0.57 -0.2413145692
C  C406  1  0.55300000  0.71500000  0.62810000  0.57 -0.2413145692
C  C407  1  0.94700000  0.21500000  0.37190000  0.57 -0.2413145692
C  C408  1  0.05300000  0.28500000  0.87190000  0.57 -0.2413145692
C  C409  1  0.48400000  0.21600000  0.77190000  0.57 -0.3436419524
C  C410  1  0.51600000  0.28400000  0.27190000  0.57 -0.3436419524
C  C411  1  0.98400000  0.78400000  0.72810000  0.57 -0.3436419524
C  C412  1  0.01600000  0.71600000  0.22810000  0.57 -0.3436419524
C  C413  1  0.51600000  0.78400000  0.22810000  0.57 -0.3436419524
C  C414  1  0.48400000  0.71600000  0.72810000  0.57 -0.3436419524
C  C415  1  0.01600000  0.21600000  0.27190000  0.57 -0.3436419524
C  C416  1  0.98400000  0.28400000  0.77190000  0.57 -0.3436419524
C  C417  1  0.52400000  0.27440000  0.81580000  0.57 -0.3436419524
C  C418  1  0.47600000  0.22560000  0.31580000  0.57 -0.3436419524
C  C419  1  0.02400000  0.72560000  0.68420000  0.57 -0.3436419524
C  C420  1  0.97600000  0.77440000  0.18420000  0.57 -0.3436419524
C  C421  1  0.47600000  0.72560000  0.18420000  0.57 -0.3436419524
C  C422  1  0.52400000  0.77440000  0.68420000  0.57 -0.3436419524
C  C423  1  0.97600000  0.27440000  0.31580000  0.57 -0.3436419524
C  C424  1  0.02400000  0.22560000  0.81580000  0.57 -0.3436419524
N  N1  1  0.73100000  0.19050000  0.83840000  0.43 -0.0984951165
N  N2  1  0.26900000  0.30950000  0.33840000  0.43 -0.0984951165
N  N3  1  0.23100000  0.80950000  0.66160000  0.43 -0.0984951165
N  N4  1  0.76900000  0.69050000  0.16160000  0.43 -0.0984951165
N  N5  1  0.26900000  0.80950000  0.16160000  0.43 -0.0984951165
N  N6  1  0.73100000  0.69050000  0.66160000  0.43 -0.0984951165
N  N7  1  0.76900000  0.19050000  0.33840000  0.43 -0.0984951165
N  N8  1  0.23100000  0.30950000  0.83840000  0.43 -0.0984951165
N  N9  1  0.50900000  0.22910000  0.80910000  0.57 -0.1118535146
N  N10  1  0.49100000  0.27090000  0.30910000  0.57 -0.1118535146
N  N11  1  0.00900000  0.77090000  0.69090000  0.57 -0.1118535146
N  N12  1  0.99100000  0.72910000  0.19090000  0.57 -0.1118535146
N  N13  1  0.49100000  0.77090000  0.19090000  0.57 -0.1118535146
N  N14  1  0.50900000  0.72910000  0.69090000  0.57 -0.1118535146
N  N15  1  0.99100000  0.22910000  0.30910000  0.57 -0.1118535146
N  N16  1  0.00900000  0.27090000  0.80910000  0.57 -0.1118535146
O  O1  1  0.53930000  0.29790000  0.46590000  1.0 -0.2413145692
O  O2  1  0.46070000  0.20210000  0.96590000  1.0 -0.2413145692
O  O3  1  0.03930000  0.70210000  0.03410000  1.0 -0.2413145692
O  O4  1  0.96070000  0.79790000  0.53410000  1.0 -0.2413145692
O  O5  1  0.46070000  0.70210000  0.53410000  1.0 -0.2413145692
O  O6  1  0.53930000  0.79790000  0.03410000  1.0 -0.2413145692
O  O7  1  0.96070000  0.29790000  0.96590000  1.0 -0.2413145692
O  O8  1  0.03930000  0.20210000  0.46590000  1.0 -0.2413145692
O  O9  1  0.21660000  0.13930000  0.37410000  1.0 -0.5090864792
O  O10  1  0.78340000  0.36070000  0.87410000  1.0 -0.5090864792
O  O11  1  0.71660000  0.86070000  0.12590000  1.0 -0.5090864792
O  O12  1  0.28340000  0.63930000  0.62590000  1.0 -0.5090864792
O  O13  1  0.78340000  0.86070000  0.62590000  1.0 -0.5090864792
O  O14  1  0.21660000  0.63930000  0.12590000  1.0 -0.5090864792
O  O15  1  0.28340000  0.13930000  0.87410000  1.0 -0.5090864792
O  O16  1  0.71660000  0.36070000  0.37410000  1.0 -0.5090864792
O  O17  1  0.41260000  0.10870000  0.35910000  1.0 -0.5808055892
O  O18  1  0.58740000  0.39130000  0.85910000  1.0 -0.5808055892
O  O19  1  0.91260000  0.89130000  0.14090000  1.0 -0.5808055892
O  O20  1  0.08740000  0.60870000  0.64090000  1.0 -0.5808055892
O  O21  1  0.58740000  0.89130000  0.64090000  1.0 -0.5808055892
O  O22  1  0.41260000  0.60870000  0.14090000  1.0 -0.5808055892
O  O23  1  0.08740000  0.10870000  0.85910000  1.0 -0.5808055892
O  O24  1  0.91260000  0.39130000  0.35910000  1.0 -0.5808055892
O  O25  1  0.55830000  0.09830000  0.61540000  1.0 -0.1651018008
O  O26  1  0.44170000  0.40170000  0.11540000  1.0 -0.1651018008
O  O27  1  0.05830000  0.90170000  0.88460000  1.0 -0.1651018008
O  O28  1  0.94170000  0.59830000  0.38460000  1.0 -0.1597454815
O  O29  1  0.44170000  0.90170000  0.38460000  1.0 -0.1597454815
O  O30  1  0.55830000  0.59830000  0.88460000  1.0 -0.1651018008
O  O31  1  0.94170000  0.09830000  0.11540000  1.0 -0.1651018008
O  O32  1  0.05830000  0.40170000  0.61540000  1.0 -0.1651018008
O  O33  1  0.24360000  0.09080000  0.77960000  1.0 -0.5027450665
O  O34  1  0.75640000  0.40920000  0.27960000  1.0 -0.5027450665
O  O35  1  0.74360000  0.90920000  0.72040000  1.0 -0.5027450665
O  O36  1  0.25640000  0.59080000  0.22040000  1.0 -0.5027450665
O  O37  1  0.75640000  0.90920000  0.22040000  1.0 -0.5027450665
O  O38  1  0.24360000  0.59080000  0.72040000  1.0 -0.5027450665
O  O39  1  0.25640000  0.09080000  0.27960000  1.0 -0.5027450665
O  O40  1  0.74360000  0.40920000  0.77960000  1.0 -0.5027450665
O  O41  1  0.44260000  0.08760000  0.80720000  1.0 -0.559299831
O  O42  1  0.55740000  0.41240000  0.30720000  1.0 -0.559299831
O  O43  1  0.94260000  0.91240000  0.69280000  1.0 -0.559299831
O  O44  1  0.05740000  0.58760000  0.19280000  1.0 -0.559299831
O  O45  1  0.55740000  0.91240000  0.19280000  1.0 -0.559299831
O  O46  1  0.44260000  0.58760000  0.69280000  1.0 -0.559299831
O  O47  1  0.05740000  0.08760000  0.30720000  1.0 -0.559299831
O  O48  1  0.94260000  0.41240000  0.80720000  1.0 -0.559299831
O  O49  1  0.57390000  0.34780000  0.69220000  1.0 -0.1597454815
O  O50  1  0.42610000  0.15220000  0.19220000  1.0 -0.1597454815
O  O51  1  0.07390000  0.65220000  0.80780000  1.0 -0.1597454815
O  O52  1  0.92610000  0.84780000  0.30780000  1.0 -0.1597454815
O  O53  1  0.42610000  0.65220000  0.30780000  1.0 -0.1597454815
O  O54  1  0.57390000  0.84780000  0.80780000  1.0 -0.1597454815
O  O55  1  0.92610000  0.34780000  0.19220000  1.0 -0.1597454815
O  O56  1  0.07390000  0.15220000  0.69220000  1.0 -0.1597454815
O  O57  1  0.23870000  0.51930000  0.65780000  1.0 -0.5922776431
O  O58  1  0.76130000  0.98070000  0.15780000  1.0 -0.5922776431
O  O59  1  0.73870000  0.48070000  0.84220000  1.0 -0.5922776431
O  O60  1  0.26130000  0.01930000  0.34220000  1.0 -0.5922776431
O  O61  1  0.76130000  0.48070000  0.34220000  1.0 -0.5922776431
O  O62  1  0.23870000  0.01930000  0.84220000  1.0 -0.5922776431
O  O63  1  0.26130000  0.51930000  0.15780000  1.0 -0.5922776431
O  O64  1  0.73870000  0.98070000  0.65780000  1.0 -0.5922776431
O  O65  1  0.39360000  0.55230000  0.62370000  1.0 -0.5197909072
O  O66  1  0.60640000  0.94770000  0.12370000  1.0 -0.5197909072
O  O67  1  0.89360000  0.44770000  0.87630000  1.0 -0.5197909072
O  O68  1  0.10640000  0.05230000  0.37630000  1.0 -0.5197909072
O  O69  1  0.60640000  0.44770000  0.37630000  1.0 -0.5197909072
O  O70  1  0.39360000  0.05230000  0.87630000  1.0 -0.5197909072
O  O71  1  0.10640000  0.55230000  0.12370000  1.0 -0.5197909072
O  O72  1  0.89360000  0.94770000  0.62370000  1.0 -0.5197909072
O  O73  1  0.51500000  0.16220000  0.83110000  0.57 -0.3120403632
O  O74  1  0.48500000  0.33780000  0.33110000  0.57 -0.3198273443
O  O75  1  0.01500000  0.83780000  0.66890000  0.57 -0.3198273443
O  O76  1  0.98500000  0.66220000  0.16890000  0.57 -0.3198273443
O  O77  1  0.48500000  0.83780000  0.16890000  0.57 -0.3198273443
O  O78  1  0.51500000  0.66220000  0.66890000  0.57 -0.3198273443
O  O79  1  0.98500000  0.16220000  0.33110000  0.57 -0.3198273443
O  O80  1  0.01500000  0.33780000  0.83110000  0.57 -0.3120403632
