# DDEC6 charges by PACMAN v1.1 (https://github.com/mtap-research/PACMAN-charge/)
data_ja7b08347_si_004_ASR_pacman
_symmetry_space_group_name_H-M   'P 1'
_cell_length_a   30.92600000
_cell_length_b   30.92600000
_cell_length_c   35.15700000
_cell_angle_alpha   90.00000000
_cell_angle_beta   90.00000000
_cell_angle_gamma   90.00000000
_symmetry_Int_Tables_number   1
_chemical_formula_structural   Zn12H80C132(N8O13)3
_chemical_formula_sum   'Zn24 H160 C264 N48 O78'
_cell_volume   33624.76920373
_cell_formula_units_Z   2
loop_
 _symmetry_equiv_pos_site_id
 _symmetry_equiv_pos_as_xyz
  1  'x, y, z'
loop_
 _atom_site_type_symbol
 _atom_site_label
 _atom_site_symmetry_multiplicity
 _atom_site_fract_x
 _atom_site_fract_y
 _atom_site_fract_z
 _atom_site_occupancy
 _atom_site_charge
Zn  Zn1  1  0.24892000  0.44864000  0.23861000  1.0 0.9879805152
Zn  Zn2  1  0.32381000  0.48690000  0.29445000  1.0 0.9791466235
Zn  Zn3  1  0.01400000  0.05100000  0.46741000  1.0 0.9791466235
Zn  Zn4  1  0.75108000  0.55136000  0.23861000  1.0 0.9879805152
Zn  Zn5  1  0.67619000  0.51310000  0.29445000  1.0 0.9791466235
Zn  Zn6  1  0.98600000  0.94900000  0.46741000  1.0 0.9791466235
Zn  Zn7  1  0.44864000  0.75108000  0.76139000  1.0 0.9791466235
Zn  Zn8  1  0.48690000  0.67619000  0.70555000  1.0 0.9791466235
Zn  Zn9  1  0.05100000  0.98600000  0.53259000  1.0 0.9791466235
Zn  Zn10  1  0.55136000  0.24892000  0.76139000  1.0 0.9791466235
Zn  Zn11  1  0.51310000  0.32381000  0.70555000  1.0 0.9791466235
Zn  Zn12  1  0.94900000  0.01400000  0.53259000  1.0 0.9791466235
Zn  Zn13  1  0.75108000  0.44864000  0.26139000  1.0 0.9879805152
Zn  Zn14  1  0.67619000  0.48690000  0.20555000  1.0 0.9791466235
Zn  Zn15  1  0.98600000  0.05100000  0.03259000  1.0 0.9791466235
Zn  Zn16  1  0.24892000  0.55136000  0.26139000  1.0 0.9879805152
Zn  Zn17  1  0.32381000  0.51310000  0.20555000  1.0 0.9791466235
Zn  Zn18  1  0.01400000  0.94900000  0.03259000  1.0 0.9791466235
Zn  Zn19  1  0.55136000  0.75108000  0.73861000  1.0 0.9879805152
Zn  Zn20  1  0.51310000  0.67619000  0.79445000  1.0 0.9791466235
Zn  Zn21  1  0.94900000  0.98600000  0.96741000  1.0 0.9791466235
Zn  Zn22  1  0.44864000  0.24892000  0.73861000  1.0 0.9879805152
Zn  Zn23  1  0.48690000  0.32381000  0.79445000  1.0 0.9791466235
Zn  Zn24  1  0.05100000  0.01400000  0.96741000  1.0 0.9791466235
H  H1  1  0.22020000  0.33510000  0.30960000  1.0 0.1278858077
H  H2  1  0.21030000  0.28110000  0.35450000  1.0 0.1212800356
H  H3  1  0.30260000  0.33440000  0.41990000  1.0 0.1212800356
H  H4  1  0.31260000  0.38840000  0.37490000  1.0 0.1278858077
H  H5  1  0.11040000  0.43500000  0.23390000  1.0 0.1126024252
H  H6  1  0.01520000  0.06480000  0.27740000  1.0 0.1126024252
H  H7  1  0.22420000  0.24980000  0.40970000  1.0 0.2935963278
H  H8  1  0.03250000  0.43510000  0.23370000  1.0 0.1212800356
H  H9  1  0.02380000  0.06290000  0.34580000  1.0 0.1212800356
H  H10  1  0.35050000  0.31650000  0.50580000  1.0 0.297857697
H  H11  1  0.33570000  0.23840000  0.57950000  1.0 0.1278858077
H  H12  1  0.37420000  0.23820000  0.63610000  1.0 0.1212800356
H  H13  1  0.44730000  0.33650000  0.59800000  1.0 0.1278858077
H  H14  1  0.40880000  0.33670000  0.54140000  1.0 0.1278858077
H  H15  1  0.25580000  0.16960000  0.54770000  1.0 0.2935963278
H  H16  1  0.12440000  0.13140000  0.46500000  1.0 0.1212800356
H  H17  1  0.18440000  0.17590000  0.47150000  1.0 0.1212800356
H  H18  1  0.22130000  0.10880000  0.56390000  1.0 0.1212800356
H  H19  1  0.16130000  0.06430000  0.55740000  1.0 0.1278858077
H  H20  1  0.46100000  0.50040000  0.30870000  1.0 0.1212800356
H  H21  1  0.77980000  0.66490000  0.30960000  1.0 0.1278858077
H  H22  1  0.78970000  0.71890000  0.35450000  1.0 0.1212800356
H  H23  1  0.69740000  0.66560000  0.41990000  1.0 0.1212800356
H  H24  1  0.68740000  0.61160000  0.37490000  1.0 0.1278858077
H  H25  1  0.88960000  0.56500000  0.23390000  1.0 0.1126024252
H  H26  1  0.98480000  0.93520000  0.27740000  1.0 0.1126024252
H  H27  1  0.77580000  0.75020000  0.40970000  1.0 0.297857697
H  H28  1  0.96750000  0.56490000  0.23370000  1.0 0.1212800356
H  H29  1  0.97620000  0.93710000  0.34580000  1.0 0.1212800356
H  H30  1  0.64950000  0.68350000  0.50580000  1.0 0.297857697
H  H31  1  0.66430000  0.76160000  0.57950000  1.0 0.1278858077
H  H32  1  0.62580000  0.76180000  0.63610000  1.0 0.1212800356
H  H33  1  0.55270000  0.66350000  0.59800000  1.0 0.1278858077
H  H34  1  0.59120000  0.66330000  0.54140000  1.0 0.1278858077
H  H35  1  0.74420000  0.83040000  0.54770000  1.0 0.2935963278
H  H36  1  0.87560000  0.86860000  0.46500000  1.0 0.1212800356
H  H37  1  0.81560000  0.82410000  0.47150000  1.0 0.1212800356
H  H38  1  0.77870000  0.89120000  0.56390000  1.0 0.1212800356
H  H39  1  0.83870000  0.93570000  0.55740000  1.0 0.1278858077
H  H40  1  0.53900000  0.49960000  0.30870000  1.0 0.1212800356
H  H41  1  0.33510000  0.77980000  0.69040000  1.0 0.1278858077
H  H42  1  0.28110000  0.78970000  0.64550000  1.0 0.1212800356
H  H43  1  0.33440000  0.69740000  0.58010000  1.0 0.1278858077
H  H44  1  0.38840000  0.68740000  0.62510000  1.0 0.1278858077
H  H45  1  0.43500000  0.88960000  0.76610000  1.0 0.1126024252
H  H46  1  0.06480000  0.98480000  0.72260000  1.0 0.1126024252
H  H47  1  0.24980000  0.77580000  0.59030000  1.0 0.297857697
H  H48  1  0.43510000  0.96750000  0.76630000  1.0 0.1212800356
H  H49  1  0.06290000  0.97620000  0.65420000  1.0 0.1212800356
H  H50  1  0.31650000  0.64950000  0.49420000  1.0 0.297857697
H  H51  1  0.23840000  0.66430000  0.42050000  1.0 0.1278858077
H  H52  1  0.23820000  0.62580000  0.36390000  1.0 0.1212800356
H  H53  1  0.33650000  0.55270000  0.40200000  1.0 0.1278858077
H  H54  1  0.33670000  0.59120000  0.45860000  1.0 0.1212800356
H  H55  1  0.16960000  0.74420000  0.45230000  1.0 0.297857697
H  H56  1  0.13140000  0.87560000  0.53500000  1.0 0.1212800356
H  H57  1  0.17590000  0.81560000  0.52850000  1.0 0.1212800356
H  H58  1  0.10880000  0.77870000  0.43610000  1.0 0.1212800356
H  H59  1  0.06430000  0.83870000  0.44260000  1.0 0.1278858077
H  H60  1  0.50040000  0.53900000  0.69130000  1.0 0.1212800356
H  H61  1  0.66490000  0.22020000  0.69040000  1.0 0.1278858077
H  H62  1  0.71890000  0.21030000  0.64550000  1.0 0.1212800356
H  H63  1  0.66560000  0.30260000  0.58010000  1.0 0.1278858077
H  H64  1  0.61160000  0.31260000  0.62510000  1.0 0.1278858077
H  H65  1  0.56500000  0.11040000  0.76610000  1.0 0.1126024252
H  H66  1  0.93520000  0.01520000  0.72260000  1.0 0.1126024252
H  H67  1  0.75020000  0.22420000  0.59030000  1.0 0.297857697
H  H68  1  0.56490000  0.03250000  0.76630000  1.0 0.1212800356
H  H69  1  0.93710000  0.02380000  0.65420000  1.0 0.1212800356
H  H70  1  0.68350000  0.35050000  0.49420000  1.0 0.297857697
H  H71  1  0.76160000  0.33570000  0.42050000  1.0 0.1278858077
H  H72  1  0.76180000  0.37420000  0.36390000  1.0 0.1212800356
H  H73  1  0.66350000  0.44730000  0.40200000  1.0 0.1278858077
H  H74  1  0.66330000  0.40880000  0.45860000  1.0 0.1212800356
H  H75  1  0.83040000  0.25580000  0.45230000  1.0 0.2935963278
H  H76  1  0.86860000  0.12440000  0.53500000  1.0 0.1212800356
H  H77  1  0.82410000  0.18440000  0.52850000  1.0 0.1212800356
H  H78  1  0.89120000  0.22130000  0.43610000  1.0 0.1212800356
H  H79  1  0.93570000  0.16130000  0.44260000  1.0 0.1278858077
H  H80  1  0.49960000  0.46100000  0.69130000  1.0 0.1212800356
H  H81  1  0.77980000  0.33510000  0.19040000  1.0 0.1278858077
H  H82  1  0.78970000  0.28110000  0.14550000  1.0 0.1212800356
H  H83  1  0.69740000  0.33440000  0.08010000  1.0 0.1212800356
H  H84  1  0.68740000  0.38840000  0.12510000  1.0 0.1278858077
H  H85  1  0.88960000  0.43500000  0.26610000  1.0 0.1126024252
H  H86  1  0.98480000  0.06480000  0.22260000  1.0 0.1126024252
H  H87  1  0.77580000  0.24980000  0.09030000  1.0 0.297857697
H  H88  1  0.96750000  0.43510000  0.26630000  1.0 0.1126024252
H  H89  1  0.97620000  0.06290000  0.15420000  1.0 0.1212800356
H  H90  1  0.64950000  0.31650000  0.99420000  1.0 0.297857697
H  H91  1  0.66430000  0.23840000  0.92050000  1.0 0.1278858077
H  H92  1  0.62580000  0.23820000  0.86390000  1.0 0.1212800356
H  H93  1  0.55270000  0.33650000  0.90200000  1.0 0.1278858077
H  H94  1  0.59120000  0.33670000  0.95860000  1.0 0.1278858077
H  H95  1  0.74420000  0.16960000  0.95230000  1.0 0.2935963278
H  H96  1  0.87560000  0.13140000  0.03500000  1.0 0.1212800356
H  H97  1  0.81560000  0.17590000  0.02850000  1.0 0.1212800356
H  H98  1  0.77870000  0.10880000  0.93610000  1.0 0.1212800356
H  H99  1  0.83870000  0.06430000  0.94260000  1.0 0.1278858077
H  H100  1  0.53900000  0.50040000  0.19130000  1.0 0.1212800356
H  H101  1  0.22020000  0.66490000  0.19040000  1.0 0.1278858077
H  H102  1  0.21030000  0.71890000  0.14550000  1.0 0.1212800356
H  H103  1  0.30260000  0.66560000  0.08010000  1.0 0.1212800356
H  H104  1  0.31260000  0.61160000  0.12510000  1.0 0.1278858077
H  H105  1  0.11040000  0.56500000  0.26610000  1.0 0.1126024252
H  H106  1  0.01520000  0.93520000  0.22260000  1.0 0.1126024252
H  H107  1  0.22420000  0.75020000  0.09030000  1.0 0.297857697
H  H108  1  0.03250000  0.56490000  0.26630000  1.0 0.1126024252
H  H109  1  0.02380000  0.93710000  0.15420000  1.0 0.1212800356
H  H110  1  0.35050000  0.68350000  0.99420000  1.0 0.297857697
H  H111  1  0.33570000  0.76160000  0.92050000  1.0 0.1278858077
H  H112  1  0.37420000  0.76180000  0.86390000  1.0 0.1212800356
H  H113  1  0.44730000  0.66350000  0.90200000  1.0 0.1278858077
H  H114  1  0.40880000  0.66330000  0.95860000  1.0 0.1278858077
H  H115  1  0.25580000  0.83040000  0.95230000  1.0 0.2935963278
H  H116  1  0.12440000  0.86860000  0.03500000  1.0 0.1212800356
H  H117  1  0.18440000  0.82410000  0.02850000  1.0 0.1212800356
H  H118  1  0.22130000  0.89120000  0.93610000  1.0 0.1212800356
H  H119  1  0.16130000  0.93570000  0.94260000  1.0 0.1278858077
H  H120  1  0.46100000  0.49960000  0.19130000  1.0 0.1212800356
H  H121  1  0.66490000  0.77980000  0.80960000  1.0 0.1278858077
H  H122  1  0.71890000  0.78970000  0.85450000  1.0 0.1212800356
H  H123  1  0.66560000  0.69740000  0.91990000  1.0 0.1212800356
H  H124  1  0.61160000  0.68740000  0.87490000  1.0 0.1278858077
H  H125  1  0.56500000  0.88960000  0.73390000  1.0 0.1126024252
H  H126  1  0.93520000  0.98480000  0.77740000  1.0 0.1126024252
H  H127  1  0.75020000  0.77580000  0.90970000  1.0 0.297857697
H  H128  1  0.56490000  0.96750000  0.73370000  1.0 0.1212800356
H  H129  1  0.93710000  0.97620000  0.84580000  1.0 0.1212800356
H  H130  1  0.68350000  0.64950000  0.00580000  1.0 0.297857697
H  H131  1  0.76160000  0.66430000  0.07950000  1.0 0.1278858077
H  H132  1  0.76180000  0.62580000  0.13610000  1.0 0.1212800356
H  H133  1  0.66350000  0.55270000  0.09800000  1.0 0.1278858077
H  H134  1  0.66330000  0.59120000  0.04140000  1.0 0.1212800356
H  H135  1  0.83040000  0.74420000  0.04770000  1.0 0.297857697
H  H136  1  0.86860000  0.87560000  0.96500000  1.0 0.1212800356
H  H137  1  0.82410000  0.81560000  0.97150000  1.0 0.1212800356
H  H138  1  0.89120000  0.77870000  0.06390000  1.0 0.1212800356
H  H139  1  0.93570000  0.83870000  0.05740000  1.0 0.1278858077
H  H140  1  0.49960000  0.53900000  0.80870000  1.0 0.1212800356
H  H141  1  0.33510000  0.22020000  0.80960000  1.0 0.1278858077
H  H142  1  0.28110000  0.21030000  0.85450000  1.0 0.1212800356
H  H143  1  0.33440000  0.30260000  0.91990000  1.0 0.1212800356
H  H144  1  0.38840000  0.31260000  0.87490000  1.0 0.1278858077
H  H145  1  0.43500000  0.11040000  0.73390000  1.0 0.1126024252
H  H146  1  0.06480000  0.01520000  0.77740000  1.0 0.1126024252
H  H147  1  0.24980000  0.22420000  0.90970000  1.0 0.297857697
H  H148  1  0.43510000  0.03250000  0.73370000  1.0 0.1212800356
H  H149  1  0.06290000  0.02380000  0.84580000  1.0 0.1212800356
H  H150  1  0.31650000  0.35050000  0.00580000  1.0 0.297857697
H  H151  1  0.23840000  0.33570000  0.07950000  1.0 0.1278858077
H  H152  1  0.23820000  0.37420000  0.13610000  1.0 0.1212800356
H  H153  1  0.33650000  0.44730000  0.09800000  1.0 0.1278858077
H  H154  1  0.33670000  0.40880000  0.04140000  1.0 0.1212800356
H  H155  1  0.16960000  0.25580000  0.04770000  1.0 0.2935963278
H  H156  1  0.13140000  0.12440000  0.96500000  1.0 0.1212800356
H  H157  1  0.17590000  0.18440000  0.97150000  1.0 0.1212800356
H  H158  1  0.10880000  0.22130000  0.06390000  1.0 0.1212800356
H  H159  1  0.06430000  0.16130000  0.05740000  1.0 0.1278858077
H  H160  1  0.50040000  0.46100000  0.80870000  1.0 0.1212800356
C  C1  1  0.26740000  0.36710000  0.33782000  1.0 -0.0458688905
C  C2  1  0.23670000  0.33500000  0.33170000  1.0 -0.0705661698
C  C3  1  0.23080000  0.30260000  0.35860000  1.0 -0.2012654687
C  C4  1  0.25550000  0.30240000  0.39170000  1.0 0.223856177
C  C5  1  0.28610000  0.33450000  0.39778000  1.0 -0.1808038302
C  C6  1  0.29210000  0.36690000  0.37090000  1.0 -0.0774602168
C  C7  1  0.09510000  0.45990000  0.24010000  1.0 -0.109385895
C  C8  1  0.01050000  0.03950000  0.29108000  1.0 -0.162192903
C  C9  1  0.04790000  0.45990000  0.24000000  1.0 -0.1808038302
C  C10  1  0.01350000  0.03910000  0.33240000  1.0 -0.109385895
C  C11  1  0.26240000  0.25540000  0.45190000  1.0 0.5606922314
C  C12  1  0.25960000  0.21020000  0.50760000  1.0 0.5606922314
C  C13  1  0.31200000  0.26760000  0.50360000  1.0 0.5606922314
C  C14  1  0.36850000  0.28760000  0.55481000  1.0 0.2269121446
C  C15  1  0.35810000  0.25810000  0.58320000  1.0 -0.1858144546
C  C16  1  0.38110000  0.25800000  0.61710000  1.0 -0.0705661698
C  C17  1  0.41460000  0.28730000  0.62270000  1.0 -0.0458688905
C  C18  1  0.42490000  0.31680000  0.59430000  1.0 -0.0705661698
C  C19  1  0.40190000  0.31700000  0.56040000  1.0 -0.2012654687
C  C20  1  0.09420000  0.06580000  0.50780000  1.0 0.5977428908
C  C21  1  0.14380000  0.12690000  0.48490000  1.0 -0.0705661698
C  C22  1  0.17980000  0.15350000  0.48870000  1.0 -0.1808038302
C  C23  1  0.20880000  0.14670000  0.51830000  1.0 0.223856177
C  C24  1  0.20190000  0.11330000  0.54410000  1.0 -0.2012654687
C  C25  1  0.16590000  0.08670000  0.54020000  1.0 -0.0705661698
C  C26  1  0.13690000  0.09340000  0.51060000  1.0 -0.0313660357
C  C27  1  0.27400000  0.40640000  0.31170000  1.0 0.6062202831
C  C28  1  0.43620000  0.28660000  0.66180000  1.0 0.5977428908
C  C29  1  0.47607000  0.50010000  0.28581000  1.0 -0.109385895
C  C30  1  0.73260000  0.63290000  0.33782000  1.0 -0.0458688905
C  C31  1  0.76330000  0.66500000  0.33170000  1.0 -0.0705661698
C  C32  1  0.76920000  0.69740000  0.35860000  1.0 -0.2012654687
C  C33  1  0.74450000  0.69760000  0.39170000  1.0 0.223856177
C  C34  1  0.71390000  0.66550000  0.39778000  1.0 -0.1808038302
C  C35  1  0.70790000  0.63310000  0.37090000  1.0 -0.0774602168
C  C36  1  0.90490000  0.54010000  0.24010000  1.0 -0.109385895
C  C37  1  0.98950000  0.96050000  0.29108000  1.0 -0.162192903
C  C38  1  0.95210000  0.54010000  0.24000000  1.0 -0.1808038302
C  C39  1  0.98650000  0.96090000  0.33240000  1.0 -0.109385895
C  C40  1  0.73760000  0.74460000  0.45190000  1.0 0.5606922314
C  C41  1  0.74040000  0.78980000  0.50760000  1.0 0.5606922314
C  C42  1  0.68800000  0.73240000  0.50360000  1.0 0.5606922314
C  C43  1  0.63150000  0.71240000  0.55481000  1.0 0.2269121446
C  C44  1  0.64190000  0.74190000  0.58320000  1.0 -0.1808038302
C  C45  1  0.61890000  0.74200000  0.61710000  1.0 -0.0774602168
C  C46  1  0.58540000  0.71270000  0.62270000  1.0 -0.0458688905
C  C47  1  0.57510000  0.68320000  0.59430000  1.0 -0.0705661698
C  C48  1  0.59810000  0.68300000  0.56040000  1.0 -0.2012654687
C  C49  1  0.90580000  0.93420000  0.50780000  1.0 0.5977428908
C  C50  1  0.85620000  0.87310000  0.48490000  1.0 -0.0705661698
C  C51  1  0.82020000  0.84650000  0.48870000  1.0 -0.1808038302
C  C52  1  0.79120000  0.85330000  0.51830000  1.0 0.223856177
C  C53  1  0.79810000  0.88670000  0.54410000  1.0 -0.2012654687
C  C54  1  0.83410000  0.91330000  0.54020000  1.0 -0.0705661698
C  C55  1  0.86310000  0.90660000  0.51060000  1.0 -0.0313660357
C  C56  1  0.72600000  0.59360000  0.31170000  1.0 0.6062202831
C  C57  1  0.56380000  0.71340000  0.66180000  1.0 0.5977428908
C  C58  1  0.52393000  0.49990000  0.28581000  1.0 -0.109385895
C  C59  1  0.36710000  0.73260000  0.66218000  1.0 -0.0440351176
C  C60  1  0.33500000  0.76330000  0.66830000  1.0 -0.0705661698
C  C61  1  0.30260000  0.76920000  0.64140000  1.0 -0.2012654687
C  C62  1  0.30240000  0.74450000  0.60830000  1.0 0.2269121446
C  C63  1  0.33450000  0.71390000  0.60222000  1.0 -0.1808038302
C  C64  1  0.36690000  0.70790000  0.62910000  1.0 -0.0774602168
C  C65  1  0.45990000  0.90490000  0.75990000  1.0 -0.109385895
C  C66  1  0.03950000  0.98950000  0.70892000  1.0 -0.162192903
C  C67  1  0.45990000  0.95210000  0.76000000  1.0 -0.1808038302
C  C68  1  0.03910000  0.98650000  0.66760000  1.0 -0.109385895
C  C69  1  0.25540000  0.73760000  0.54810000  1.0 0.5606922314
C  C70  1  0.21020000  0.74040000  0.49240000  1.0 0.5606922314
C  C71  1  0.26760000  0.68800000  0.49640000  1.0 0.5606922314
C  C72  1  0.28760000  0.63150000  0.44519000  1.0 0.2269121446
C  C73  1  0.25810000  0.64190000  0.41680000  1.0 -0.1808038302
C  C74  1  0.25800000  0.61890000  0.38290000  1.0 -0.0705661698
C  C75  1  0.28730000  0.58540000  0.37730000  1.0 -0.0458688905
C  C76  1  0.31680000  0.57510000  0.40570000  1.0 -0.0705661698
C  C77  1  0.31700000  0.59810000  0.43960000  1.0 -0.2088720756
C  C78  1  0.06580000  0.90580000  0.49220000  1.0 0.5977428908
C  C79  1  0.12690000  0.85620000  0.51510000  1.0 -0.0705661698
C  C80  1  0.15350000  0.82020000  0.51130000  1.0 -0.1808038302
C  C81  1  0.14670000  0.79120000  0.48170000  1.0 0.223856177
C  C82  1  0.11330000  0.79810000  0.45590000  1.0 -0.2012654687
C  C83  1  0.08670000  0.83410000  0.45980000  1.0 -0.0705661698
C  C84  1  0.09340000  0.86310000  0.48940000  1.0 -0.0313660357
C  C85  1  0.40640000  0.72600000  0.68830000  1.0 0.6062202831
C  C86  1  0.28660000  0.56380000  0.33820000  1.0 0.5977428908
C  C87  1  0.50010000  0.52393000  0.71419000  1.0 -0.109385895
C  C88  1  0.63290000  0.26740000  0.66218000  1.0 -0.0440351176
C  C89  1  0.66500000  0.23670000  0.66830000  1.0 -0.0705661698
C  C90  1  0.69740000  0.23080000  0.64140000  1.0 -0.2012654687
C  C91  1  0.69760000  0.25550000  0.60830000  1.0 0.2269121446
C  C92  1  0.66550000  0.28610000  0.60222000  1.0 -0.1808038302
C  C93  1  0.63310000  0.29210000  0.62910000  1.0 -0.0774602168
C  C94  1  0.54010000  0.09510000  0.75990000  1.0 -0.109385895
C  C95  1  0.96050000  0.01050000  0.70892000  1.0 -0.162192903
C  C96  1  0.54010000  0.04790000  0.76000000  1.0 -0.1808038302
C  C97  1  0.96090000  0.01350000  0.66760000  1.0 -0.109385895
C  C98  1  0.74460000  0.26240000  0.54810000  1.0 0.5606922314
C  C99  1  0.78980000  0.25960000  0.49240000  1.0 0.5606922314
C  C100  1  0.73240000  0.31200000  0.49640000  1.0 0.5606922314
C  C101  1  0.71240000  0.36850000  0.44519000  1.0 0.2269121446
C  C102  1  0.74190000  0.35810000  0.41680000  1.0 -0.1808038302
C  C103  1  0.74200000  0.38110000  0.38290000  1.0 -0.0705661698
C  C104  1  0.71270000  0.41460000  0.37730000  1.0 -0.0458688905
C  C105  1  0.68320000  0.42490000  0.40570000  1.0 -0.0705661698
C  C106  1  0.68300000  0.40190000  0.43960000  1.0 -0.2088720756
C  C107  1  0.93420000  0.09420000  0.49220000  1.0 0.5977428908
C  C108  1  0.87310000  0.14380000  0.51510000  1.0 -0.0705661698
C  C109  1  0.84650000  0.17980000  0.51130000  1.0 -0.1808038302
C  C110  1  0.85330000  0.20880000  0.48170000  1.0 0.223856177
C  C111  1  0.88670000  0.20190000  0.45590000  1.0 -0.2012654687
C  C112  1  0.91330000  0.16590000  0.45980000  1.0 -0.0705661698
C  C113  1  0.90660000  0.13690000  0.48940000  1.0 -0.0313660357
C  C114  1  0.59360000  0.27400000  0.68830000  1.0 0.6062202831
C  C115  1  0.71340000  0.43620000  0.33820000  1.0 0.5977428908
C  C116  1  0.49990000  0.47607000  0.71419000  1.0 -0.109385895
C  C117  1  0.73260000  0.36710000  0.16218000  1.0 -0.0440351176
C  C118  1  0.76330000  0.33500000  0.16830000  1.0 -0.0705661698
C  C119  1  0.76920000  0.30260000  0.14140000  1.0 -0.2012654687
C  C120  1  0.74450000  0.30240000  0.10830000  1.0 0.2269121446
C  C121  1  0.71390000  0.33450000  0.10222000  1.0 -0.1808038302
C  C122  1  0.70790000  0.36690000  0.12910000  1.0 -0.0774602168
C  C123  1  0.90490000  0.45990000  0.25990000  1.0 -0.109385895
C  C124  1  0.98950000  0.03950000  0.20892000  1.0 -0.162192903
C  C125  1  0.95210000  0.45990000  0.26000000  1.0 -0.1808038302
C  C126  1  0.98650000  0.03910000  0.16760000  1.0 -0.109385895
C  C127  1  0.73760000  0.25540000  0.04810000  1.0 0.5606922314
C  C128  1  0.74040000  0.21020000  0.99240000  1.0 0.5606922314
C  C129  1  0.68800000  0.26760000  0.99640000  1.0 0.5606922314
C  C130  1  0.63150000  0.28760000  0.94519000  1.0 0.2269121446
C  C131  1  0.64190000  0.25810000  0.91680000  1.0 -0.1858144546
C  C132  1  0.61890000  0.25800000  0.88290000  1.0 -0.0774602168
C  C133  1  0.58540000  0.28730000  0.87730000  1.0 -0.0440351176
C  C134  1  0.57510000  0.31680000  0.90570000  1.0 -0.0646965648
C  C135  1  0.59810000  0.31700000  0.93960000  1.0 -0.2012654687
C  C136  1  0.90580000  0.06580000  0.99220000  1.0 0.5977428908
C  C137  1  0.85620000  0.12690000  0.01510000  1.0 -0.0705661698
C  C138  1  0.82020000  0.15350000  0.01130000  1.0 -0.1808038302
C  C139  1  0.79120000  0.14670000  0.98170000  1.0 0.223856177
C  C140  1  0.79810000  0.11330000  0.95590000  1.0 -0.2012654687
C  C141  1  0.83410000  0.08670000  0.95980000  1.0 -0.0705661698
C  C142  1  0.86310000  0.09340000  0.98940000  1.0 -0.0313660357
C  C143  1  0.72600000  0.40640000  0.18830000  1.0 0.6062202831
C  C144  1  0.56380000  0.28660000  0.83820000  1.0 0.5977428908
C  C145  1  0.52393000  0.50010000  0.21419000  1.0 -0.109385895
C  C146  1  0.26740000  0.63290000  0.16218000  1.0 -0.0440351176
C  C147  1  0.23670000  0.66500000  0.16830000  1.0 -0.0705661698
C  C148  1  0.23080000  0.69740000  0.14140000  1.0 -0.2012654687
C  C149  1  0.25550000  0.69760000  0.10830000  1.0 0.2269121446
C  C150  1  0.28610000  0.66550000  0.10222000  1.0 -0.1808038302
C  C151  1  0.29210000  0.63310000  0.12910000  1.0 -0.0774602168
C  C152  1  0.09510000  0.54010000  0.25990000  1.0 -0.109385895
C  C153  1  0.01050000  0.96050000  0.20892000  1.0 -0.162192903
C  C154  1  0.04790000  0.54010000  0.26000000  1.0 -0.1808038302
C  C155  1  0.01350000  0.96090000  0.16760000  1.0 -0.109385895
C  C156  1  0.26240000  0.74460000  0.04810000  1.0 0.5606922314
C  C157  1  0.25960000  0.78980000  0.99240000  1.0 0.5606922314
C  C158  1  0.31200000  0.73240000  0.99640000  1.0 0.5606922314
C  C159  1  0.36850000  0.71240000  0.94519000  1.0 0.2269121446
C  C160  1  0.35810000  0.74190000  0.91680000  1.0 -0.1858144546
C  C161  1  0.38110000  0.74200000  0.88290000  1.0 -0.0774602168
C  C162  1  0.41460000  0.71270000  0.87730000  1.0 -0.0440351176
C  C163  1  0.42490000  0.68320000  0.90570000  1.0 -0.0646965648
C  C164  1  0.40190000  0.68300000  0.93960000  1.0 -0.2012654687
C  C165  1  0.09420000  0.93420000  0.99220000  1.0 0.5977428908
C  C166  1  0.14380000  0.87310000  0.01510000  1.0 -0.0705661698
C  C167  1  0.17980000  0.84650000  0.01130000  1.0 -0.1808038302
C  C168  1  0.20880000  0.85330000  0.98170000  1.0 0.223856177
C  C169  1  0.20190000  0.88670000  0.95590000  1.0 -0.2012654687
C  C170  1  0.16590000  0.91330000  0.95980000  1.0 -0.0705661698
C  C171  1  0.13690000  0.90660000  0.98940000  1.0 -0.0313660357
C  C172  1  0.27400000  0.59360000  0.18830000  1.0 0.6062202831
C  C173  1  0.43620000  0.71340000  0.83820000  1.0 0.5977428908
C  C174  1  0.47607000  0.49990000  0.21419000  1.0 -0.109385895
C  C175  1  0.63290000  0.73260000  0.83782000  1.0 -0.0440351176
C  C176  1  0.66500000  0.76330000  0.83170000  1.0 -0.0705661698
C  C177  1  0.69740000  0.76920000  0.85860000  1.0 -0.2012654687
C  C178  1  0.69760000  0.74450000  0.89170000  1.0 0.2269121446
C  C179  1  0.66550000  0.71390000  0.89778000  1.0 -0.1808038302
C  C180  1  0.63310000  0.70790000  0.87090000  1.0 -0.0774602168
C  C181  1  0.54010000  0.90490000  0.74010000  1.0 -0.109385895
C  C182  1  0.96050000  0.98950000  0.79108000  1.0 -0.162192903
C  C183  1  0.54010000  0.95210000  0.74000000  1.0 -0.1808038302
C  C184  1  0.96090000  0.98650000  0.83240000  1.0 -0.109385895
C  C185  1  0.74460000  0.73760000  0.95190000  1.0 0.5606922314
C  C186  1  0.78980000  0.74040000  0.00760000  1.0 0.5606922314
C  C187  1  0.73240000  0.68800000  0.00360000  1.0 0.5606922314
C  C188  1  0.71240000  0.63150000  0.05481000  1.0 0.2269121446
C  C189  1  0.74190000  0.64190000  0.08320000  1.0 -0.1808038302
C  C190  1  0.74200000  0.61890000  0.11710000  1.0 -0.0774602168
C  C191  1  0.71270000  0.58540000  0.12270000  1.0 -0.0440351176
C  C192  1  0.68320000  0.57510000  0.09430000  1.0 -0.0705661698
C  C193  1  0.68300000  0.59810000  0.06040000  1.0 -0.2088720756
C  C194  1  0.93420000  0.90580000  0.00780000  1.0 0.5977428908
C  C195  1  0.87310000  0.85620000  0.98490000  1.0 -0.0705661698
C  C196  1  0.84650000  0.82020000  0.98870000  1.0 -0.1808038302
C  C197  1  0.85330000  0.79120000  0.01830000  1.0 0.223856177
C  C198  1  0.88670000  0.79810000  0.04410000  1.0 -0.2012654687
C  C199  1  0.91330000  0.83410000  0.04020000  1.0 -0.0705661698
C  C200  1  0.90660000  0.86310000  0.01060000  1.0 -0.0313660357
C  C201  1  0.59360000  0.72600000  0.81170000  1.0 0.6062202831
C  C202  1  0.71340000  0.56380000  0.16180000  1.0 0.5977428908
C  C203  1  0.49990000  0.52393000  0.78581000  1.0 -0.109385895
C  C204  1  0.36710000  0.26740000  0.83782000  1.0 -0.0440351176
C  C205  1  0.33500000  0.23670000  0.83170000  1.0 -0.0705661698
C  C206  1  0.30260000  0.23080000  0.85860000  1.0 -0.2012654687
C  C207  1  0.30240000  0.25550000  0.89170000  1.0 0.2269121446
C  C208  1  0.33450000  0.28610000  0.89778000  1.0 -0.1808038302
C  C209  1  0.36690000  0.29210000  0.87090000  1.0 -0.0774602168
C  C210  1  0.45990000  0.09510000  0.74010000  1.0 -0.109385895
C  C211  1  0.03950000  0.01050000  0.79108000  1.0 -0.162192903
C  C212  1  0.45990000  0.04790000  0.74000000  1.0 -0.1808038302
C  C213  1  0.03910000  0.01350000  0.83240000  1.0 -0.109385895
C  C214  1  0.25540000  0.26240000  0.95190000  1.0 0.5606922314
C  C215  1  0.21020000  0.25960000  0.00760000  1.0 0.5606922314
C  C216  1  0.26760000  0.31200000  0.00360000  1.0 0.5606922314
C  C217  1  0.28760000  0.36850000  0.05481000  1.0 0.2269121446
C  C218  1  0.25810000  0.35810000  0.08320000  1.0 -0.1808038302
C  C219  1  0.25800000  0.38110000  0.11710000  1.0 -0.0774602168
C  C220  1  0.28730000  0.41460000  0.12270000  1.0 -0.0440351176
C  C221  1  0.31680000  0.42490000  0.09430000  1.0 -0.0705661698
C  C222  1  0.31700000  0.40190000  0.06040000  1.0 -0.2088720756
C  C223  1  0.06580000  0.09420000  0.00780000  1.0 0.5977428908
C  C224  1  0.12690000  0.14380000  0.98490000  1.0 -0.0705661698
C  C225  1  0.15350000  0.17980000  0.98870000  1.0 -0.1808038302
C  C226  1  0.14670000  0.20880000  0.01830000  1.0 0.223856177
C  C227  1  0.11330000  0.20190000  0.04410000  1.0 -0.2012654687
C  C228  1  0.08670000  0.16590000  0.04020000  1.0 -0.0705661698
C  C229  1  0.09340000  0.13690000  0.01060000  1.0 -0.0313660357
C  C230  1  0.40640000  0.27400000  0.81170000  1.0 0.6062202831
C  C231  1  0.28660000  0.43620000  0.16180000  1.0 0.5977428908
C  C232  1  0.50010000  0.47607000  0.78581000  1.0 -0.109385895
C  C233  1  0.02570000  0.50000000  0.25000000  1.0 0.0809564387
C  C234  1  0.16900000  0.50000000  0.25000000  1.0 0.5977428908
C  C235  1  0.40060000  0.50000000  0.25000000  1.0 0.5864163046
C  C236  1  0.11790000  0.50000000  0.25000000  1.0 -0.0313660357
C  C237  1  0.45260000  0.50000000  0.25000000  1.0 -0.01876978
C  C238  1  0.97430000  0.50000000  0.25000000  1.0 0.0809564387
C  C239  1  0.83100000  0.50000000  0.25000000  1.0 0.5977428908
C  C240  1  0.59940000  0.50000000  0.25000000  1.0 0.5864163046
C  C241  1  0.88210000  0.50000000  0.25000000  1.0 -0.0313660357
C  C242  1  0.54740000  0.50000000  0.25000000  1.0 -0.01876978
C  C243  1  0.50000000  0.97430000  0.75000000  1.0 0.0809564387
C  C244  1  0.50000000  0.83100000  0.75000000  1.0 0.5977428908
C  C245  1  0.50000000  0.59940000  0.75000000  1.0 0.5864163046
C  C246  1  0.50000000  0.88210000  0.75000000  1.0 -0.0313660357
C  C247  1  0.50000000  0.54740000  0.75000000  1.0 -0.01876978
C  C248  1  0.50000000  0.02570000  0.75000000  1.0 0.0809564387
C  C249  1  0.50000000  0.16900000  0.75000000  1.0 0.5977428908
C  C250  1  0.50000000  0.40060000  0.75000000  1.0 0.5864163046
C  C251  1  0.50000000  0.11790000  0.75000000  1.0 -0.0313660357
C  C252  1  0.50000000  0.45260000  0.75000000  1.0 -0.01876978
C  C253  1  0.00000000  0.00000000  0.39730000  1.0 0.5977428908
C  C254  1  0.00000000  0.00000000  0.35200000  1.0 -0.0313660357
C  C255  1  0.00000000  0.00000000  0.27200000  1.0 0.0809564387
C  C256  1  0.00000000  0.00000000  0.60270000  1.0 0.5977428908
C  C257  1  0.00000000  0.00000000  0.64800000  1.0 -0.0313660357
C  C258  1  0.00000000  0.00000000  0.72800000  1.0 0.0747234305
C  C259  1  0.00000000  0.00000000  0.10270000  1.0 0.5977428908
C  C260  1  0.00000000  0.00000000  0.14800000  1.0 -0.0313660357
C  C261  1  0.00000000  0.00000000  0.22800000  1.0 0.0747234305
C  C262  1  0.00000000  0.00000000  0.89730000  1.0 0.5977428908
C  C263  1  0.00000000  0.00000000  0.85200000  1.0 -0.01876978
C  C264  1  0.00000000  0.00000000  0.77200000  1.0 0.0747234305
N  N1  1  0.24470000  0.26650000  0.41740000  1.0 -0.3723430945
N  N2  1  0.24400000  0.22120000  0.47190000  1.0 -0.5410936342
N  N3  1  0.29370000  0.23340000  0.52351000  1.0 -0.5410936342
N  N4  1  0.29640000  0.27860000  0.46780000  1.0 -0.5410936342
N  N5  1  0.34400000  0.29390000  0.51880000  1.0 -0.3723430945
N  N6  1  0.24290000  0.17520000  0.52660000  1.0 -0.35452249
N  N7  1  0.75530000  0.73350000  0.41740000  1.0 -0.3723430945
N  N8  1  0.75600000  0.77880000  0.47190000  1.0 -0.5410936342
N  N9  1  0.70630000  0.76660000  0.52351000  1.0 -0.5410936342
N  N10  1  0.70360000  0.72140000  0.46780000  1.0 -0.5410936342
N  N11  1  0.65600000  0.70610000  0.51880000  1.0 -0.3723430945
N  N12  1  0.75710000  0.82480000  0.52660000  1.0 -0.35452249
N  N13  1  0.26650000  0.75530000  0.58260000  1.0 -0.3723430945
N  N14  1  0.22120000  0.75600000  0.52810000  1.0 -0.5479652042
N  N15  1  0.23340000  0.70630000  0.47649000  1.0 -0.5410936342
N  N16  1  0.27860000  0.70360000  0.53220000  1.0 -0.5479652042
N  N17  1  0.29390000  0.65600000  0.48120000  1.0 -0.3723430945
N  N18  1  0.17520000  0.75710000  0.47340000  1.0 -0.3575410341
N  N19  1  0.73350000  0.24470000  0.58260000  1.0 -0.3723430945
N  N20  1  0.77880000  0.24400000  0.52810000  1.0 -0.5410936342
N  N21  1  0.76660000  0.29370000  0.47649000  1.0 -0.5479652042
N  N22  1  0.72140000  0.29640000  0.53220000  1.0 -0.5479652042
N  N23  1  0.70610000  0.34400000  0.48120000  1.0 -0.3723430945
N  N24  1  0.82480000  0.24290000  0.47340000  1.0 -0.3575410341
N  N25  1  0.75530000  0.26650000  0.08260000  1.0 -0.3723430945
N  N26  1  0.75600000  0.22120000  0.02810000  1.0 -0.5410936342
N  N27  1  0.70630000  0.23340000  0.97649000  1.0 -0.5410936342
N  N28  1  0.70360000  0.27860000  0.03220000  1.0 -0.5479652042
N  N29  1  0.65600000  0.29390000  0.98120000  1.0 -0.3723430945
N  N30  1  0.75710000  0.17520000  0.97340000  1.0 -0.3575410341
N  N31  1  0.24470000  0.73350000  0.08260000  1.0 -0.3723430945
N  N32  1  0.24400000  0.77880000  0.02810000  1.0 -0.5410936342
N  N33  1  0.29370000  0.76660000  0.97649000  1.0 -0.5410936342
N  N34  1  0.29640000  0.72140000  0.03220000  1.0 -0.5479652042
N  N35  1  0.34400000  0.70610000  0.98120000  1.0 -0.3723430945
N  N36  1  0.24290000  0.82480000  0.97340000  1.0 -0.35452249
N  N37  1  0.73350000  0.75530000  0.91740000  1.0 -0.3723430945
N  N38  1  0.77880000  0.75600000  0.97190000  1.0 -0.5410936342
N  N39  1  0.76660000  0.70630000  0.02351000  1.0 -0.5479652042
N  N40  1  0.72140000  0.70360000  0.96780000  1.0 -0.5479652042
N  N41  1  0.70610000  0.65600000  0.01880000  1.0 -0.3723430945
N  N42  1  0.82480000  0.75710000  0.02660000  1.0 -0.35452249
N  N43  1  0.26650000  0.24470000  0.91740000  1.0 -0.3723430945
N  N44  1  0.22120000  0.24400000  0.97190000  1.0 -0.5410936342
N  N45  1  0.23340000  0.29370000  0.02351000  1.0 -0.5479652042
N  N46  1  0.27860000  0.29640000  0.96780000  1.0 -0.5479652042
N  N47  1  0.29390000  0.34400000  0.01880000  1.0 -0.3723430945
N  N48  1  0.17520000  0.24290000  0.02660000  1.0 -0.35452249
O  O1  1  0.42640000  0.25720000  0.68769000  1.0 -0.5868479008
O  O2  1  0.18682000  0.46393000  0.24004000  1.0 -0.5598021492
O  O3  1  0.38472000  0.49370000  0.28430000  1.0 -0.5698517973
O  O4  1  0.30560000  0.43232000  0.31834000  1.0 -0.5698517973
O  O5  1  0.01290000  0.03520000  0.41294000  1.0 -0.5598021492
O  O6  1  0.46960000  0.31290000  0.66312000  1.0 -0.5753699834
O  O7  1  0.07270000  0.07360000  0.47690000  1.0 -0.5698517973
O  O8  1  0.25450000  0.40369000  0.27956000  1.0 -0.5598021492
O  O9  1  0.09730000  0.03080000  0.52833000  1.0 -0.5698517973
O  O10  1  0.57360000  0.74280000  0.68769000  1.0 -0.5868479008
O  O11  1  0.81318000  0.53607000  0.24004000  1.0 -0.5598021492
O  O12  1  0.61528000  0.50630000  0.28430000  1.0 -0.5698517973
O  O13  1  0.69440000  0.56768000  0.31834000  1.0 -0.5698517973
O  O14  1  0.98710000  0.96480000  0.41294000  1.0 -0.5598021492
O  O15  1  0.53040000  0.68710000  0.66312000  1.0 -0.5698517973
O  O16  1  0.92730000  0.92640000  0.47690000  1.0 -0.5698517973
O  O17  1  0.74550000  0.59631000  0.27956000  1.0 -0.5598021492
O  O18  1  0.90270000  0.96920000  0.52833000  1.0 -0.5698517973
O  O19  1  0.25720000  0.57360000  0.31231000  1.0 -0.5868479008
O  O20  1  0.46393000  0.81318000  0.75996000  1.0 -0.5598021492
O  O21  1  0.49370000  0.61528000  0.71570000  1.0 -0.5698517973
O  O22  1  0.43232000  0.69440000  0.68166000  1.0 -0.5698517973
O  O23  1  0.03520000  0.98710000  0.58706000  1.0 -0.5598021492
O  O24  1  0.31290000  0.53040000  0.33688000  1.0 -0.5698517973
O  O25  1  0.07360000  0.92730000  0.52310000  1.0 -0.5698517973
O  O26  1  0.40369000  0.74550000  0.72044000  1.0 -0.5598021492
O  O27  1  0.03080000  0.90270000  0.47167000  1.0 -0.5698517973
O  O28  1  0.74280000  0.42640000  0.31231000  1.0 -0.5868479008
O  O29  1  0.53607000  0.18682000  0.75996000  1.0 -0.5598021492
O  O30  1  0.50630000  0.38472000  0.71570000  1.0 -0.5698517973
O  O31  1  0.56768000  0.30560000  0.68166000  1.0 -0.5698517973
O  O32  1  0.96480000  0.01290000  0.58706000  1.0 -0.5598021492
O  O33  1  0.68710000  0.46960000  0.33688000  1.0 -0.5698517973
O  O34  1  0.92640000  0.07270000  0.52310000  1.0 -0.5698517973
O  O35  1  0.59631000  0.25450000  0.72044000  1.0 -0.5598021492
O  O36  1  0.96920000  0.09730000  0.47167000  1.0 -0.5698517973
O  O37  1  0.57360000  0.25720000  0.81231000  1.0 -0.5868479008
O  O38  1  0.81318000  0.46393000  0.25996000  1.0 -0.5598021492
O  O39  1  0.61528000  0.49370000  0.21570000  1.0 -0.5698517973
O  O40  1  0.69440000  0.43232000  0.18166000  1.0 -0.5698517973
O  O41  1  0.98710000  0.03520000  0.08706000  1.0 -0.5598021492
O  O42  1  0.53040000  0.31290000  0.83688000  1.0 -0.5753699834
O  O43  1  0.92730000  0.07360000  0.02310000  1.0 -0.5698517973
O  O44  1  0.74550000  0.40369000  0.22044000  1.0 -0.5598021492
O  O45  1  0.90270000  0.03080000  0.97167000  1.0 -0.5698517973
O  O46  1  0.42640000  0.74280000  0.81231000  1.0 -0.5868479008
O  O47  1  0.18682000  0.53607000  0.25996000  1.0 -0.5598021492
O  O48  1  0.38472000  0.50630000  0.21570000  1.0 -0.5698517973
O  O49  1  0.30560000  0.56768000  0.18166000  1.0 -0.5698517973
O  O50  1  0.01290000  0.96480000  0.08706000  1.0 -0.5598021492
O  O51  1  0.46960000  0.68710000  0.83688000  1.0 -0.5753699834
O  O52  1  0.07270000  0.92640000  0.02310000  1.0 -0.5698517973
O  O53  1  0.25450000  0.59631000  0.22044000  1.0 -0.5598021492
O  O54  1  0.09730000  0.96920000  0.97167000  1.0 -0.5698517973
O  O55  1  0.74280000  0.57360000  0.18769000  1.0 -0.5868479008
O  O56  1  0.53607000  0.81318000  0.74004000  1.0 -0.5598021492
O  O57  1  0.50630000  0.61528000  0.78430000  1.0 -0.5698517973
O  O58  1  0.56768000  0.69440000  0.81834000  1.0 -0.5698517973
O  O59  1  0.96480000  0.98710000  0.91294000  1.0 -0.5598021492
O  O60  1  0.68710000  0.53040000  0.16312000  1.0 -0.5753699834
O  O61  1  0.92640000  0.92730000  0.97690000  1.0 -0.5698517973
O  O62  1  0.59631000  0.74550000  0.77956000  1.0 -0.5598021492
O  O63  1  0.96920000  0.90270000  0.02833000  1.0 -0.5698517973
O  O64  1  0.25720000  0.42640000  0.18769000  1.0 -0.5868479008
O  O65  1  0.46393000  0.18682000  0.74004000  1.0 -0.5598021492
O  O66  1  0.49370000  0.38472000  0.78430000  1.0 -0.5698517973
O  O67  1  0.43232000  0.30560000  0.81834000  1.0 -0.5698517973
O  O68  1  0.03520000  0.01290000  0.91294000  1.0 -0.5598021492
O  O69  1  0.31290000  0.46960000  0.16312000  1.0 -0.5753699834
O  O70  1  0.07360000  0.07270000  0.97690000  1.0 -0.5698517973
O  O71  1  0.40369000  0.25450000  0.77956000  1.0 -0.5598021492
O  O72  1  0.03080000  0.09730000  0.02833000  1.0 -0.5698517973
O  O73  1  0.00000000  0.00000000  0.50000000  1.0 -1.0360799327
O  O74  1  0.00000000  0.00000000  0.00000000  1.0 -1.0360799327
O  O75  1  0.28551000  0.50000000  0.25000000  1.0 -1.0360799327
O  O76  1  0.71449000  0.50000000  0.25000000  1.0 -1.0360799327
O  O77  1  0.50000000  0.71449000  0.75000000  1.0 -1.0360799327
O  O78  1  0.50000000  0.28551000  0.75000000  1.0 -1.0360799327
