# DDEC6 charges by PACMAN v1.1 (https://github.com/mtap-research/PACMAN-charge/)
data_d3dt02721j2_2_ion_pacman
_symmetry_space_group_name_H-M   'P 1'
_cell_length_a   24.23460000
_cell_length_b   24.43460000
_cell_length_c   28.72800000
_cell_angle_alpha   90.00000000
_cell_angle_beta   90.00000000
_cell_angle_gamma   90.00000000
_symmetry_Int_Tables_number   1
_chemical_formula_structural   Zn4H39C48(N7O8)2
_chemical_formula_sum   'Zn32 H312.0 C384.0 N112 O128'
_cell_volume   17011.65168769
_cell_formula_units_Z   8
loop_
 _symmetry_equiv_pos_site_id
 _symmetry_equiv_pos_as_xyz
  1  'x, y, z'
loop_
 _atom_site_type_symbol
 _atom_site_label
 _atom_site_symmetry_multiplicity
 _atom_site_fract_x
 _atom_site_fract_y
 _atom_site_fract_z
 _atom_site_occupancy
 _atom_site_charge
Zn  Zn1  1  0.00000000  0.75000000  0.17698000  1.0 0.7184560937
Zn  Zn2  1  0.50000000  0.25000000  0.67698000  1.0 0.7184560937
Zn  Zn3  1  0.00000000  0.25000000  0.32302000  1.0 0.7184560937
Zn  Zn4  1  0.50000000  0.75000000  0.82302000  1.0 0.7184560937
Zn  Zn5  1  0.00000000  0.25000000  0.82302000  1.0 0.7184560937
Zn  Zn6  1  0.50000000  0.75000000  0.32302000  1.0 0.7184560937
Zn  Zn7  1  0.00000000  0.75000000  0.67698000  1.0 0.7184560937
Zn  Zn8  1  0.50000000  0.25000000  0.17698000  1.0 0.7184560937
Zn  Zn9  1  0.05458000  0.80460000  0.37498000  1.0 0.6385531244
Zn  Zn10  1  0.44542000  0.19540000  0.87498000  1.0 0.6385531244
Zn  Zn11  1  0.94542000  0.30460000  0.12502000  1.0 0.6385531244
Zn  Zn12  1  0.55458000  0.69540000  0.62502000  1.0 0.6385531244
Zn  Zn13  1  0.55458000  0.30460000  0.87498000  1.0 0.6385531244
Zn  Zn14  1  0.94542000  0.69540000  0.37498000  1.0 0.6385531244
Zn  Zn15  1  0.44542000  0.80460000  0.62502000  1.0 0.6385531244
Zn  Zn16  1  0.05458000  0.19540000  0.12502000  1.0 0.6385531244
Zn  Zn17  1  0.94542000  0.19540000  0.62502000  1.0 0.6385531244
Zn  Zn18  1  0.55458000  0.80460000  0.12502000  1.0 0.6385531244
Zn  Zn19  1  0.05458000  0.69540000  0.87498000  1.0 0.6385531244
Zn  Zn20  1  0.44542000  0.30460000  0.37498000  1.0 0.6385531244
Zn  Zn21  1  0.44542000  0.69540000  0.12502000  1.0 0.6385531244
Zn  Zn22  1  0.05458000  0.30460000  0.62502000  1.0 0.6385531244
Zn  Zn23  1  0.55458000  0.19540000  0.37498000  1.0 0.6385531244
Zn  Zn24  1  0.94542000  0.80460000  0.87498000  1.0 0.6385531244
Zn  Zn25  1  0.50000000  0.75000000  0.42690000  1.0 0.7337973533
Zn  Zn26  1  0.00000000  0.25000000  0.92690000  1.0 0.7337973533
Zn  Zn27  1  0.50000000  0.25000000  0.07310000  1.0 0.7337973533
Zn  Zn28  1  0.00000000  0.75000000  0.57310000  1.0 0.7337973533
Zn  Zn29  1  0.50000000  0.25000000  0.57310000  1.0 0.7337973533
Zn  Zn30  1  0.00000000  0.75000000  0.07310000  1.0 0.7337973533
Zn  Zn31  1  0.50000000  0.75000000  0.92690000  1.0 0.7337973533
Zn  Zn32  1  0.00000000  0.25000000  0.42690000  1.0 0.7337973533
H  H145  1  0.54430000  0.52341000  0.47981000  0.49 0.1092524547
H  H146  1  0.95570000  0.47659000  0.97981000  0.49 0.1092524547
H  H147  1  0.45570000  0.02341000  0.02019000  0.49 0.1092524547
H  H148  1  0.04430000  0.97659000  0.52019000  0.49 0.1092524547
H  H149  1  0.04430000  0.02341000  0.97981000  0.49 0.1092524547
H  H150  1  0.45570000  0.97659000  0.47981000  0.49 0.1092524547
H  H151  1  0.95570000  0.52341000  0.52019000  0.49 0.1092524547
H  H152  1  0.54430000  0.47659000  0.02019000  0.49 0.1092524547
H  H153  1  0.45570000  0.47659000  0.52019000  0.49 0.1092524547
H  H154  1  0.04430000  0.52341000  0.02019000  0.49 0.1092524547
H  H155  1  0.54430000  0.97659000  0.97981000  0.49 0.1092524547
H  H156  1  0.95570000  0.02341000  0.47981000  0.49 0.1092524547
H  H157  1  0.95570000  0.97659000  0.02019000  0.49 0.1092524547
H  H158  1  0.54430000  0.02341000  0.52019000  0.49 0.1092524547
H  H159  1  0.04430000  0.47659000  0.47981000  0.49 0.1092524547
H  H160  1  0.45570000  0.52341000  0.97981000  0.49 0.1092524547
H  H161  1  0.61977000  0.55394000  0.52347000  0.49 0.1198809737
H  H162  1  0.88023000  0.44606000  0.02347000  0.49 0.1198809737
H  H163  1  0.38023000  0.05394000  0.97653000  0.49 0.1198809737
H  H164  1  0.11977000  0.94606000  0.47653000  0.49 0.1198809737
H  H165  1  0.11977000  0.05394000  0.02347000  0.49 0.1198809737
H  H166  1  0.38023000  0.94606000  0.52347000  0.49 0.1198809737
H  H167  1  0.88023000  0.55394000  0.47653000  0.49 0.1198809737
H  H168  1  0.61977000  0.44606000  0.97653000  0.49 0.1198809737
H  H169  1  0.38023000  0.44606000  0.47653000  0.49 0.1198809737
H  H170  1  0.11977000  0.55394000  0.97653000  0.49 0.1198809737
H  H171  1  0.61977000  0.94606000  0.02347000  0.49 0.1198809737
H  H172  1  0.88023000  0.05394000  0.52347000  0.49 0.1198809737
H  H173  1  0.88023000  0.94606000  0.97653000  0.49 0.1198809737
H  H174  1  0.61977000  0.05394000  0.47653000  0.49 0.1198809737
H  H175  1  0.11977000  0.44606000  0.52347000  0.49 0.1198809737
H  H176  1  0.38023000  0.55394000  0.02347000  0.49 0.1198809737
H  H177  1  0.68044000  0.61866000  0.49208000  0.49 0.1008634932
H  H178  1  0.81956000  0.38134000  0.99208000  0.49 0.1008634932
H  H179  1  0.31956000  0.11866000  0.00792000  0.49 0.1008634932
H  H180  1  0.18044000  0.88134000  0.50792000  0.49 0.1008634932
H  H181  1  0.18044000  0.11866000  0.99208000  0.49 0.1008634932
H  H182  1  0.31956000  0.88134000  0.49208000  0.49 0.1008634932
H  H183  1  0.81956000  0.61866000  0.50792000  0.49 0.1008634932
H  H184  1  0.68044000  0.38134000  0.00792000  0.49 0.1008634932
H  H185  1  0.31956000  0.38134000  0.50792000  0.49 0.1008634932
H  H186  1  0.18044000  0.61866000  0.00792000  0.49 0.1008634932
H  H187  1  0.68044000  0.88134000  0.99208000  0.49 0.1008634932
H  H188  1  0.81956000  0.11866000  0.49208000  0.49 0.1008634932
H  H189  1  0.81956000  0.88134000  0.00792000  0.49 0.1008634932
H  H190  1  0.68044000  0.11866000  0.50792000  0.49 0.1008634932
H  H191  1  0.18044000  0.38134000  0.49208000  0.49 0.1008634932
H  H192  1  0.31956000  0.61866000  0.99208000  0.49 0.1008634932
H  H257  1  0.41562000  0.58940000  0.32365000  0.49 0.1008634932
H  H258  1  0.08438000  0.41060000  0.82365000  0.49 0.1008634932
H  H259  1  0.58438000  0.08940000  0.17635000  0.49 0.1008634932
H  H260  1  0.91562000  0.91060000  0.67635000  0.49 0.1008634932
H  H261  1  0.91562000  0.08940000  0.82365000  0.49 0.1008634932
H  H262  1  0.58438000  0.91060000  0.32365000  0.49 0.1008634932
H  H263  1  0.08438000  0.58940000  0.67635000  0.49 0.1008634932
H  H264  1  0.41562000  0.41060000  0.17635000  0.49 0.1008634932
H  H265  1  0.58438000  0.41060000  0.67635000  0.49 0.1008634932
H  H266  1  0.91562000  0.58940000  0.17635000  0.49 0.1008634932
H  H267  1  0.41562000  0.91060000  0.82365000  0.49 0.1008634932
H  H268  1  0.08438000  0.08940000  0.32365000  0.49 0.1008634932
H  H269  1  0.08438000  0.91060000  0.17635000  0.49 0.1008634932
H  H270  1  0.41562000  0.08940000  0.67635000  0.49 0.1008634932
H  H271  1  0.91562000  0.41060000  0.32365000  0.49 0.1008634932
H  H272  1  0.58438000  0.58940000  0.82365000  0.49 0.1008634932
H  H273  1  0.40275000  0.49476000  0.31755000  0.49 0.1008634932
H  H274  1  0.09725000  0.50524000  0.81754000  0.49 0.1008634932
H  H275  1  0.59725000  0.99476000  0.18245000  0.49 0.1008634932
H  H276  1  0.90275000  0.00524000  0.68246000  0.49 0.1008634932
H  H277  1  0.90275000  0.99476000  0.81754000  0.49 0.1008634932
H  H278  1  0.59725000  0.00524000  0.31755000  0.49 0.1008634932
H  H279  1  0.09725000  0.49476000  0.68246000  0.49 0.1008634932
H  H280  1  0.40275000  0.50524000  0.18245000  0.49 0.1008634932
H  H281  1  0.59725000  0.50524000  0.68246000  0.49 0.1008634932
H  H282  1  0.90275000  0.49476000  0.18245000  0.49 0.1008634932
H  H283  1  0.40275000  0.00524000  0.81754000  0.49 0.1008634932
H  H284  1  0.09725000  0.99476000  0.31755000  0.49 0.1008634932
H  H285  1  0.09725000  0.00524000  0.18245000  0.49 0.1008634932
H  H286  1  0.40275000  0.99476000  0.68246000  0.49 0.1008634932
H  H287  1  0.90275000  0.50524000  0.31755000  0.49 0.1008634932
H  H288  1  0.59725000  0.49476000  0.81754000  0.49 0.1008634932
H  H289  1  0.52972000  0.46981000  0.40689000  0.49 0.0914904005
H  H290  1  0.97028000  0.53019000  0.90689000  0.49 0.0914904005
H  H291  1  0.47028000  0.96981000  0.09311000  0.49 0.0914904005
H  H292  1  0.02972000  0.03019000  0.59311000  0.49 0.0914904005
H  H293  1  0.02972000  0.96981000  0.90689000  0.49 0.0914904005
H  H294  1  0.47028000  0.03019000  0.40689000  0.49 0.0914904005
H  H295  1  0.97028000  0.46981000  0.59311000  0.49 0.0914904005
H  H296  1  0.52972000  0.53019000  0.09311000  0.49 0.0914904005
H  H297  1  0.47028000  0.53019000  0.59311000  0.49 0.0914904005
H  H298  1  0.02972000  0.46981000  0.09311000  0.49 0.0914904005
H  H299  1  0.52972000  0.03019000  0.90689000  0.49 0.0914904005
H  H300  1  0.97028000  0.96981000  0.40689000  0.49 0.0914904005
H  H301  1  0.97028000  0.03019000  0.09311000  0.49 0.0914904005
H  H302  1  0.52972000  0.96981000  0.59311000  0.49 0.0914904005
H  H303  1  0.02972000  0.53019000  0.40689000  0.49 0.0914904005
H  H304  1  0.47028000  0.46981000  0.90689000  0.49 0.0914904005
H  H305  1  0.31390000  0.73440000  0.33308000  0.49 0.1008634932
H  H306  1  0.18610000  0.26560000  0.83308000  0.49 0.1008634932
H  H307  1  0.68610000  0.23440000  0.16692000  0.49 0.1008634932
H  H308  1  0.81390000  0.76560000  0.66692000  0.49 0.1008634932
H  H309  1  0.81390000  0.23440000  0.83308000  0.49 0.1008634932
H  H310  1  0.68610000  0.76560000  0.33308000  0.49 0.1008634932
H  H311  1  0.18610000  0.73440000  0.66692000  0.49 0.1008634932
H  H312  1  0.31390000  0.26560000  0.16692000  0.49 0.1008634932
H  H313  1  0.68610000  0.26560000  0.66692000  0.49 0.1008634932
H  H314  1  0.81390000  0.73440000  0.16692000  0.49 0.1008634932
H  H315  1  0.31390000  0.76560000  0.83308000  0.49 0.1008634932
H  H316  1  0.18610000  0.23440000  0.33308000  0.49 0.1008634932
H  H317  1  0.18610000  0.76560000  0.16692000  0.49 0.1008634932
H  H318  1  0.31390000  0.23440000  0.66692000  0.49 0.1008634932
H  H319  1  0.81390000  0.26560000  0.33308000  0.49 0.1008634932
H  H320  1  0.68610000  0.73440000  0.83308000  0.49 0.1008634932
H  H321  1  0.25149000  0.87417000  0.43123000  0.49 0.1008634932
H  H322  1  0.24851000  0.12583000  0.93124000  0.49 0.1008634932
H  H323  1  0.74851000  0.37417000  0.06877000  0.49 0.1008634932
H  H324  1  0.75149000  0.62583000  0.56876000  0.49 0.1008634932
H  H325  1  0.75149000  0.37417000  0.93124000  0.49 0.1008634932
H  H326  1  0.74851000  0.62583000  0.43123000  0.49 0.1008634932
H  H327  1  0.24851000  0.87417000  0.56876000  0.49 0.1008634932
H  H328  1  0.25149000  0.12583000  0.06877000  0.49 0.1008634932
H  H329  1  0.74851000  0.12583000  0.56876000  0.49 0.1008634932
H  H330  1  0.75149000  0.87417000  0.06877000  0.49 0.1008634932
H  H331  1  0.25149000  0.62583000  0.93124000  0.49 0.1008634932
H  H332  1  0.24851000  0.37417000  0.43123000  0.49 0.1008634932
H  H333  1  0.24851000  0.62583000  0.06877000  0.49 0.1008634932
H  H334  1  0.25149000  0.37417000  0.56876000  0.49 0.1008634932
H  H335  1  0.75149000  0.12583000  0.43123000  0.49 0.1008634932
H  H336  1  0.74851000  0.87417000  0.93124000  0.49 0.1008634932
H  H337  1  0.21916000  0.74864000  0.34314000  0.49 0.1008634932
H  H338  1  0.28084000  0.25136000  0.84313000  0.49 0.1008634932
H  H339  1  0.78084000  0.24864000  0.15686000  0.49 0.1008634932
H  H340  1  0.71916000  0.75136000  0.65687000  0.49 0.1008634932
H  H341  1  0.71916000  0.24864000  0.84313000  0.49 0.1008634932
H  H342  1  0.78084000  0.75136000  0.34314000  0.49 0.1008634932
H  H343  1  0.28084000  0.74864000  0.65687000  0.49 0.1008634932
H  H344  1  0.21916000  0.25136000  0.15686000  0.49 0.1008634932
H  H345  1  0.78084000  0.25136000  0.65687000  0.49 0.1008634932
H  H346  1  0.71916000  0.74864000  0.15686000  0.49 0.1008634932
H  H347  1  0.21916000  0.75136000  0.84313000  0.49 0.1008634932
H  H348  1  0.28084000  0.24864000  0.34314000  0.49 0.1008634932
H  H349  1  0.28084000  0.75136000  0.15686000  0.49 0.1008634932
H  H350  1  0.21916000  0.24864000  0.65687000  0.49 0.1008634932
H  H351  1  0.71916000  0.25136000  0.34314000  0.49 0.1008634932
H  H352  1  0.78084000  0.74864000  0.84313000  0.49 0.1008634932
H  H193  1  0.60131000  0.69716000  0.50815000  0.5 0.2004657486
H  H194  1  0.89869000  0.30284000  0.00815000  0.5 0.2004657486
H  H195  1  0.39869000  0.19716000  0.99185000  0.5 0.2004657486
H  H196  1  0.10131000  0.80284000  0.49185000  0.5 0.2004657486
H  H197  1  0.10131000  0.19716000  0.00815000  0.5 0.2004657486
H  H198  1  0.39869000  0.80284000  0.50815000  0.5 0.2004657486
H  H199  1  0.89869000  0.69716000  0.49185000  0.5 0.2004657486
H  H200  1  0.60131000  0.30284000  0.99185000  0.5 0.2004657486
H  H201  1  0.39869000  0.30284000  0.49185000  0.5 0.2004657486
H  H202  1  0.10131000  0.69716000  0.99185000  0.5 0.2004657486
H  H203  1  0.60131000  0.80284000  0.00815000  0.5 0.2004657486
H  H204  1  0.89869000  0.19716000  0.50815000  0.5 0.2004657486
H  H205  1  0.89869000  0.80284000  0.99185000  0.5 0.2004657486
H  H206  1  0.60131000  0.19716000  0.49185000  0.5 0.2004657486
H  H207  1  0.10131000  0.30284000  0.50815000  0.5 0.2004657486
H  H208  1  0.39869000  0.69716000  0.00815000  0.5 0.2004657486
H  H209  1  0.56801000  0.65557000  0.52957000  0.5 0.1926661437
H  H210  1  0.93199000  0.34443000  0.02957000  0.5 0.1926661437
H  H211  1  0.43199000  0.15557000  0.97043000  0.5 0.1926661437
H  H212  1  0.06801000  0.84443000  0.47043000  0.5 0.1926661437
H  H213  1  0.06801000  0.15557000  0.02957000  0.5 0.1926661437
H  H214  1  0.43199000  0.84443000  0.52957000  0.5 0.1926661437
H  H215  1  0.93199000  0.65557000  0.47043000  0.5 0.1926661437
H  H216  1  0.56801000  0.34443000  0.97043000  0.5 0.1926661437
H  H217  1  0.43199000  0.34443000  0.47043000  0.5 0.1926661437
H  H218  1  0.06801000  0.65557000  0.97043000  0.5 0.1926661437
H  H219  1  0.56801000  0.84443000  0.02957000  0.5 0.1926661437
H  H220  1  0.93199000  0.15557000  0.52957000  0.5 0.1926661437
H  H221  1  0.93199000  0.84443000  0.97043000  0.5 0.1926661437
H  H222  1  0.56801000  0.15557000  0.47043000  0.5 0.1926661437
H  H223  1  0.06801000  0.34443000  0.52957000  0.5 0.1926661437
H  H224  1  0.43199000  0.65557000  0.02957000  0.5 0.1926661437
H  H225  1  0.04285000  0.84882000  0.24845000  0.5 0.2004657486
H  H226  1  0.45715000  0.15118000  0.74845000  0.5 0.2004657486
H  H227  1  0.95715000  0.34882000  0.25155000  0.5 0.2004657486
H  H228  1  0.54285000  0.65118000  0.75155000  0.5 0.2004657486
H  H229  1  0.54285000  0.34882000  0.74845000  0.5 0.2004657486
H  H230  1  0.95715000  0.65118000  0.24845000  0.5 0.2004657486
H  H231  1  0.45715000  0.84882000  0.75155000  0.5 0.2004657486
H  H232  1  0.04285000  0.15118000  0.25155000  0.5 0.2004657486
H  H233  1  0.95715000  0.15118000  0.75155000  0.5 0.2004657486
H  H234  1  0.54285000  0.84882000  0.25155000  0.5 0.2004657486
H  H235  1  0.04285000  0.65118000  0.74845000  0.5 0.2004657486
H  H236  1  0.45715000  0.34882000  0.24845000  0.5 0.2004657486
H  H237  1  0.45715000  0.65118000  0.25155000  0.5 0.2004657486
H  H238  1  0.04285000  0.34882000  0.75155000  0.5 0.2004657486
H  H239  1  0.54285000  0.15118000  0.24845000  0.5 0.2004657486
H  H240  1  0.95715000  0.84882000  0.74845000  0.5 0.2004657486
H  H241  1  0.08991000  0.79948000  0.24640000  0.5 0.1690475703
H  H242  1  0.41009000  0.20052000  0.74640000  0.5 0.1690475703
H  H243  1  0.91009000  0.29948000  0.25360000  0.5 0.1690475703
H  H244  1  0.58991000  0.70052000  0.75360000  0.5 0.1690475703
H  H245  1  0.58991000  0.29948000  0.74640000  0.5 0.1690475703
H  H246  1  0.91009000  0.70052000  0.24640000  0.5 0.1690475703
H  H247  1  0.41009000  0.79948000  0.75360000  0.5 0.1690475703
H  H248  1  0.08991000  0.20052000  0.25360000  0.5 0.1690475703
H  H249  1  0.91009000  0.20052000  0.75360000  0.5 0.1690475703
H  H250  1  0.58991000  0.79948000  0.25360000  0.5 0.1690475703
H  H251  1  0.08991000  0.70052000  0.74640000  0.5 0.1690475703
H  H252  1  0.41009000  0.29948000  0.24640000  0.5 0.1690475703
H  H253  1  0.41009000  0.70052000  0.25360000  0.5 0.1690475703
H  H254  1  0.08991000  0.29948000  0.75360000  0.5 0.1690475703
H  H255  1  0.58991000  0.20052000  0.24640000  0.5 0.1690475703
H  H256  1  0.91009000  0.79948000  0.74640000  0.5 0.1690475703
H  H353  1  0.06052000  0.79530000  0.26307000  0.5 0.1618513209
H  H354  1  0.43948000  0.20470000  0.76307000  0.5 0.1618513209
H  H355  1  0.93948000  0.29530000  0.23693000  0.5 0.1618513209
H  H356  1  0.56052000  0.70470000  0.73693000  0.5 0.1618513209
H  H357  1  0.56052000  0.29530000  0.76307000  0.5 0.1618513209
H  H358  1  0.93948000  0.70470000  0.26307000  0.5 0.1618513209
H  H359  1  0.43948000  0.79530000  0.73693000  0.5 0.1618513209
H  H360  1  0.06052000  0.20470000  0.23693000  0.5 0.1618513209
H  H361  1  0.93948000  0.20470000  0.73693000  0.5 0.1618513209
H  H362  1  0.56052000  0.79530000  0.23693000  0.5 0.1618513209
H  H363  1  0.06052000  0.70470000  0.76307000  0.5 0.1618513209
H  H364  1  0.43948000  0.29530000  0.26307000  0.5 0.1618513209
H  H365  1  0.43948000  0.70470000  0.23693000  0.5 0.1618513209
H  H366  1  0.06052000  0.29530000  0.73693000  0.5 0.1618513209
H  H367  1  0.56052000  0.20470000  0.26307000  0.5 0.1618513209
H  H368  1  0.93948000  0.79530000  0.76307000  0.5 0.1618513209
H  H369  1  0.56073000  0.58110000  0.99364000  0.5 0.2135852767
H  H370  1  0.53816000  0.63642000  0.99810000  0.5 0.2294718107
H  H371  1  0.60724000  0.64763000  0.95048000  0.5 0.1198809737
H  H372  1  0.63042000  0.59916000  0.98288000  0.5 0.1092524547
H  H373  1  0.64329000  0.66217000  0.99552000  0.5 0.1198809737
H  H374  1  0.53179000  0.61322000  0.06983000  0.5 0.1008634932
H  H375  1  0.59424000  0.63459000  0.07149000  0.5 0.1272014925
H  H376  1  0.58137000  0.57159000  0.05884000  0.5 0.1092524547
H  H377  1  0.93927000  0.41890000  0.49364000  0.5 0.2135852767
H  H378  1  0.96184000  0.36358000  0.49810000  0.5 0.2294718107
H  H379  1  0.89276000  0.35237000  0.45048000  0.5 0.1198809737
H  H380  1  0.86958000  0.40084000  0.48288000  0.5 0.1092524547
H  H381  1  0.85671000  0.33782000  0.49552000  0.5 0.1198809737
H  H382  1  0.96821000  0.38678000  0.56983000  0.5 0.1008634932
H  H383  1  0.90576000  0.36541000  0.57149000  0.5 0.1272014925
H  H384  1  0.91863000  0.42841000  0.55884000  0.5 0.1092524547
H  H385  1  0.43927000  0.08110000  0.50636000  0.5 0.2135852767
H  H386  1  0.46184000  0.13642000  0.50190000  0.5 0.2294718107
H  H387  1  0.39276000  0.14763000  0.54952000  0.5 0.1198809737
H  H388  1  0.36958000  0.09916000  0.51712000  0.5 0.1092524547
H  H389  1  0.35671000  0.16217000  0.50448000  0.5 0.1198809737
H  H390  1  0.46821000  0.11322000  0.43017000  0.5 0.1008634932
H  H391  1  0.40576000  0.13459000  0.42851000  0.5 0.1272014925
H  H392  1  0.41863000  0.07159000  0.44116000  0.5 0.1092524547
H  H393  1  0.06073000  0.91890000  0.00636000  0.5 0.2135852767
H  H394  1  0.03816000  0.86358000  0.00190000  0.5 0.2294718107
H  H395  1  0.10724000  0.85236000  0.04952000  0.5 0.1198809737
H  H396  1  0.13042000  0.90084000  0.01712000  0.5 0.1092524547
H  H397  1  0.14329000  0.83783000  0.00448000  0.5 0.1198809737
H  H398  1  0.03179000  0.88678000  0.93017000  0.5 0.1008634932
H  H399  1  0.09424000  0.86541000  0.92851000  0.5 0.1272014925
H  H400  1  0.08137000  0.92841000  0.94116000  0.5 0.1092524547
H  H401  1  0.06073000  0.08110000  0.49364000  0.5 0.2135852767
H  H402  1  0.03816000  0.13642000  0.49810000  0.5 0.2294718107
H  H403  1  0.10724000  0.14763000  0.45048000  0.5 0.1198809737
H  H404  1  0.13042000  0.09916000  0.48288000  0.5 0.1092524547
H  H405  1  0.14329000  0.16217000  0.49552000  0.5 0.1198809737
H  H406  1  0.03179000  0.11322000  0.56983000  0.5 0.1008634932
H  H407  1  0.09424000  0.13459000  0.57149000  0.5 0.1272014925
H  H408  1  0.08137000  0.07159000  0.55884000  0.5 0.1092524547
H  H409  1  0.43927000  0.91890000  0.99364000  0.5 0.2135852767
H  H410  1  0.46184000  0.86358000  0.99810000  0.5 0.2294718107
H  H411  1  0.39276000  0.85236000  0.95048000  0.5 0.1198809737
H  H412  1  0.36958000  0.90084000  0.98288000  0.5 0.1092524547
H  H413  1  0.35671000  0.83783000  0.99552000  0.5 0.1198809737
H  H414  1  0.46821000  0.88678000  0.06983000  0.5 0.1008634932
H  H415  1  0.40576000  0.86541000  0.07149000  0.5 0.1272014925
H  H416  1  0.41863000  0.92841000  0.05884000  0.5 0.1092524547
H  H417  1  0.93927000  0.58110000  0.00636000  0.5 0.2135852767
H  H418  1  0.96184000  0.63642000  0.00190000  0.5 0.2294718107
H  H419  1  0.89276000  0.64763000  0.04952000  0.5 0.1198809737
H  H420  1  0.86958000  0.59916000  0.01712000  0.5 0.1092524547
H  H421  1  0.85671000  0.66217000  0.00448000  0.5 0.1198809737
H  H422  1  0.96821000  0.61322000  0.93017000  0.5 0.1008634932
H  H423  1  0.90576000  0.63459000  0.92851000  0.5 0.1272014925
H  H424  1  0.91863000  0.57159000  0.94116000  0.5 0.1092524547
H  H425  1  0.56073000  0.41890000  0.50636000  0.5 0.2135852767
H  H426  1  0.53816000  0.36358000  0.50190000  0.5 0.2294718107
H  H427  1  0.60724000  0.35237000  0.54952000  0.5 0.1198809737
H  H428  1  0.63042000  0.40084000  0.51712000  0.5 0.1092524547
H  H429  1  0.64329000  0.33782000  0.50448000  0.5 0.1198809737
H  H430  1  0.53179000  0.38678000  0.43017000  0.5 0.1008634932
H  H431  1  0.59424000  0.36541000  0.42851000  0.5 0.1272014925
H  H432  1  0.58137000  0.42841000  0.44116000  0.5 0.1092524547
H  H433  1  0.43927000  0.41890000  0.00636000  0.5 0.2135852767
H  H434  1  0.46184000  0.36358000  0.00190000  0.5 0.2294718107
H  H435  1  0.39276000  0.35237000  0.04952000  0.5 0.1198809737
H  H436  1  0.36958000  0.40084000  0.01712000  0.5 0.1092524547
H  H437  1  0.35671000  0.33782000  0.00448000  0.5 0.1198809737
H  H438  1  0.46821000  0.38678000  0.93017000  0.5 0.1008634932
H  H439  1  0.40576000  0.36541000  0.92851000  0.5 0.1272014925
H  H440  1  0.41863000  0.42841000  0.94116000  0.5 0.1092524547
H  H441  1  0.06073000  0.58110000  0.50636000  0.5 0.2135852767
H  H442  1  0.03816000  0.63642000  0.50190000  0.5 0.2294718107
H  H443  1  0.10724000  0.64763000  0.54952000  0.5 0.1198809737
H  H444  1  0.13042000  0.59916000  0.51712000  0.5 0.1092524547
H  H445  1  0.14329000  0.66217000  0.50448000  0.5 0.1198809737
H  H446  1  0.03179000  0.61322000  0.43017000  0.5 0.1008634932
H  H447  1  0.09424000  0.63459000  0.42851000  0.5 0.1272014925
H  H448  1  0.08137000  0.57159000  0.44116000  0.5 0.1092524547
H  H449  1  0.56073000  0.91890000  0.49364000  0.5 0.2135852767
H  H450  1  0.53816000  0.86358000  0.49810000  0.5 0.2294718107
H  H451  1  0.60724000  0.85236000  0.45048000  0.5 0.1198809737
H  H452  1  0.63042000  0.90084000  0.48288000  0.5 0.1092524547
H  H453  1  0.64329000  0.83783000  0.49552000  0.5 0.1198809737
H  H454  1  0.53179000  0.88678000  0.56983000  0.5 0.1008634932
H  H455  1  0.59424000  0.86541000  0.57149000  0.5 0.1272014925
H  H456  1  0.58137000  0.92841000  0.55884000  0.5 0.1092524547
H  H457  1  0.93927000  0.08110000  0.99364000  0.5 0.2135852767
H  H458  1  0.96184000  0.13642000  0.99810000  0.5 0.2294718107
H  H459  1  0.89276000  0.14763000  0.95048000  0.5 0.1198809737
H  H460  1  0.86958000  0.09916000  0.98288000  0.5 0.1092524547
H  H461  1  0.85671000  0.16217000  0.99552000  0.5 0.1198809737
H  H462  1  0.96821000  0.11322000  0.06983000  0.5 0.1008634932
H  H463  1  0.90576000  0.13459000  0.07149000  0.5 0.1272014925
H  H464  1  0.91863000  0.07159000  0.05884000  0.5 0.1092524547
H  H465  1  0.93927000  0.91890000  0.50636000  0.5 0.2135852767
H  H466  1  0.96184000  0.86358000  0.50190000  0.5 0.2294718107
H  H467  1  0.89276000  0.85236000  0.54952000  0.5 0.1198809737
H  H468  1  0.86958000  0.90084000  0.51712000  0.5 0.1092524547
H  H469  1  0.85671000  0.83783000  0.50448000  0.5 0.1198809737
H  H470  1  0.96821000  0.88678000  0.43017000  0.5 0.1008634932
H  H471  1  0.90576000  0.86541000  0.42851000  0.5 0.1272014925
H  H472  1  0.91863000  0.92841000  0.44116000  0.5 0.1092524547
H  H473  1  0.56073000  0.08110000  0.00636000  0.5 0.2135852767
H  H474  1  0.53816000  0.13642000  0.00190000  0.5 0.2294718107
H  H475  1  0.60724000  0.14763000  0.04952000  0.5 0.1198809737
H  H476  1  0.63042000  0.09916000  0.01712000  0.5 0.1092524547
H  H477  1  0.64329000  0.16217000  0.00448000  0.5 0.1198809737
H  H478  1  0.53179000  0.11322000  0.93017000  0.5 0.1008634932
H  H479  1  0.59424000  0.13459000  0.92851000  0.5 0.1272014925
H  H480  1  0.58137000  0.07159000  0.94116000  0.5 0.1092524547
H  H481  1  0.06073000  0.41890000  0.99364000  0.5 0.2135852767
H  H482  1  0.03816000  0.36358000  0.99810000  0.5 0.2294718107
H  H483  1  0.10724000  0.35237000  0.95048000  0.5 0.1198809737
H  H484  1  0.13042000  0.40084000  0.98288000  0.5 0.1092524547
H  H485  1  0.14329000  0.33782000  0.99552000  0.5 0.1198809737
H  H486  1  0.03179000  0.38678000  0.06983000  0.5 0.1008634932
H  H487  1  0.09424000  0.36541000  0.07149000  0.5 0.1272014925
H  H488  1  0.08137000  0.42841000  0.05884000  0.5 0.1092524547
H  H489  1  0.43927000  0.58110000  0.49364000  0.5 0.2135852767
H  H490  1  0.46184000  0.63642000  0.49810000  0.5 0.2294718107
H  H491  1  0.39276000  0.64763000  0.45048000  0.5 0.1198809737
H  H492  1  0.36958000  0.59916000  0.48288000  0.5 0.1092524547
H  H493  1  0.35671000  0.66217000  0.49552000  0.5 0.1198809737
H  H494  1  0.46821000  0.61322000  0.56983000  0.5 0.1008634932
H  H495  1  0.40576000  0.63459000  0.57149000  0.5 0.1272014925
H  H496  1  0.41863000  0.57159000  0.55884000  0.5 0.1092524547
H  H497  1  0.67162000  0.81047000  0.75019000  0.5 0.2294718107
H  H498  1  0.61358000  0.79147000  0.74657000  0.5 0.2135852767
H  H499  1  0.62037000  0.86308000  0.79703000  0.5 0.1092524547
H  H500  1  0.58010000  0.87924000  0.75505000  0.5 0.1092524547
H  H501  1  0.64233000  0.90132000  0.75555000  0.5 0.1198809737
H  H502  1  0.64695000  0.80563000  0.67111000  0.5 0.0914904005
H  H503  1  0.65967000  0.86803000  0.68584000  0.5 0.1198809737
H  H504  1  0.59745000  0.84596000  0.68532000  0.5 0.1198809737
H  H505  1  0.82838000  0.18953000  0.25019000  0.5 0.2294718107
H  H506  1  0.88642000  0.20853000  0.24657000  0.5 0.2135852767
H  H507  1  0.87963000  0.13692000  0.29703000  0.5 0.1092524547
H  H508  1  0.91990000  0.12076000  0.25505000  0.5 0.1092524547
H  H509  1  0.85767000  0.09868000  0.25555000  0.5 0.1198809737
H  H510  1  0.85305000  0.19437000  0.17111000  0.5 0.0914904005
H  H511  1  0.84033000  0.13197000  0.18584000  0.5 0.1198809737
H  H512  1  0.90255000  0.15404000  0.18532000  0.5 0.1198809737
H  H513  1  0.32838000  0.31047000  0.74981000  0.5 0.2294718107
H  H514  1  0.38642000  0.29147000  0.75343000  0.5 0.2135852767
H  H515  1  0.37963000  0.36308000  0.70297000  0.5 0.1092524547
H  H516  1  0.41990000  0.37924000  0.74495000  0.5 0.1092524547
H  H517  1  0.35767000  0.40132000  0.74445000  0.5 0.1198809737
H  H518  1  0.35305000  0.30563000  0.82889000  0.5 0.0914904005
H  H519  1  0.34033000  0.36803000  0.81416000  0.5 0.1198809737
H  H520  1  0.40255000  0.34596000  0.81468000  0.5 0.1198809737
H  H521  1  0.17162000  0.68953000  0.24981000  0.5 0.2294718107
H  H522  1  0.11358000  0.70853000  0.25343000  0.5 0.2135852767
H  H523  1  0.12037000  0.63692000  0.20297000  0.5 0.1092524547
H  H524  1  0.08010000  0.62076000  0.24495000  0.5 0.1092524547
H  H525  1  0.14233000  0.59868000  0.24445000  0.5 0.1198809737
H  H526  1  0.14695000  0.69437000  0.32889000  0.5 0.0914904005
H  H527  1  0.15967000  0.63197000  0.31416000  0.5 0.1198809737
H  H528  1  0.09745000  0.65404000  0.31468000  0.5 0.1198809737
H  H529  1  0.17162000  0.31047000  0.25019000  0.5 0.2294718107
H  H530  1  0.11358000  0.29147000  0.24657000  0.5 0.2135852767
H  H531  1  0.12037000  0.36308000  0.29703000  0.5 0.1092524547
H  H532  1  0.08010000  0.37924000  0.25505000  0.5 0.1092524547
H  H533  1  0.14233000  0.40132000  0.25555000  0.5 0.1198809737
H  H534  1  0.14695000  0.30563000  0.17111000  0.5 0.0914904005
H  H535  1  0.15967000  0.36803000  0.18584000  0.5 0.1198809737
H  H536  1  0.09745000  0.34596000  0.18532000  0.5 0.1198809737
H  H537  1  0.32838000  0.68953000  0.75019000  0.5 0.2294718107
H  H538  1  0.38642000  0.70853000  0.74657000  0.5 0.2135852767
H  H539  1  0.37963000  0.63692000  0.79703000  0.5 0.1092524547
H  H540  1  0.41990000  0.62076000  0.75505000  0.5 0.1092524547
H  H541  1  0.35767000  0.59868000  0.75555000  0.5 0.1198809737
H  H542  1  0.35305000  0.69437000  0.67111000  0.5 0.0914904005
H  H543  1  0.34033000  0.63197000  0.68584000  0.5 0.1198809737
H  H544  1  0.40255000  0.65404000  0.68532000  0.5 0.1198809737
H  H545  1  0.82838000  0.81047000  0.24981000  0.5 0.2294718107
H  H546  1  0.88642000  0.79147000  0.25343000  0.5 0.2135852767
H  H547  1  0.87963000  0.86308000  0.20297000  0.5 0.1092524547
H  H548  1  0.91990000  0.87924000  0.24495000  0.5 0.1092524547
H  H549  1  0.85767000  0.90132000  0.24445000  0.5 0.1198809737
H  H550  1  0.85305000  0.80563000  0.32889000  0.5 0.0914904005
H  H551  1  0.84033000  0.86803000  0.31416000  0.5 0.1198809737
H  H552  1  0.90255000  0.84596000  0.31468000  0.5 0.1198809737
H  H553  1  0.67162000  0.18953000  0.74981000  0.5 0.2294718107
H  H554  1  0.61358000  0.20853000  0.75343000  0.5 0.2135852767
H  H555  1  0.62037000  0.13692000  0.70297000  0.5 0.1092524547
H  H556  1  0.58010000  0.12076000  0.74495000  0.5 0.1092524547
H  H557  1  0.64233000  0.09868000  0.74445000  0.5 0.1198809737
H  H558  1  0.64695000  0.19437000  0.82889000  0.5 0.0914904005
H  H559  1  0.65967000  0.13197000  0.81416000  0.5 0.1198809737
H  H560  1  0.59745000  0.15404000  0.81468000  0.5 0.1198809737
H  H561  1  0.32838000  0.18953000  0.24981000  0.5 0.2294718107
H  H562  1  0.38642000  0.20853000  0.25343000  0.5 0.2135852767
H  H563  1  0.37963000  0.13692000  0.20297000  0.5 0.1092524547
H  H564  1  0.41990000  0.12076000  0.24495000  0.5 0.1092524547
H  H565  1  0.35767000  0.09868000  0.24445000  0.5 0.1198809737
H  H566  1  0.35305000  0.19437000  0.32889000  0.5 0.0914904005
H  H567  1  0.34033000  0.13197000  0.31416000  0.5 0.1198809737
H  H568  1  0.40255000  0.15404000  0.31468000  0.5 0.1198809737
H  H569  1  0.17162000  0.81047000  0.74981000  0.5 0.2294718107
H  H570  1  0.11358000  0.79147000  0.75343000  0.5 0.2135852767
H  H571  1  0.12037000  0.86308000  0.70297000  0.5 0.1092524547
H  H572  1  0.08010000  0.87924000  0.74495000  0.5 0.1092524547
H  H573  1  0.14233000  0.90132000  0.74445000  0.5 0.1198809737
H  H574  1  0.14695000  0.80563000  0.82889000  0.5 0.0914904005
H  H575  1  0.15967000  0.86803000  0.81416000  0.5 0.1198809737
H  H576  1  0.09745000  0.84596000  0.81468000  0.5 0.1198809737
H  H577  1  0.67162000  0.68953000  0.25019000  0.5 0.2294718107
H  H578  1  0.61358000  0.70853000  0.24657000  0.5 0.2135852767
H  H579  1  0.62037000  0.63692000  0.29703000  0.5 0.1092524547
H  H580  1  0.58010000  0.62076000  0.25505000  0.5 0.1092524547
H  H581  1  0.64233000  0.59868000  0.25555000  0.5 0.1198809737
H  H582  1  0.64695000  0.69437000  0.17111000  0.5 0.0914904005
H  H583  1  0.65967000  0.63197000  0.18584000  0.5 0.1198809737
H  H584  1  0.59745000  0.65404000  0.18532000  0.5 0.1198809737
H  H585  1  0.82838000  0.31047000  0.75019000  0.5 0.2294718107
H  H586  1  0.88642000  0.29147000  0.74657000  0.5 0.2135852767
H  H587  1  0.87963000  0.36308000  0.79703000  0.5 0.1092524547
H  H588  1  0.91990000  0.37924000  0.75505000  0.5 0.1092524547
H  H589  1  0.85767000  0.40132000  0.75555000  0.5 0.1198809737
H  H590  1  0.85305000  0.30563000  0.67111000  0.5 0.0914904005
H  H591  1  0.84033000  0.36803000  0.68584000  0.5 0.1198809737
H  H592  1  0.90255000  0.34596000  0.68532000  0.5 0.1198809737
H  H593  1  0.82838000  0.68953000  0.74981000  0.5 0.2294718107
H  H594  1  0.88642000  0.70853000  0.75343000  0.5 0.2135852767
H  H595  1  0.87963000  0.63692000  0.70297000  0.5 0.1092524547
H  H596  1  0.91990000  0.62076000  0.74495000  0.5 0.1092524547
H  H597  1  0.85767000  0.59868000  0.74445000  0.5 0.1198809737
H  H598  1  0.85305000  0.69437000  0.82889000  0.5 0.0914904005
H  H599  1  0.84033000  0.63197000  0.81416000  0.5 0.1198809737
H  H600  1  0.90255000  0.65404000  0.81468000  0.5 0.1198809737
H  H601  1  0.67162000  0.31047000  0.24981000  0.5 0.2294718107
H  H602  1  0.61358000  0.29147000  0.25343000  0.5 0.2135852767
H  H603  1  0.62037000  0.36308000  0.20297000  0.5 0.1092524547
H  H604  1  0.58010000  0.37924000  0.24495000  0.5 0.1092524547
H  H605  1  0.64233000  0.40132000  0.24445000  0.5 0.1198809737
H  H606  1  0.64695000  0.30563000  0.32889000  0.5 0.0914904005
H  H607  1  0.65967000  0.36803000  0.31416000  0.5 0.1198809737
H  H608  1  0.59745000  0.34596000  0.31468000  0.5 0.1198809737
H  H609  1  0.17162000  0.18953000  0.75019000  0.5 0.2294718107
H  H610  1  0.11358000  0.20853000  0.74657000  0.5 0.2135852767
H  H611  1  0.12037000  0.13692000  0.79703000  0.5 0.1092524547
H  H612  1  0.08010000  0.12076000  0.75505000  0.5 0.1092524547
H  H613  1  0.14233000  0.09868000  0.75555000  0.5 0.1198809737
H  H614  1  0.14695000  0.19437000  0.67111000  0.5 0.0914904005
H  H615  1  0.15967000  0.13197000  0.68584000  0.5 0.1198809737
H  H616  1  0.09745000  0.15404000  0.68532000  0.5 0.1198809737
H  H617  1  0.32838000  0.81047000  0.25019000  0.5 0.2294718107
H  H618  1  0.38642000  0.79147000  0.24657000  0.5 0.2135852767
H  H619  1  0.37963000  0.86308000  0.29703000  0.5 0.1092524547
H  H620  1  0.41990000  0.87924000  0.25505000  0.5 0.1092524547
H  H621  1  0.35767000  0.90132000  0.25555000  0.5 0.1198809737
H  H622  1  0.35305000  0.80563000  0.17111000  0.5 0.0914904005
H  H623  1  0.34033000  0.86803000  0.18584000  0.5 0.1198809737
H  H624  1  0.40255000  0.84596000  0.18532000  0.5 0.1198809737
H  H1  1  0.37545000  0.50157000  0.31936000  0.51 0.1008634932
H  H2  1  0.12455000  0.49843000  0.81936000  0.51 0.1008634932
H  H3  1  0.62455000  0.00157000  0.18064000  0.51 0.1008634932
H  H4  1  0.87545000  0.99843000  0.68064000  0.51 0.1008634932
H  H5  1  0.87545000  0.00157000  0.81936000  0.51 0.1008634932
H  H6  1  0.62455000  0.99843000  0.31936000  0.51 0.1008634932
H  H7  1  0.12455000  0.50157000  0.68064000  0.51 0.1008634932
H  H8  1  0.37545000  0.49843000  0.18064000  0.51 0.1008634932
H  H9  1  0.62455000  0.49843000  0.68064000  0.51 0.1008634932
H  H10  1  0.87545000  0.50157000  0.18064000  0.51 0.1008634932
H  H11  1  0.37545000  0.99843000  0.81936000  0.51 0.1008634932
H  H12  1  0.12455000  0.00157000  0.31936000  0.51 0.1008634932
H  H13  1  0.12455000  0.99843000  0.18064000  0.51 0.1008634932
H  H14  1  0.37545000  0.00157000  0.68064000  0.51 0.1008634932
H  H15  1  0.87545000  0.49843000  0.31936000  0.51 0.1008634932
H  H16  1  0.62455000  0.50157000  0.81936000  0.51 0.1008634932
H  H17  1  0.50353000  0.47199000  0.40652000  0.51 0.1008634932
H  H18  1  0.99647000  0.52801000  0.90652000  0.51 0.1008634932
H  H19  1  0.49647000  0.97199000  0.09348000  0.51 0.1008634932
H  H20  1  0.00353000  0.02801000  0.59348000  0.51 0.1008634932
H  H21  1  0.00353000  0.97199000  0.90652000  0.51 0.1008634932
H  H22  1  0.49647000  0.02801000  0.40652000  0.51 0.1008634932
H  H23  1  0.99647000  0.47199000  0.59348000  0.51 0.1008634932
H  H24  1  0.50353000  0.52801000  0.09348000  0.51 0.1008634932
H  H25  1  0.49647000  0.52801000  0.59348000  0.51 0.1008634932
H  H26  1  0.00353000  0.47199000  0.09348000  0.51 0.1008634932
H  H27  1  0.50353000  0.02801000  0.90652000  0.51 0.1008634932
H  H28  1  0.99647000  0.97199000  0.40652000  0.51 0.1008634932
H  H29  1  0.99647000  0.02801000  0.09348000  0.51 0.1008634932
H  H30  1  0.50353000  0.97199000  0.59348000  0.51 0.1008634932
H  H31  1  0.00353000  0.52801000  0.40652000  0.51 0.1008634932
H  H32  1  0.49647000  0.47199000  0.90652000  0.51 0.1008634932
H  H33  1  0.51716000  0.56622000  0.41541000  0.51 0.1008634932
H  H34  1  0.98284000  0.43378000  0.91541000  0.51 0.1008634932
H  H35  1  0.48284000  0.06622000  0.08459000  0.51 0.1008634932
H  H36  1  0.01716000  0.93378000  0.58459000  0.51 0.1008634932
H  H37  1  0.01716000  0.06622000  0.91541000  0.51 0.1008634932
H  H38  1  0.48284000  0.93378000  0.41541000  0.51 0.1008634932
H  H39  1  0.98284000  0.56622000  0.58459000  0.51 0.1008634932
H  H40  1  0.51716000  0.43378000  0.08459000  0.51 0.1008634932
H  H41  1  0.48284000  0.43378000  0.58459000  0.51 0.1008634932
H  H42  1  0.01716000  0.56622000  0.08459000  0.51 0.1008634932
H  H43  1  0.51716000  0.93378000  0.91541000  0.51 0.1008634932
H  H44  1  0.98284000  0.06622000  0.41541000  0.51 0.1008634932
H  H45  1  0.98284000  0.93378000  0.08459000  0.51 0.1008634932
H  H46  1  0.51716000  0.06622000  0.58459000  0.51 0.1008634932
H  H47  1  0.01716000  0.43378000  0.41541000  0.51 0.1008634932
H  H48  1  0.48284000  0.56622000  0.91541000  0.51 0.1008634932
H  H49  1  0.33985000  0.83447000  0.42569000  0.51 0.1008634932
H  H50  1  0.16015000  0.16553000  0.92569000  0.51 0.1008634932
H  H51  1  0.66015000  0.33447000  0.07431000  0.51 0.1008634932
H  H52  1  0.83985000  0.66553000  0.57431000  0.51 0.1008634932
H  H53  1  0.83985000  0.33447000  0.92569000  0.51 0.1008634932
H  H54  1  0.66015000  0.66553000  0.42569000  0.51 0.1008634932
H  H55  1  0.16015000  0.83447000  0.57431000  0.51 0.1008634932
H  H56  1  0.33985000  0.16553000  0.07431000  0.51 0.1008634932
H  H57  1  0.66015000  0.16553000  0.57431000  0.51 0.1008634932
H  H58  1  0.83985000  0.83447000  0.07431000  0.51 0.1008634932
H  H59  1  0.33985000  0.66553000  0.92569000  0.51 0.1008634932
H  H60  1  0.16015000  0.33447000  0.42569000  0.51 0.1008634932
H  H61  1  0.16015000  0.66553000  0.07431000  0.51 0.1008634932
H  H62  1  0.33985000  0.33447000  0.57431000  0.51 0.1008634932
H  H63  1  0.83985000  0.16553000  0.42569000  0.51 0.1008634932
H  H64  1  0.66015000  0.83447000  0.92569000  0.51 0.1008634932
H  H65  1  0.24447000  0.84776000  0.43144000  0.51 0.1008634932
H  H66  1  0.25553000  0.15224000  0.93144000  0.51 0.1008634932
H  H67  1  0.75553000  0.34776000  0.06856000  0.51 0.1008634932
H  H68  1  0.74447000  0.65224000  0.56856000  0.51 0.1008634932
H  H69  1  0.74447000  0.34776000  0.93144000  0.51 0.1008634932
H  H70  1  0.75553000  0.65224000  0.43144000  0.51 0.1008634932
H  H71  1  0.25553000  0.84776000  0.56856000  0.51 0.1008634932
H  H72  1  0.24447000  0.15224000  0.06856000  0.51 0.1008634932
H  H73  1  0.75553000  0.15224000  0.56856000  0.51 0.1008634932
H  H74  1  0.74447000  0.84776000  0.06856000  0.51 0.1008634932
H  H75  1  0.24447000  0.65224000  0.93144000  0.51 0.1008634932
H  H76  1  0.25553000  0.34776000  0.43144000  0.51 0.1008634932
H  H77  1  0.25553000  0.65224000  0.06856000  0.51 0.1008634932
H  H78  1  0.24447000  0.34776000  0.56856000  0.51 0.1008634932
H  H79  1  0.74447000  0.15224000  0.43144000  0.51 0.1008634932
H  H80  1  0.75553000  0.84776000  0.93144000  0.51 0.1008634932
H  H81  1  0.21900000  0.72052000  0.34352000  0.51 0.0914904005
H  H82  1  0.28100000  0.27948000  0.84352000  0.51 0.0914904005
H  H83  1  0.78100000  0.22052000  0.15648000  0.51 0.0914904005
H  H84  1  0.71900000  0.77948000  0.65648000  0.51 0.0914904005
H  H85  1  0.71900000  0.22052000  0.84352000  0.51 0.0914904005
H  H86  1  0.78100000  0.77948000  0.34352000  0.51 0.0914904005
H  H87  1  0.28100000  0.72052000  0.65648000  0.51 0.0914904005
H  H88  1  0.21900000  0.27948000  0.15648000  0.51 0.0914904005
H  H89  1  0.78100000  0.27948000  0.65648000  0.51 0.0914904005
H  H90  1  0.71900000  0.72052000  0.15648000  0.51 0.0914904005
H  H91  1  0.21900000  0.77948000  0.84352000  0.51 0.0914904005
H  H92  1  0.28100000  0.22052000  0.34352000  0.51 0.0914904005
H  H93  1  0.28100000  0.77948000  0.15648000  0.51 0.0914904005
H  H94  1  0.21900000  0.22052000  0.65648000  0.51 0.0914904005
H  H95  1  0.71900000  0.27948000  0.34352000  0.51 0.0914904005
H  H96  1  0.78100000  0.72052000  0.84352000  0.51 0.0914904005
H  H97  1  0.36884000  0.57136000  0.25720000  0.51 0.1092524547
H  H98  1  0.13116000  0.42864000  0.75720000  0.51 0.1092524547
H  H99  1  0.63116000  0.07136000  0.24280000  0.51 0.1092524547
H  H100  1  0.86884000  0.92864000  0.74280000  0.51 0.1092524547
H  H101  1  0.86884000  0.07136000  0.75720000  0.51 0.1092524547
H  H102  1  0.63116000  0.92864000  0.25720000  0.51 0.1092524547
H  H103  1  0.13116000  0.57136000  0.74280000  0.51 0.1092524547
H  H104  1  0.36884000  0.42864000  0.24280000  0.51 0.1092524547
H  H105  1  0.63116000  0.42864000  0.74280000  0.51 0.1092524547
H  H106  1  0.86884000  0.57136000  0.24280000  0.51 0.1092524547
H  H107  1  0.36884000  0.92864000  0.75720000  0.51 0.1092524547
H  H108  1  0.13116000  0.07136000  0.25720000  0.51 0.1092524547
H  H109  1  0.13116000  0.92864000  0.24280000  0.51 0.1092524547
H  H110  1  0.36884000  0.07136000  0.74280000  0.51 0.1092524547
H  H111  1  0.86884000  0.42864000  0.25720000  0.51 0.1092524547
H  H112  1  0.63116000  0.57136000  0.75720000  0.51 0.1092524547
H  H113  1  0.30579000  0.63333000  0.22515000  0.51 0.1272014925
H  H114  1  0.19421000  0.36667000  0.72515000  0.51 0.1272014925
H  H115  1  0.69421000  0.13333000  0.27485000  0.51 0.1272014925
H  H116  1  0.80579000  0.86667000  0.77485000  0.51 0.1272014925
H  H117  1  0.80579000  0.13333000  0.72515000  0.51 0.1272014925
H  H118  1  0.69421000  0.86667000  0.22515000  0.51 0.1272014925
H  H119  1  0.19421000  0.63333000  0.77485000  0.51 0.1272014925
H  H120  1  0.30579000  0.36667000  0.27485000  0.51 0.1272014925
H  H121  1  0.69421000  0.36667000  0.77485000  0.51 0.1272014925
H  H122  1  0.80579000  0.63333000  0.27485000  0.51 0.1272014925
H  H123  1  0.30579000  0.86667000  0.72515000  0.51 0.1272014925
H  H124  1  0.19421000  0.13333000  0.22515000  0.51 0.1272014925
H  H125  1  0.19421000  0.86667000  0.27485000  0.51 0.1272014925
H  H126  1  0.30579000  0.13333000  0.77485000  0.51 0.1272014925
H  H127  1  0.80579000  0.36667000  0.22515000  0.51 0.1272014925
H  H128  1  0.69421000  0.63333000  0.72515000  0.51 0.1272014925
H  H129  1  0.27514000  0.70803000  0.26906000  0.51 0.1092524547
H  H130  1  0.22486000  0.29197000  0.76906000  0.51 0.1092524547
H  H131  1  0.72486000  0.20803000  0.23094000  0.51 0.1092524547
H  H132  1  0.77514000  0.79197000  0.73094000  0.51 0.1092524547
H  H133  1  0.77514000  0.20803000  0.76906000  0.51 0.1092524547
H  H134  1  0.72486000  0.79197000  0.26906000  0.51 0.1092524547
H  H135  1  0.22486000  0.70803000  0.73094000  0.51 0.1092524547
H  H136  1  0.27514000  0.29197000  0.23094000  0.51 0.1092524547
H  H137  1  0.72486000  0.29197000  0.73094000  0.51 0.1092524547
H  H138  1  0.77514000  0.70803000  0.23094000  0.51 0.1092524547
H  H139  1  0.27514000  0.79197000  0.76906000  0.51 0.1092524547
H  H140  1  0.22486000  0.20803000  0.26906000  0.51 0.1092524547
H  H141  1  0.22486000  0.79197000  0.23094000  0.51 0.1092524547
H  H142  1  0.27514000  0.20803000  0.73094000  0.51 0.1092524547
H  H143  1  0.77514000  0.29197000  0.26906000  0.51 0.1092524547
H  H144  1  0.72486000  0.70803000  0.76906000  0.51 0.1092524547
C  C17  1  0.47870000  0.64550000  0.37320000  1.0 0.4039639611
C  C18  1  0.02130000  0.35450000  0.87320000  1.0 0.4039639611
C  C19  1  0.52130000  0.14550000  0.12680000  1.0 0.4039639611
C  C20  1  0.97870000  0.85450000  0.62680000  1.0 0.4039639611
C  C21  1  0.97870000  0.14550000  0.87320000  1.0 0.4039639611
C  C22  1  0.52130000  0.85450000  0.37320000  1.0 0.4039639611
C  C23  1  0.02130000  0.64550000  0.62680000  1.0 0.4039639611
C  C24  1  0.47870000  0.35450000  0.12680000  1.0 0.4039639611
C  C25  1  0.52130000  0.35450000  0.62680000  1.0 0.4039639611
C  C26  1  0.97870000  0.64550000  0.12680000  1.0 0.4039639611
C  C27  1  0.47870000  0.85450000  0.87320000  1.0 0.4039639611
C  C28  1  0.02130000  0.14550000  0.37320000  1.0 0.4060574291
C  C29  1  0.02130000  0.85450000  0.12680000  1.0 0.4039639611
C  C30  1  0.47870000  0.14550000  0.62680000  1.0 0.4039639611
C  C31  1  0.97870000  0.35450000  0.37320000  1.0 0.4039639611
C  C32  1  0.52130000  0.64550000  0.87320000  1.0 0.4039639611
C  C33  1  0.39540000  0.77200000  0.37640000  1.0 0.4039639611
C  C34  1  0.10460000  0.22800000  0.87640000  1.0 0.4039639611
C  C35  1  0.60460000  0.27200000  0.12360000  1.0 0.4039639611
C  C36  1  0.89540000  0.72800000  0.62360000  1.0 0.4039639611
C  C37  1  0.89540000  0.27200000  0.87640000  1.0 0.4039639611
C  C38  1  0.60460000  0.72800000  0.37640000  1.0 0.4039639611
C  C39  1  0.10460000  0.77200000  0.62360000  1.0 0.4039639611
C  C40  1  0.39540000  0.22800000  0.12360000  1.0 0.4039639611
C  C41  1  0.60460000  0.22800000  0.62360000  1.0 0.4039639611
C  C42  1  0.89540000  0.77200000  0.12360000  1.0 0.4039639611
C  C43  1  0.39540000  0.72800000  0.87640000  1.0 0.4039639611
C  C44  1  0.10460000  0.27200000  0.37640000  1.0 0.4039639611
C  C45  1  0.10460000  0.72800000  0.12360000  1.0 0.4039639611
C  C46  1  0.39540000  0.27200000  0.62360000  1.0 0.4039639611
C  C47  1  0.89540000  0.22800000  0.37640000  1.0 0.4039639611
C  C48  1  0.60460000  0.77200000  0.87640000  1.0 0.4039639611
C  C241  1  0.16620000  0.80600000  0.39390000  1.0 0.3632053392
C  C242  1  0.33380000  0.19400000  0.89390000  1.0 0.367712271
C  C243  1  0.83380000  0.30600000  0.10610000  1.0 0.3632053392
C  C244  1  0.66620000  0.69400000  0.60610000  1.0 0.3632053392
C  C245  1  0.66620000  0.30600000  0.89390000  1.0 0.3632053392
C  C246  1  0.83380000  0.69400000  0.39390000  1.0 0.3632053392
C  C247  1  0.33380000  0.80600000  0.60610000  1.0 0.3632053392
C  C248  1  0.16620000  0.19400000  0.10610000  1.0 0.3632053392
C  C249  1  0.83380000  0.19400000  0.60610000  1.0 0.3632053392
C  C250  1  0.66620000  0.80600000  0.10610000  1.0 0.3632053392
C  C251  1  0.16620000  0.69400000  0.89390000  1.0 0.3632053392
C  C252  1  0.33380000  0.30600000  0.39390000  1.0 0.3632053392
C  C253  1  0.33380000  0.69400000  0.10610000  1.0 0.3632053392
C  C254  1  0.16620000  0.30600000  0.60610000  1.0 0.3632053392
C  C255  1  0.66620000  0.19400000  0.39390000  1.0 0.3632053392
C  C256  1  0.83380000  0.80600000  0.89390000  1.0 0.3632053392
C  C625  1  0.06120000  0.91080000  0.35510000  1.0 0.4240982593
C  C626  1  0.43880000  0.08920000  0.85510000  1.0 0.4240982593
C  C627  1  0.93880000  0.41080000  0.14490000  1.0 0.4240982593
C  C628  1  0.56120000  0.58920000  0.64490000  1.0 0.4240982593
C  C629  1  0.56120000  0.41080000  0.85510000  1.0 0.4240982593
C  C630  1  0.93880000  0.58920000  0.35510000  1.0 0.4240982593
C  C631  1  0.43880000  0.91080000  0.64490000  1.0 0.4240982593
C  C632  1  0.06120000  0.08920000  0.14490000  1.0 0.4240982593
C  C633  1  0.93880000  0.08920000  0.64490000  1.0 0.4240982593
C  C634  1  0.56120000  0.91080000  0.14490000  1.0 0.4240982593
C  C635  1  0.06120000  0.58920000  0.85510000  1.0 0.4240982593
C  C636  1  0.43880000  0.41080000  0.35510000  1.0 0.4240982593
C  C637  1  0.43880000  0.58920000  0.14490000  1.0 0.4240982593
C  C638  1  0.06120000  0.41080000  0.64490000  1.0 0.4240982593
C  C639  1  0.56120000  0.08920000  0.35510000  1.0 0.4240982593
C  C640  1  0.93880000  0.91080000  0.85510000  1.0 0.4240982593
C  C337  1  0.56010000  0.57000000  0.42250000  0.49 0.079159527
C  C338  1  0.93990000  0.43000000  0.92250000  0.49 0.079159527
C  C339  1  0.43990000  0.07000000  0.07750000  0.49 0.079159527
C  C340  1  0.06010000  0.93000000  0.57750000  0.49 0.079159527
C  C341  1  0.06010000  0.07000000  0.92250000  0.49 0.079159527
C  C342  1  0.43990000  0.93000000  0.42250000  0.49 0.079159527
C  C343  1  0.93990000  0.57000000  0.57750000  0.49 0.079159527
C  C344  1  0.56010000  0.43000000  0.07750000  0.49 0.079159527
C  C345  1  0.43990000  0.43000000  0.57750000  0.49 0.079159527
C  C346  1  0.06010000  0.57000000  0.07750000  0.49 0.079159527
C  C347  1  0.56010000  0.93000000  0.92250000  0.49 0.079159527
C  C348  1  0.93990000  0.07000000  0.42250000  0.49 0.079159527
C  C349  1  0.93990000  0.93000000  0.07750000  0.49 0.079159527
C  C350  1  0.56010000  0.07000000  0.57750000  0.49 0.079159527
C  C351  1  0.06010000  0.43000000  0.42250000  0.49 0.079159527
C  C352  1  0.43990000  0.57000000  0.92250000  0.49 0.079159527
C  C353  1  0.56890000  0.54970000  0.46710000  0.49 -0.2703008091
C  C354  1  0.93110000  0.45030000  0.96710000  0.49 -0.2703008091
C  C355  1  0.43110000  0.04970000  0.03290000  0.49 -0.2703008091
C  C356  1  0.06890000  0.95030000  0.53290000  0.49 -0.2703008091
C  C357  1  0.06890000  0.04970000  0.96710000  0.49 -0.2703008091
C  C358  1  0.43110000  0.95030000  0.46710000  0.49 -0.2703008091
C  C359  1  0.93110000  0.54970000  0.53290000  0.49 -0.2703008091
C  C360  1  0.56890000  0.45030000  0.03290000  0.49 -0.2703008091
C  C361  1  0.43110000  0.45030000  0.53290000  0.49 -0.2703008091
C  C362  1  0.06890000  0.54970000  0.03290000  0.49 -0.2703008091
C  C363  1  0.56890000  0.95030000  0.96710000  0.49 -0.2703008091
C  C364  1  0.93110000  0.04970000  0.46710000  0.49 -0.2703008091
C  C365  1  0.93110000  0.95030000  0.03290000  0.49 -0.2703008091
C  C366  1  0.56890000  0.04970000  0.53290000  0.49 -0.2703008091
C  C367  1  0.06890000  0.45030000  0.46710000  0.49 -0.2703008091
C  C368  1  0.43110000  0.54970000  0.96710000  0.49 -0.2703008091
C  C369  1  0.61380000  0.56780000  0.49300000  0.49 -0.1594449943
C  C370  1  0.88620000  0.43220000  0.99300000  0.49 -0.1594449943
C  C371  1  0.38620000  0.06780000  0.00700000  0.49 -0.1594449943
C  C372  1  0.11380000  0.93220000  0.50700000  0.49 -0.1594449943
C  C373  1  0.11380000  0.06780000  0.99300000  0.49 -0.1594449943
C  C374  1  0.38620000  0.93220000  0.49300000  0.49 -0.1594449943
C  C375  1  0.88620000  0.56780000  0.50700000  0.49 -0.1594449943
C  C376  1  0.61380000  0.43220000  0.00700000  0.49 -0.1594449943
C  C377  1  0.38620000  0.43220000  0.50700000  0.49 -0.1594449943
C  C378  1  0.11380000  0.56780000  0.00700000  0.49 -0.1594449943
C  C379  1  0.61380000  0.93220000  0.99300000  0.49 -0.1594449943
C  C380  1  0.88620000  0.06780000  0.49300000  0.49 -0.1594449943
C  C381  1  0.88620000  0.93220000  0.00700000  0.49 -0.1594449943
C  C382  1  0.61380000  0.06780000  0.50700000  0.49 -0.1594449943
C  C383  1  0.11380000  0.43220000  0.49300000  0.49 -0.1594449943
C  C384  1  0.38620000  0.56780000  0.99300000  0.49 -0.1594449943
C  C385  1  0.64980000  0.60630000  0.47440000  0.49 -0.2029710295
C  C386  1  0.85020000  0.39370000  0.97440000  0.49 -0.2029710295
C  C387  1  0.35020000  0.10630000  0.02560000  0.49 -0.2029710295
C  C388  1  0.14980000  0.89370000  0.52560000  0.49 -0.2029710295
C  C389  1  0.14980000  0.10630000  0.97440000  0.49 -0.2068920709
C  C390  1  0.35020000  0.89370000  0.47440000  0.49 -0.2029710295
C  C391  1  0.85020000  0.60630000  0.52560000  0.49 -0.2029710295
C  C392  1  0.64980000  0.39370000  0.02560000  0.49 -0.2029710295
C  C393  1  0.35020000  0.39370000  0.52560000  0.49 -0.2029710295
C  C394  1  0.14980000  0.60630000  0.02560000  0.49 -0.2029710295
C  C395  1  0.64980000  0.89370000  0.97440000  0.49 -0.2029710295
C  C396  1  0.85020000  0.10630000  0.47440000  0.49 -0.2029710295
C  C397  1  0.85020000  0.89370000  0.02560000  0.49 -0.2029710295
C  C398  1  0.64980000  0.10630000  0.52560000  0.49 -0.2029710295
C  C399  1  0.14980000  0.39370000  0.47440000  0.49 -0.2068920709
C  C400  1  0.35020000  0.60630000  0.97440000  0.49 -0.2068920709
C  C401  1  0.64100000  0.62660000  0.42980000  0.49 0.079159527
C  C402  1  0.85900000  0.37340000  0.92980000  0.49 0.079159527
C  C403  1  0.35900000  0.12660000  0.07020000  0.49 0.079159527
C  C404  1  0.14100000  0.87340000  0.57020000  0.49 0.079159527
C  C405  1  0.14100000  0.12660000  0.92980000  0.49 0.079159527
C  C406  1  0.35900000  0.87340000  0.42980000  0.49 0.079159527
C  C407  1  0.85900000  0.62660000  0.57020000  0.49 0.079159527
C  C408  1  0.64100000  0.37340000  0.07020000  0.49 0.079159527
C  C409  1  0.35900000  0.37340000  0.57020000  0.49 0.079159527
C  C410  1  0.14100000  0.62660000  0.07020000  0.49 0.079159527
C  C411  1  0.64100000  0.87340000  0.92980000  0.49 0.079159527
C  C412  1  0.85900000  0.12660000  0.42980000  0.49 0.079159527
C  C413  1  0.85900000  0.87340000  0.07020000  0.49 0.079159527
C  C414  1  0.64100000  0.12660000  0.57020000  0.49 0.079159527
C  C415  1  0.14100000  0.37340000  0.42980000  0.49 0.079159527
C  C416  1  0.35900000  0.62660000  0.92980000  0.49 0.079159527
C  C417  1  0.48030000  0.58580000  0.36890000  0.49 0.0305217043
C  C418  1  0.01970000  0.41420000  0.86890000  0.49 0.0305217043
C  C419  1  0.51970000  0.08580000  0.13110000  0.49 0.0305217043
C  C420  1  0.98030000  0.91420000  0.63110000  0.49 0.0305217043
C  C421  1  0.98030000  0.08580000  0.86890000  0.49 0.0305217043
C  C422  1  0.51970000  0.91420000  0.36890000  0.49 0.0305217043
C  C423  1  0.01970000  0.58580000  0.63110000  0.49 0.0305217043
C  C424  1  0.48030000  0.41420000  0.13110000  0.49 0.0305217043
C  C425  1  0.51970000  0.41420000  0.63110000  0.49 0.0305217043
C  C426  1  0.98030000  0.58580000  0.13110000  0.49 0.0305217043
C  C427  1  0.48030000  0.91420000  0.86890000  0.49 0.0305217043
C  C428  1  0.01970000  0.08580000  0.36890000  0.49 0.0305217043
C  C429  1  0.01970000  0.91420000  0.13110000  0.49 0.0305217043
C  C430  1  0.48030000  0.08580000  0.63110000  0.49 0.0305217043
C  C431  1  0.98030000  0.41420000  0.36890000  0.49 0.0305217043
C  C432  1  0.51970000  0.58580000  0.86890000  0.49 0.0305217043
C  C433  1  0.43880000  0.56510000  0.34050000  0.49 -0.039958441
C  C434  1  0.06120000  0.43490000  0.84050000  0.49 -0.039958441
C  C435  1  0.56120000  0.06510000  0.15950000  0.49 -0.039958441
C  C436  1  0.93880000  0.93490000  0.65950000  0.49 -0.039958441
C  C437  1  0.93880000  0.06510000  0.84050000  0.49 -0.039958441
C  C438  1  0.56120000  0.93490000  0.34050000  0.49 -0.039958441
C  C439  1  0.06120000  0.56510000  0.65950000  0.49 -0.039958441
C  C440  1  0.43880000  0.43490000  0.15950000  0.49 -0.039958441
C  C441  1  0.56120000  0.43490000  0.65950000  0.49 -0.039958441
C  C442  1  0.93880000  0.56510000  0.15950000  0.49 -0.039958441
C  C443  1  0.43880000  0.93490000  0.84050000  0.49 -0.039958441
C  C444  1  0.06120000  0.06510000  0.34050000  0.49 -0.039958441
C  C445  1  0.06120000  0.93490000  0.15950000  0.49 -0.039958441
C  C446  1  0.43880000  0.06510000  0.65950000  0.49 -0.039958441
C  C447  1  0.93880000  0.43490000  0.34050000  0.49 -0.039958441
C  C448  1  0.56120000  0.56510000  0.84050000  0.49 -0.039958441
C  C449  1  0.43110000  0.50890000  0.33690000  0.49 -0.0472001739
C  C450  1  0.06890000  0.49110000  0.83690000  0.49 -0.0472001739
C  C451  1  0.56890000  0.00890000  0.16310000  0.49 -0.0472001739
C  C452  1  0.93110000  0.99110000  0.66310000  0.49 -0.0472001739
C  C453  1  0.93110000  0.00890000  0.83690000  0.49 -0.0472001739
C  C454  1  0.56890000  0.99110000  0.33690000  0.49 -0.0472001739
C  C455  1  0.06890000  0.50890000  0.66310000  0.49 -0.0472001739
C  C456  1  0.43110000  0.49110000  0.16310000  0.49 -0.0472001739
C  C457  1  0.56890000  0.49110000  0.66310000  0.49 -0.0472001739
C  C458  1  0.93110000  0.50890000  0.16310000  0.49 -0.0472001739
C  C459  1  0.43110000  0.99110000  0.83690000  0.49 -0.0472001739
C  C460  1  0.06890000  0.00890000  0.33690000  0.49 -0.0472001739
C  C461  1  0.06890000  0.99110000  0.16310000  0.49 -0.0472001739
C  C462  1  0.43110000  0.00890000  0.66310000  0.49 -0.0472001739
C  C463  1  0.93110000  0.49110000  0.33690000  0.49 -0.0472001739
C  C464  1  0.56890000  0.50890000  0.83690000  0.49 -0.0472001739
C  C465  1  0.46500000  0.47340000  0.36160000  0.49 0.0369757707
C  C466  1  0.03500000  0.52660000  0.86160000  0.49 0.0369757707
C  C467  1  0.53500000  0.97340000  0.13840000  0.49 0.0369757707
C  C468  1  0.96500000  0.02660000  0.63840000  0.49 0.0369757707
C  C469  1  0.96500000  0.97340000  0.86160000  0.49 0.0369757707
C  C470  1  0.53500000  0.02660000  0.36160000  0.49 0.0369757707
C  C471  1  0.03500000  0.47340000  0.63840000  0.49 0.0369757707
C  C472  1  0.46500000  0.52660000  0.13840000  0.49 0.0369757707
C  C473  1  0.53500000  0.52660000  0.63840000  0.49 0.0369757707
C  C474  1  0.96500000  0.47340000  0.13840000  0.49 0.0369757707
C  C475  1  0.46500000  0.02660000  0.86160000  0.49 0.0369757707
C  C476  1  0.03500000  0.97340000  0.36160000  0.49 0.0369757707
C  C477  1  0.03500000  0.02660000  0.13840000  0.49 0.0369757707
C  C478  1  0.46500000  0.97340000  0.63840000  0.49 0.0369757707
C  C479  1  0.96500000  0.52660000  0.36160000  0.49 0.0369757707
C  C480  1  0.53500000  0.47340000  0.86160000  0.49 0.0369757707
C  C481  1  0.50660000  0.49410000  0.39000000  0.49 -0.073471473
C  C482  1  0.99340000  0.50590000  0.89000000  0.49 -0.073471473
C  C483  1  0.49340000  0.99410000  0.11000000  0.49 -0.073471473
C  C484  1  0.00660000  0.00590000  0.61000000  0.49 -0.073471473
C  C485  1  0.00660000  0.99410000  0.89000000  0.49 -0.073471473
C  C486  1  0.49340000  0.00590000  0.39000000  0.49 -0.073471473
C  C487  1  0.99340000  0.49410000  0.61000000  0.49 -0.073471473
C  C488  1  0.50660000  0.50590000  0.11000000  0.49 -0.073471473
C  C489  1  0.49340000  0.50590000  0.61000000  0.49 -0.073471473
C  C490  1  0.00660000  0.49410000  0.11000000  0.49 -0.073471473
C  C491  1  0.50660000  0.00590000  0.89000000  0.49 -0.073471473
C  C492  1  0.99340000  0.99410000  0.39000000  0.49 -0.073471473
C  C493  1  0.99340000  0.00590000  0.11000000  0.49 -0.073471473
C  C494  1  0.50660000  0.99410000  0.61000000  0.49 -0.073471473
C  C495  1  0.00660000  0.50590000  0.39000000  0.49 -0.073471473
C  C496  1  0.49340000  0.49410000  0.89000000  0.49 -0.073471473
C  C497  1  0.51420000  0.55030000  0.39360000  0.49 0.0098571678
C  C498  1  0.98580000  0.44970000  0.89360000  0.49 0.0098571678
C  C499  1  0.48580000  0.05030000  0.10640000  0.49 0.0098571678
C  C500  1  0.01420000  0.94970000  0.60640000  0.49 0.0098571678
C  C501  1  0.01420000  0.05030000  0.89360000  0.49 0.0098571678
C  C502  1  0.48580000  0.94970000  0.39360000  0.49 0.0098571678
C  C503  1  0.98580000  0.55030000  0.60640000  0.49 0.0098571678
C  C504  1  0.51420000  0.44970000  0.10640000  0.49 0.0098571678
C  C505  1  0.48580000  0.44970000  0.60640000  0.49 0.0098571678
C  C506  1  0.01420000  0.55030000  0.10640000  0.49 0.0098571678
C  C507  1  0.51420000  0.94970000  0.89360000  0.49 0.0098571678
C  C508  1  0.98580000  0.05030000  0.39360000  0.49 0.0098571678
C  C509  1  0.98580000  0.94970000  0.10640000  0.49 0.0098571678
C  C510  1  0.51420000  0.05030000  0.60640000  0.49 0.0098571678
C  C511  1  0.01420000  0.44970000  0.39360000  0.49 0.0098571678
C  C512  1  0.48580000  0.55030000  0.89360000  0.49 0.0098571678
C  C513  1  0.30120000  0.76280000  0.35300000  0.49 -0.039958441
C  C514  1  0.19880000  0.23720000  0.85300000  0.49 -0.039958441
C  C515  1  0.69880000  0.26280000  0.14700000  0.49 -0.039958441
C  C516  1  0.80120000  0.73720000  0.64700000  0.49 -0.039958441
C  C517  1  0.80120000  0.26280000  0.85300000  0.49 -0.039958441
C  C518  1  0.69880000  0.73720000  0.35300000  0.49 -0.039958441
C  C519  1  0.19880000  0.76280000  0.64700000  0.49 -0.039958441
C  C520  1  0.30120000  0.23720000  0.14700000  0.49 -0.039958441
C  C521  1  0.69880000  0.23720000  0.64700000  0.49 -0.039958441
C  C522  1  0.80120000  0.76280000  0.14700000  0.49 -0.039958441
C  C523  1  0.30120000  0.73720000  0.85300000  0.49 -0.039958441
C  C524  1  0.19880000  0.26280000  0.35300000  0.49 -0.039958441
C  C525  1  0.19880000  0.73720000  0.14700000  0.49 -0.039958441
C  C526  1  0.30120000  0.26280000  0.64700000  0.49 -0.039958441
C  C527  1  0.80120000  0.23720000  0.35300000  0.49 -0.039958441
C  C528  1  0.69880000  0.76280000  0.85300000  0.49 -0.039958441
C  C529  1  0.33900000  0.79580000  0.37620000  0.49 0.0305217043
C  C530  1  0.16100000  0.20420000  0.87620000  0.49 0.0305217043
C  C531  1  0.66100000  0.29580000  0.12380000  0.49 0.0305217043
C  C532  1  0.83900000  0.70420000  0.62380000  0.49 0.0305217043
C  C533  1  0.83900000  0.29580000  0.87620000  0.49 0.0305217043
C  C534  1  0.66100000  0.70420000  0.37620000  0.49 0.0305217043
C  C535  1  0.16100000  0.79580000  0.62380000  0.49 0.0305217043
C  C536  1  0.33900000  0.20420000  0.12380000  0.49 0.0305217043
C  C537  1  0.66100000  0.20420000  0.62380000  0.49 0.0305217043
C  C538  1  0.83900000  0.79580000  0.12380000  0.49 0.0305217043
C  C539  1  0.33900000  0.70420000  0.87620000  0.49 0.0305217043
C  C540  1  0.16100000  0.29580000  0.37620000  0.49 0.0305217043
C  C541  1  0.16100000  0.70420000  0.12380000  0.49 0.0305217043
C  C542  1  0.33900000  0.29580000  0.62380000  0.49 0.0305217043
C  C543  1  0.83900000  0.20420000  0.37620000  0.49 0.0305217043
C  C544  1  0.66100000  0.79580000  0.87620000  0.49 0.0305217043
C  C545  1  0.32040000  0.83730000  0.40530000  0.49 0.0196594175
C  C546  1  0.17960000  0.16270000  0.90530000  0.49 0.0196594175
C  C547  1  0.67960000  0.33730000  0.09470000  0.49 0.0196594175
C  C548  1  0.82040000  0.66270000  0.59470000  0.49 0.0196594175
C  C549  1  0.82040000  0.33730000  0.90530000  0.49 0.0196594175
C  C550  1  0.67960000  0.66270000  0.40530000  0.49 0.0196594175
C  C551  1  0.17960000  0.83730000  0.59470000  0.49 0.0196594175
C  C552  1  0.32040000  0.16270000  0.09470000  0.49 0.0196594175
C  C553  1  0.67960000  0.16270000  0.59470000  0.49 0.0196594175
C  C554  1  0.82040000  0.83730000  0.09470000  0.49 0.0196594175
C  C555  1  0.32040000  0.66270000  0.90530000  0.49 0.0196594175
C  C556  1  0.17960000  0.33730000  0.40530000  0.49 0.0196594175
C  C557  1  0.17960000  0.66270000  0.09470000  0.49 0.0196594175
C  C558  1  0.32040000  0.33730000  0.59470000  0.49 0.0196594175
C  C559  1  0.82040000  0.16270000  0.40530000  0.49 0.0196594175
C  C560  1  0.67960000  0.83730000  0.90530000  0.49 0.0196594175
C  C561  1  0.26420000  0.84580000  0.41130000  0.49 -0.0893883495
C  C562  1  0.23580000  0.15420000  0.91130000  0.49 -0.0893883495
C  C563  1  0.73580000  0.34580000  0.08870000  0.49 -0.0893883495
C  C564  1  0.76420000  0.65420000  0.58870000  0.49 -0.0893883495
C  C565  1  0.76420000  0.34580000  0.91130000  0.49 -0.0893883495
C  C566  1  0.73580000  0.65420000  0.41130000  0.49 -0.0893883495
C  C567  1  0.23580000  0.84580000  0.58870000  0.49 -0.0893883495
C  C568  1  0.26420000  0.15420000  0.08870000  0.49 -0.0893883495
C  C569  1  0.73580000  0.15420000  0.58870000  0.49 -0.0893883495
C  C570  1  0.76420000  0.84580000  0.08870000  0.49 -0.0893883495
C  C571  1  0.26420000  0.65420000  0.91130000  0.49 -0.0893883495
C  C572  1  0.23580000  0.34580000  0.41130000  0.49 -0.0893883495
C  C573  1  0.23580000  0.65420000  0.08870000  0.49 -0.0893883495
C  C574  1  0.26420000  0.34580000  0.58870000  0.49 -0.0893883495
C  C575  1  0.76420000  0.15420000  0.41130000  0.49 -0.0893883495
C  C576  1  0.73580000  0.84580000  0.91130000  0.49 -0.0893883495
C  C577  1  0.22640000  0.81270000  0.38810000  0.49 0.0305217043
C  C578  1  0.27360000  0.18730000  0.88810000  0.49 0.0305217043
C  C579  1  0.77360000  0.31270000  0.11190000  0.49 0.0305217043
C  C580  1  0.72640000  0.68730000  0.61190000  0.49 0.0305217043
C  C581  1  0.72640000  0.31270000  0.88810000  0.49 0.0305217043
C  C582  1  0.77360000  0.68730000  0.38810000  0.49 0.0305217043
C  C583  1  0.27360000  0.81270000  0.61190000  0.49 0.0305217043
C  C584  1  0.22640000  0.18730000  0.11190000  0.49 0.0305217043
C  C585  1  0.77360000  0.18730000  0.61190000  0.49 0.0305217043
C  C586  1  0.72640000  0.81270000  0.11190000  0.49 0.0305217043
C  C587  1  0.22640000  0.68730000  0.88810000  0.49 0.0305217043
C  C588  1  0.27360000  0.31270000  0.38810000  0.49 0.0305217043
C  C589  1  0.27360000  0.68730000  0.11190000  0.49 0.0305217043
C  C590  1  0.22640000  0.31270000  0.61190000  0.49 0.0305217043
C  C591  1  0.72640000  0.18730000  0.38810000  0.49 0.0305217043
C  C592  1  0.77360000  0.81270000  0.88810000  0.49 0.0305217043
C  C593  1  0.24500000  0.77120000  0.35900000  0.49 -0.039958441
C  C594  1  0.25500000  0.22880000  0.85900000  0.49 -0.039958441
C  C595  1  0.75500000  0.27120000  0.14100000  0.49 -0.039958441
C  C596  1  0.74500000  0.72880000  0.64100000  0.49 -0.039958441
C  C597  1  0.74500000  0.27120000  0.85900000  0.49 -0.039958441
C  C598  1  0.75500000  0.72880000  0.35900000  0.49 -0.039958441
C  C599  1  0.25500000  0.77120000  0.64100000  0.49 -0.039958441
C  C600  1  0.24500000  0.22880000  0.14100000  0.49 -0.039958441
C  C601  1  0.75500000  0.22880000  0.64100000  0.49 -0.039958441
C  C602  1  0.74500000  0.77120000  0.14100000  0.49 -0.039958441
C  C603  1  0.24500000  0.72880000  0.85900000  0.49 -0.039958441
C  C604  1  0.25500000  0.27120000  0.35900000  0.49 -0.039958441
C  C605  1  0.25500000  0.72880000  0.14100000  0.49 -0.039958441
C  C606  1  0.24500000  0.27120000  0.64100000  0.49 -0.039958441
C  C607  1  0.74500000  0.22880000  0.35900000  0.49 -0.039958441
C  C608  1  0.75500000  0.77120000  0.85900000  0.49 -0.039958441
C  C1  1  0.02420000  0.78930000  0.27670000  0.5 0.1008634932
C  C2  1  0.47580000  0.21070000  0.77670000  0.5 0.1008634932
C  C3  1  0.97580000  0.28930000  0.22330000  0.5 0.1008634932
C  C4  1  0.52420000  0.71070000  0.72330000  0.5 0.1008634932
C  C5  1  0.52420000  0.28930000  0.77670000  0.5 0.1008634932
C  C6  1  0.97580000  0.71070000  0.27670000  0.5 0.1008634932
C  C7  1  0.47580000  0.78930000  0.72330000  0.5 0.1008634932
C  C8  1  0.02420000  0.21070000  0.22330000  0.5 0.1008634932
C  C9  1  0.97580000  0.21070000  0.72330000  0.5 0.1008634932
C  C10  1  0.52420000  0.78930000  0.22330000  0.5 0.1008634932
C  C11  1  0.02420000  0.71070000  0.77670000  0.5 0.1008634932
C  C12  1  0.47580000  0.28930000  0.27670000  0.5 0.1008634932
C  C13  1  0.47580000  0.71070000  0.22330000  0.5 0.1008634932
C  C14  1  0.02420000  0.28930000  0.72330000  0.5 0.1008634932
C  C15  1  0.52420000  0.21070000  0.27670000  0.5 0.1008634932
C  C16  1  0.97580000  0.78930000  0.77670000  0.5 0.1008634932
C  C609  1  0.53920000  0.71350000  0.52460000  0.5 0.2394227055
C  C610  1  0.96080000  0.28650000  0.02460000  0.5 0.2394227055
C  C611  1  0.46080000  0.21350000  0.97540000  0.5 0.2394227055
C  C612  1  0.03920000  0.78650000  0.47540000  0.5 0.2394227055
C  C613  1  0.03920000  0.21350000  0.02460000  0.5 0.2394227055
C  C614  1  0.46080000  0.78650000  0.52460000  0.5 0.2394227055
C  C615  1  0.96080000  0.71350000  0.47540000  0.5 0.2394227055
C  C616  1  0.53920000  0.28650000  0.97540000  0.5 0.2394227055
C  C617  1  0.46080000  0.28650000  0.47540000  0.5 0.2394227055
C  C618  1  0.03920000  0.71350000  0.97540000  0.5 0.2394227055
C  C619  1  0.53920000  0.78650000  0.02460000  0.5 0.2394227055
C  C620  1  0.96080000  0.21350000  0.52460000  0.5 0.2394227055
C  C621  1  0.96080000  0.78650000  0.97540000  0.5 0.2394227055
C  C622  1  0.53920000  0.21350000  0.47540000  0.5 0.2394227055
C  C623  1  0.03920000  0.28650000  0.52460000  0.5 0.2394227055
C  C624  1  0.46080000  0.71350000  0.02460000  0.5 0.2394227055
C  C641  1  0.61580000  0.63690000  0.98260000  0.5 -0.3227549283
C  C642  1  0.56850000  0.60970000  0.05570000  0.5 -0.3810632038
C  C643  1  0.88420000  0.36310000  0.48260000  0.5 -0.3227549283
C  C644  1  0.93150000  0.39030000  0.55570000  0.5 -0.3810632038
C  C645  1  0.38420000  0.13690000  0.51740000  0.5 -0.3227549283
C  C646  1  0.43150000  0.10970000  0.44430000  0.5 -0.3810632038
C  C647  1  0.11580000  0.86310000  0.01740000  0.5 -0.3227549283
C  C648  1  0.06850000  0.89030000  0.94430000  0.5 -0.3810632038
C  C649  1  0.11580000  0.13690000  0.48260000  0.5 -0.3227549283
C  C650  1  0.06850000  0.10970000  0.55570000  0.5 -0.3810632038
C  C651  1  0.38420000  0.86310000  0.98260000  0.5 -0.3227549283
C  C652  1  0.43150000  0.89030000  0.05570000  0.5 -0.3810632038
C  C653  1  0.88420000  0.63690000  0.01740000  0.5 -0.3227549283
C  C654  1  0.93150000  0.60970000  0.94430000  0.5 -0.3810632038
C  C655  1  0.61580000  0.36310000  0.51740000  0.5 -0.3227549283
C  C656  1  0.56850000  0.39030000  0.44430000  0.5 -0.3810632038
C  C657  1  0.38420000  0.36310000  0.01740000  0.5 -0.3227549283
C  C658  1  0.43150000  0.39030000  0.94430000  0.5 -0.3810632038
C  C659  1  0.11580000  0.63690000  0.51740000  0.5 -0.3227549283
C  C660  1  0.06850000  0.60970000  0.44430000  0.5 -0.3810632038
C  C661  1  0.61580000  0.86310000  0.48260000  0.5 -0.3227549283
C  C662  1  0.56850000  0.89030000  0.55570000  0.5 -0.3810632038
C  C663  1  0.88420000  0.13690000  0.98260000  0.5 -0.3227549283
C  C664  1  0.93150000  0.10970000  0.05570000  0.5 -0.3810632038
C  C665  1  0.88420000  0.86310000  0.51740000  0.5 -0.3227549283
C  C666  1  0.93150000  0.89030000  0.44430000  0.5 -0.3810632038
C  C667  1  0.61580000  0.13690000  0.01740000  0.5 -0.3227549283
C  C668  1  0.56850000  0.10970000  0.94430000  0.5 -0.3810632038
C  C669  1  0.11580000  0.36310000  0.98260000  0.5 -0.3227549283
C  C670  1  0.06850000  0.39030000  0.05570000  0.5 -0.3810632038
C  C671  1  0.38420000  0.63690000  0.48260000  0.5 -0.3227549283
C  C672  1  0.43150000  0.60970000  0.55570000  0.5 -0.3810632038
C  C673  1  0.61820000  0.87020000  0.76350000  0.5 -0.3116464312
C  C674  1  0.63590000  0.83600000  0.69160000  0.5 -0.3394544241
C  C675  1  0.88180000  0.12980000  0.26350000  0.5 -0.3116464312
C  C676  1  0.86410000  0.16400000  0.19160000  0.5 -0.3394544241
C  C677  1  0.38180000  0.37020000  0.73650000  0.5 -0.3116464312
C  C678  1  0.36410000  0.33600000  0.80840000  0.5 -0.3394544241
C  C679  1  0.11820000  0.62980000  0.23650000  0.5 -0.3116464312
C  C680  1  0.13590000  0.66400000  0.30840000  0.5 -0.3394544241
C  C681  1  0.11820000  0.37020000  0.26350000  0.5 -0.3116464312
C  C682  1  0.13590000  0.33600000  0.19160000  0.5 -0.3394544241
C  C683  1  0.38180000  0.62980000  0.76350000  0.5 -0.3116464312
C  C684  1  0.36410000  0.66400000  0.69160000  0.5 -0.3394544241
C  C685  1  0.88180000  0.87020000  0.23650000  0.5 -0.3116464312
C  C686  1  0.86410000  0.83600000  0.30840000  0.5 -0.3394544241
C  C687  1  0.61820000  0.12980000  0.73650000  0.5 -0.3116464312
C  C688  1  0.63590000  0.16400000  0.80840000  0.5 -0.3394544241
C  C689  1  0.38180000  0.12980000  0.23650000  0.5 -0.3116464312
C  C690  1  0.36410000  0.16400000  0.30840000  0.5 -0.3394544241
C  C691  1  0.11820000  0.87020000  0.73650000  0.5 -0.3116464312
C  C692  1  0.13590000  0.83600000  0.80840000  0.5 -0.3394544241
C  C693  1  0.61820000  0.62980000  0.26350000  0.5 -0.3116464312
C  C694  1  0.63590000  0.66400000  0.19160000  0.5 -0.3394544241
C  C695  1  0.88180000  0.37020000  0.76350000  0.5 -0.3116464312
C  C696  1  0.86410000  0.33600000  0.69160000  0.5 -0.3394544241
C  C697  1  0.88180000  0.62980000  0.73650000  0.5 -0.3116464312
C  C698  1  0.86410000  0.66400000  0.80840000  0.5 -0.3394544241
C  C699  1  0.61820000  0.37020000  0.23650000  0.5 -0.3116464312
C  C700  1  0.63590000  0.33600000  0.30840000  0.5 -0.3394544241
C  C701  1  0.11820000  0.12980000  0.76350000  0.5 -0.3116464312
C  C702  1  0.13590000  0.16400000  0.69160000  0.5 -0.3394544241
C  C703  1  0.38180000  0.87020000  0.26350000  0.5 -0.3116464312
C  C704  1  0.36410000  0.83600000  0.19160000  0.5 -0.3394544241
C  C49  1  0.45440000  0.58990000  0.37270000  0.51 0.0305217043
C  C50  1  0.04560000  0.41010000  0.87270000  0.51 0.0305217043
C  C51  1  0.54560000  0.08990000  0.12730000  0.51 0.0305217043
C  C52  1  0.95440000  0.91010000  0.62730000  0.51 0.0305217043
C  C53  1  0.95440000  0.08990000  0.87270000  0.51 0.0305217043
C  C54  1  0.54560000  0.91010000  0.37270000  0.51 0.0305217043
C  C55  1  0.04560000  0.58990000  0.62730000  0.51 0.0305217043
C  C56  1  0.45440000  0.41010000  0.12730000  0.51 0.0305217043
C  C57  1  0.54560000  0.41010000  0.62730000  0.51 0.0305217043
C  C58  1  0.95440000  0.58990000  0.12730000  0.51 0.0305217043
C  C59  1  0.45440000  0.91010000  0.87270000  0.51 0.0305217043
C  C60  1  0.04560000  0.08990000  0.37270000  0.51 0.0305217043
C  C61  1  0.04560000  0.91010000  0.12730000  0.51 0.0305217043
C  C62  1  0.45440000  0.08990000  0.62730000  0.51 0.0305217043
C  C63  1  0.95440000  0.41010000  0.37270000  0.51 0.0305217043
C  C64  1  0.54560000  0.58990000  0.87270000  0.51 0.0305217043
C  C65  1  0.41230000  0.57070000  0.34410000  0.51 0.0098571678
C  C66  1  0.08770000  0.42930000  0.84410000  0.51 0.0098571678
C  C67  1  0.58770000  0.07070000  0.15590000  0.51 0.0098571678
C  C68  1  0.91230000  0.92930000  0.65590000  0.51 0.0098571678
C  C69  1  0.91230000  0.07070000  0.84410000  0.51 0.0098571678
C  C70  1  0.58770000  0.92930000  0.34410000  0.51 0.0098571678
C  C71  1  0.08770000  0.57070000  0.65590000  0.51 0.0098571678
C  C72  1  0.41230000  0.42930000  0.15590000  0.51 0.0098571678
C  C73  1  0.58770000  0.42930000  0.65590000  0.51 0.0098571678
C  C74  1  0.91230000  0.57070000  0.15590000  0.51 0.0098571678
C  C75  1  0.41230000  0.92930000  0.84410000  0.51 0.0098571678
C  C76  1  0.08770000  0.07070000  0.34410000  0.51 0.0098571678
C  C77  1  0.08770000  0.92930000  0.15590000  0.51 0.0098571678
C  C78  1  0.41230000  0.07070000  0.65590000  0.51 0.0098571678
C  C79  1  0.91230000  0.42930000  0.34410000  0.51 0.0098571678
C  C80  1  0.58770000  0.57070000  0.84410000  0.51 0.0098571678
C  C81  1  0.40420000  0.51470000  0.33890000  0.51 -0.0893883495
C  C82  1  0.09580000  0.48530000  0.83890000  0.51 -0.0893883495
C  C83  1  0.59580000  0.01470000  0.16110000  0.51 -0.0893883495
C  C84  1  0.90420000  0.98530000  0.66110000  0.51 -0.0893883495
C  C85  1  0.90420000  0.01470000  0.83890000  0.51 -0.0893883495
C  C86  1  0.59580000  0.98530000  0.33890000  0.51 -0.0893883495
C  C87  1  0.09580000  0.51470000  0.66110000  0.51 -0.0893883495
C  C88  1  0.40420000  0.48530000  0.16110000  0.51 -0.0893883495
C  C89  1  0.59580000  0.48530000  0.66110000  0.51 -0.0893883495
C  C90  1  0.90420000  0.51470000  0.16110000  0.51 -0.0893883495
C  C91  1  0.40420000  0.98530000  0.83890000  0.51 -0.0893883495
C  C92  1  0.09580000  0.01470000  0.33890000  0.51 -0.0893883495
C  C93  1  0.09580000  0.98530000  0.16110000  0.51 -0.0893883495
C  C94  1  0.40420000  0.01470000  0.66110000  0.51 -0.0893883495
C  C95  1  0.90420000  0.48530000  0.33890000  0.51 -0.0893883495
C  C96  1  0.59580000  0.51470000  0.83890000  0.51 -0.0893883495
C  C97  1  0.43820000  0.47790000  0.36210000  0.51 0.0305217043
C  C98  1  0.06180000  0.52210000  0.86210000  0.51 0.0305217043
C  C99  1  0.56180000  0.97790000  0.13790000  0.51 0.0305217043
C  C100  1  0.93820000  0.02210000  0.63790000  0.51 0.0305217043
C  C101  1  0.93820000  0.97790000  0.86210000  0.51 0.0305217043
C  C102  1  0.56180000  0.02210000  0.36210000  0.51 0.0305217043
C  C103  1  0.06180000  0.47790000  0.63790000  0.51 0.0305217043
C  C104  1  0.43820000  0.52210000  0.13790000  0.51 0.0305217043
C  C105  1  0.56180000  0.52210000  0.63790000  0.51 0.0305217043
C  C106  1  0.93820000  0.47790000  0.13790000  0.51 0.0305217043
C  C107  1  0.43820000  0.02210000  0.86210000  0.51 0.0305217043
C  C108  1  0.06180000  0.97790000  0.36210000  0.51 0.0305217043
C  C109  1  0.06180000  0.02210000  0.13790000  0.51 0.0305217043
C  C110  1  0.43820000  0.97790000  0.63790000  0.51 0.0305217043
C  C111  1  0.93820000  0.52210000  0.36210000  0.51 0.0305217043
C  C112  1  0.56180000  0.47790000  0.86210000  0.51 0.0305217043
C  C113  1  0.48030000  0.49710000  0.39060000  0.51 -0.039958441
C  C114  1  0.01970000  0.50290000  0.89060000  0.51 -0.039958441
C  C115  1  0.51970000  0.99710000  0.10940000  0.51 -0.039958441
C  C116  1  0.98030000  0.00290000  0.60940000  0.51 -0.039958441
C  C117  1  0.98030000  0.99710000  0.89060000  0.51 -0.039958441
C  C118  1  0.51970000  0.00290000  0.39060000  0.51 -0.039958441
C  C119  1  0.01970000  0.49710000  0.60940000  0.51 -0.039958441
C  C120  1  0.48030000  0.50290000  0.10940000  0.51 -0.039958441
C  C121  1  0.51970000  0.50290000  0.60940000  0.51 -0.039958441
C  C122  1  0.98030000  0.49710000  0.10940000  0.51 -0.039958441
C  C123  1  0.48030000  0.00290000  0.89060000  0.51 -0.039958441
C  C124  1  0.01970000  0.99710000  0.39060000  0.51 -0.039958441
C  C125  1  0.01970000  0.00290000  0.10940000  0.51 -0.039958441
C  C126  1  0.48030000  0.99710000  0.60940000  0.51 -0.039958441
C  C127  1  0.98030000  0.50290000  0.39060000  0.51 -0.039958441
C  C128  1  0.51970000  0.49710000  0.89060000  0.51 -0.039958441
C  C129  1  0.48840000  0.55310000  0.39590000  0.51 -0.0177256676
C  C130  1  0.01160000  0.44690000  0.89590000  0.51 -0.0177256676
C  C131  1  0.51160000  0.05310000  0.10410000  0.51 -0.0177256676
C  C132  1  0.98840000  0.94690000  0.60410000  0.51 -0.0177256676
C  C133  1  0.98840000  0.05310000  0.89590000  0.51 -0.0177256676
C  C134  1  0.51160000  0.94690000  0.39590000  0.51 -0.0177256676
C  C135  1  0.01160000  0.55310000  0.60410000  0.51 -0.0177256676
C  C136  1  0.48840000  0.44690000  0.10410000  0.51 -0.0177256676
C  C137  1  0.51160000  0.44690000  0.60410000  0.51 -0.0177256676
C  C138  1  0.98840000  0.55310000  0.10410000  0.51 -0.0177256676
C  C139  1  0.48840000  0.94690000  0.89590000  0.51 -0.0177256676
C  C140  1  0.01160000  0.05310000  0.39590000  0.51 -0.0177256676
C  C141  1  0.01160000  0.94690000  0.10410000  0.51 -0.0177256676
C  C142  1  0.48840000  0.05310000  0.60410000  0.51 -0.0177256676
C  C143  1  0.98840000  0.44690000  0.39590000  0.51 -0.0177256676
C  C144  1  0.51160000  0.55310000  0.89590000  0.51 -0.0177256676
C  C145  1  0.30020000  0.73580000  0.35680000  0.51 0.0098571678
C  C146  1  0.19980000  0.26420000  0.85680000  0.51 0.0098571678
C  C147  1  0.69980000  0.23580000  0.14320000  0.51 0.0098571678
C  C148  1  0.80020000  0.76420000  0.64320000  0.51 0.0098571678
C  C149  1  0.80020000  0.23580000  0.85680000  0.51 0.0098571678
C  C150  1  0.69980000  0.76420000  0.35680000  0.51 0.0098571678
C  C151  1  0.19980000  0.73580000  0.64320000  0.51 0.0098571678
C  C152  1  0.30020000  0.26420000  0.14320000  0.51 0.0098571678
C  C153  1  0.69980000  0.26420000  0.64320000  0.51 0.0098571678
C  C154  1  0.80020000  0.73580000  0.14320000  0.51 0.0098571678
C  C155  1  0.30020000  0.76420000  0.85680000  0.51 0.0098571678
C  C156  1  0.19980000  0.23580000  0.35680000  0.51 0.0098571678
C  C157  1  0.19980000  0.76420000  0.14320000  0.51 0.0098571678
C  C158  1  0.30020000  0.23580000  0.64320000  0.51 0.0098571678
C  C159  1  0.80020000  0.26420000  0.35680000  0.51 0.0098571678
C  C160  1  0.69980000  0.73580000  0.85680000  0.51 0.0098571678
C  C161  1  0.33610000  0.76960000  0.38120000  0.51 0.0196594175
C  C162  1  0.16390000  0.23040000  0.88120000  0.51 0.0196594175
C  C163  1  0.66390000  0.26960000  0.11880000  0.51 0.0196594175
C  C164  1  0.83610000  0.73040000  0.61880000  0.51 0.0196594175
C  C165  1  0.83610000  0.26960000  0.88120000  0.51 0.0196594175
C  C166  1  0.66390000  0.73040000  0.38120000  0.51 0.0196594175
C  C167  1  0.16390000  0.76960000  0.61880000  0.51 0.0196594175
C  C168  1  0.33610000  0.23040000  0.11880000  0.51 0.0196594175
C  C169  1  0.66390000  0.23040000  0.61880000  0.51 0.0196594175
C  C170  1  0.83610000  0.76960000  0.11880000  0.51 0.0196594175
C  C171  1  0.33610000  0.73040000  0.88120000  0.51 0.0196594175
C  C172  1  0.16390000  0.26960000  0.38120000  0.51 0.0196594175
C  C173  1  0.16390000  0.73040000  0.11880000  0.51 0.0196594175
C  C174  1  0.33610000  0.26960000  0.61880000  0.51 0.0196594175
C  C175  1  0.83610000  0.23040000  0.38120000  0.51 0.0196594175
C  C176  1  0.66390000  0.76960000  0.88120000  0.51 0.0196594175
C  C177  1  0.31530000  0.81130000  0.40900000  0.51 -0.0323704454
C  C178  1  0.18470000  0.18870000  0.90900000  0.51 -0.0323704454
C  C179  1  0.68470000  0.31130000  0.09100000  0.51 -0.0323704454
C  C180  1  0.81530000  0.68870000  0.59100000  0.51 -0.0323704454
C  C181  1  0.81530000  0.31130000  0.90900000  0.51 -0.0323704454
C  C182  1  0.68470000  0.68870000  0.40900000  0.51 -0.0323704454
C  C183  1  0.18470000  0.81130000  0.59100000  0.51 -0.0323704454
C  C184  1  0.31530000  0.18870000  0.09100000  0.51 -0.0323704454
C  C185  1  0.68470000  0.18870000  0.59100000  0.51 -0.0323704454
C  C186  1  0.81530000  0.81130000  0.09100000  0.51 -0.0323704454
C  C187  1  0.31530000  0.68870000  0.90900000  0.51 -0.0323704454
C  C188  1  0.18470000  0.31130000  0.40900000  0.51 -0.0323704454
C  C189  1  0.18470000  0.68870000  0.09100000  0.51 -0.0323704454
C  C190  1  0.31530000  0.31130000  0.59100000  0.51 -0.0323704454
C  C191  1  0.81530000  0.18870000  0.40900000  0.51 -0.0323704454
C  C192  1  0.68470000  0.81130000  0.90900000  0.51 -0.0323704454
C  C193  1  0.25870000  0.81920000  0.41240000  0.51 -0.0472001739
C  C194  1  0.24130000  0.18080000  0.91240000  0.51 -0.0472001739
C  C195  1  0.74130000  0.31920000  0.08760000  0.51 -0.039958441
C  C196  1  0.75870000  0.68080000  0.58760000  0.51 -0.039958441
C  C197  1  0.75870000  0.31920000  0.91240000  0.51 -0.0472001739
C  C198  1  0.74130000  0.68080000  0.41240000  0.51 -0.039958441
C  C199  1  0.24130000  0.81920000  0.58760000  0.51 -0.0472001739
C  C200  1  0.25870000  0.18080000  0.08760000  0.51 -0.039958441
C  C201  1  0.74130000  0.18080000  0.58760000  0.51 -0.039958441
C  C202  1  0.75870000  0.81920000  0.08760000  0.51 -0.039958441
C  C203  1  0.25870000  0.68080000  0.91240000  0.51 -0.0472001739
C  C204  1  0.24130000  0.31920000  0.41240000  0.51 -0.0472001739
C  C205  1  0.24130000  0.68080000  0.08760000  0.51 -0.039958441
C  C206  1  0.25870000  0.31920000  0.58760000  0.51 -0.0472001739
C  C207  1  0.75870000  0.18080000  0.41240000  0.51 -0.039958441
C  C208  1  0.74130000  0.81920000  0.91240000  0.51 -0.0472001739
C  C209  1  0.22280000  0.78540000  0.38800000  0.51 0.0305217043
C  C210  1  0.27720000  0.21460000  0.88800000  0.51 0.0305217043
C  C211  1  0.77720000  0.28540000  0.11200000  0.51 0.0305217043
C  C212  1  0.72280000  0.71460000  0.61200000  0.51 0.0305217043
C  C213  1  0.72280000  0.28540000  0.88800000  0.51 0.0305217043
C  C214  1  0.77720000  0.71460000  0.38800000  0.51 0.0305217043
C  C215  1  0.27720000  0.78540000  0.61200000  0.51 0.0305217043
C  C216  1  0.22280000  0.21460000  0.11200000  0.51 0.0305217043
C  C217  1  0.77720000  0.21460000  0.61200000  0.51 0.0305217043
C  C218  1  0.72280000  0.78540000  0.11200000  0.51 0.0305217043
C  C219  1  0.22280000  0.71460000  0.88800000  0.51 0.0305217043
C  C220  1  0.27720000  0.28540000  0.38800000  0.51 0.0305217043
C  C221  1  0.27720000  0.71460000  0.11200000  0.51 0.0305217043
C  C222  1  0.22280000  0.28540000  0.61200000  0.51 0.0305217043
C  C223  1  0.72280000  0.21460000  0.38800000  0.51 0.0305217043
C  C224  1  0.77720000  0.78540000  0.88800000  0.51 0.0305217043
C  C225  1  0.24350000  0.74370000  0.36020000  0.51 -0.0813024858
C  C226  1  0.25650000  0.25630000  0.86020000  0.51 -0.0813024858
C  C227  1  0.75650000  0.24370000  0.13980000  0.51 -0.0813024858
C  C228  1  0.74350000  0.75630000  0.63980000  0.51 -0.0813024858
C  C229  1  0.74350000  0.24370000  0.86020000  0.51 -0.0813024858
C  C230  1  0.75650000  0.75630000  0.36020000  0.51 -0.0813024858
C  C231  1  0.25650000  0.74370000  0.63980000  0.51 -0.0813024858
C  C232  1  0.24350000  0.25630000  0.13980000  0.51 -0.0813024858
C  C233  1  0.75650000  0.25630000  0.63980000  0.51 -0.0813024858
C  C234  1  0.74350000  0.74370000  0.13980000  0.51 -0.0813024858
C  C235  1  0.24350000  0.75630000  0.86020000  0.51 -0.0813024858
C  C236  1  0.25650000  0.24370000  0.36020000  0.51 -0.0813024858
C  C237  1  0.25650000  0.75630000  0.13980000  0.51 -0.0813024858
C  C238  1  0.24350000  0.24370000  0.63980000  0.51 -0.0813024858
C  C239  1  0.74350000  0.25630000  0.36020000  0.51 -0.0813024858
C  C240  1  0.75650000  0.74370000  0.86020000  0.51 -0.0813024858
C  C257  1  0.37560000  0.60930000  0.32010000  0.51 0.079159527
C  C258  1  0.12440000  0.39070000  0.82010000  0.51 0.079159527
C  C259  1  0.62440000  0.10930000  0.17990000  0.51 0.079159527
C  C260  1  0.87560000  0.89070000  0.67990000  0.51 0.079159527
C  C261  1  0.87560000  0.10930000  0.82010000  0.51 0.079159527
C  C262  1  0.62440000  0.89070000  0.32010000  0.51 0.079159527
C  C263  1  0.12440000  0.60930000  0.67990000  0.51 0.079159527
C  C264  1  0.37560000  0.39070000  0.17990000  0.51 0.079159527
C  C265  1  0.62440000  0.39070000  0.67990000  0.51 0.079159527
C  C266  1  0.87560000  0.60930000  0.17990000  0.51 0.079159527
C  C267  1  0.37560000  0.89070000  0.82010000  0.51 0.079159527
C  C268  1  0.12440000  0.10930000  0.32010000  0.51 0.079159527
C  C269  1  0.12440000  0.89070000  0.17990000  0.51 0.079159527
C  C270  1  0.37560000  0.10930000  0.67990000  0.51 0.079159527
C  C271  1  0.87560000  0.39070000  0.32010000  0.51 0.079159527
C  C272  1  0.62440000  0.60930000  0.82010000  0.51 0.079159527
C  C273  1  0.35640000  0.60170000  0.27500000  0.51 -0.2068920709
C  C274  1  0.14360000  0.39830000  0.77500000  0.51 -0.2068920709
C  C275  1  0.64360000  0.10170000  0.22500000  0.51 -0.2068920709
C  C276  1  0.85640000  0.89830000  0.72500000  0.51 -0.2068920709
C  C277  1  0.85640000  0.10170000  0.77500000  0.51 -0.2068920709
C  C278  1  0.64360000  0.89830000  0.27500000  0.51 -0.2068920709
C  C279  1  0.14360000  0.60170000  0.72500000  0.51 -0.2068920709
C  C280  1  0.35640000  0.39830000  0.22500000  0.51 -0.2068920709
C  C281  1  0.64360000  0.39830000  0.72500000  0.51 -0.2068920709
C  C282  1  0.85640000  0.60170000  0.22500000  0.51 -0.2068920709
C  C283  1  0.35640000  0.89830000  0.77500000  0.51 -0.2068920709
C  C284  1  0.14360000  0.10170000  0.27500000  0.51 -0.2068920709
C  C285  1  0.14360000  0.89830000  0.22500000  0.51 -0.2068920709
C  C286  1  0.35640000  0.10170000  0.72500000  0.51 -0.2068920709
C  C287  1  0.85640000  0.39830000  0.27500000  0.51 -0.2068920709
C  C288  1  0.64360000  0.60170000  0.77500000  0.51 -0.2068920709
C  C289  1  0.31890000  0.63850000  0.25600000  0.51 -0.1594449943
C  C290  1  0.18110000  0.36150000  0.75600000  0.51 -0.1594449943
C  C291  1  0.68110000  0.13850000  0.24400000  0.51 -0.1594449943
C  C292  1  0.81890000  0.86150000  0.74400000  0.51 -0.1594449943
C  C293  1  0.81890000  0.13850000  0.75600000  0.51 -0.1594449943
C  C294  1  0.68110000  0.86150000  0.25600000  0.51 -0.1594449943
C  C295  1  0.18110000  0.63850000  0.74400000  0.51 -0.1594449943
C  C296  1  0.31890000  0.36150000  0.24400000  0.51 -0.1594449943
C  C297  1  0.68110000  0.36150000  0.74400000  0.51 -0.1594449943
C  C298  1  0.81890000  0.63850000  0.24400000  0.51 -0.1594449943
C  C299  1  0.31890000  0.86150000  0.75600000  0.51 -0.1594449943
C  C300  1  0.18110000  0.13850000  0.25600000  0.51 -0.1594449943
C  C301  1  0.18110000  0.86150000  0.24400000  0.51 -0.1594449943
C  C302  1  0.31890000  0.13850000  0.74400000  0.51 -0.1594449943
C  C303  1  0.81890000  0.36150000  0.25600000  0.51 -0.1594449943
C  C304  1  0.68110000  0.63850000  0.75600000  0.51 -0.1594449943
C  C305  1  0.30070000  0.68290000  0.28210000  0.51 -0.2703008091
C  C306  1  0.19930000  0.31710000  0.78210000  0.51 -0.2703008091
C  C307  1  0.69930000  0.18290000  0.21790000  0.51 -0.2703008091
C  C308  1  0.80070000  0.81710000  0.71790000  0.51 -0.2703008091
C  C309  1  0.80070000  0.18290000  0.78210000  0.51 -0.2703008091
C  C310  1  0.69930000  0.81710000  0.28210000  0.51 -0.2703008091
C  C311  1  0.19930000  0.68290000  0.71790000  0.51 -0.2703008091
C  C312  1  0.30070000  0.31710000  0.21790000  0.51 -0.2703008091
C  C313  1  0.69930000  0.31710000  0.71790000  0.51 -0.2703008091
C  C314  1  0.80070000  0.68290000  0.21790000  0.51 -0.2703008091
C  C315  1  0.30070000  0.81710000  0.78210000  0.51 -0.2703008091
C  C316  1  0.19930000  0.18290000  0.28210000  0.51 -0.2703008091
C  C317  1  0.19930000  0.81710000  0.21790000  0.51 -0.2703008091
C  C318  1  0.30070000  0.18290000  0.71790000  0.51 -0.2703008091
C  C319  1  0.80070000  0.31710000  0.28210000  0.51 -0.2703008091
C  C320  1  0.69930000  0.68290000  0.78210000  0.51 -0.2703008091
C  C321  1  0.32000000  0.69040000  0.32720000  0.51 0.079159527
C  C322  1  0.18000000  0.30960000  0.82720000  0.51 0.079159527
C  C323  1  0.68000000  0.19040000  0.17280000  0.51 0.079159527
C  C324  1  0.82000000  0.80960000  0.67280000  0.51 0.079159527
C  C325  1  0.82000000  0.19040000  0.82720000  0.51 0.079159527
C  C326  1  0.68000000  0.80960000  0.32720000  0.51 0.079159527
C  C327  1  0.18000000  0.69040000  0.67280000  0.51 0.079159527
C  C328  1  0.32000000  0.30960000  0.17280000  0.51 0.079159527
C  C329  1  0.68000000  0.30960000  0.67280000  0.51 0.079159527
C  C330  1  0.82000000  0.69040000  0.17280000  0.51 0.079159527
C  C331  1  0.32000000  0.80960000  0.82720000  0.51 0.079159527
C  C332  1  0.18000000  0.19040000  0.32720000  0.51 0.079159527
C  C333  1  0.18000000  0.80960000  0.17280000  0.51 0.079159527
C  C334  1  0.32000000  0.19040000  0.67280000  0.51 0.079159527
C  C335  1  0.82000000  0.30960000  0.32720000  0.51 0.079159527
C  C336  1  0.68000000  0.69040000  0.82720000  0.51 0.079159527
N  N1  1  0.52040000  0.73120000  0.56890000  1.0 -0.1904084645
N  N2  1  0.97960000  0.26880000  0.06890000  1.0 -0.1904084645
N  N3  1  0.47960000  0.23120000  0.93110000  1.0 -0.1904084645
N  N4  1  0.02040000  0.76880000  0.43110000  1.0 -0.1904084645
N  N5  1  0.02040000  0.23120000  0.06890000  1.0 -0.1904084645
N  N6  1  0.47960000  0.76880000  0.56890000  1.0 -0.1904084645
N  N7  1  0.97960000  0.73120000  0.43110000  1.0 -0.1904084645
N  N8  1  0.52040000  0.26880000  0.93110000  1.0 -0.1904084645
N  N9  1  0.47960000  0.26880000  0.43110000  1.0 -0.1904084645
N  N10  1  0.02040000  0.73120000  0.93110000  1.0 -0.1904084645
N  N11  1  0.52040000  0.76880000  0.06890000  1.0 -0.1904084645
N  N12  1  0.97960000  0.23120000  0.56890000  1.0 -0.1904084645
N  N13  1  0.97960000  0.76880000  0.93110000  1.0 -0.1904084645
N  N14  1  0.52040000  0.23120000  0.43110000  1.0 -0.1904084645
N  N15  1  0.02040000  0.26880000  0.56890000  1.0 -0.1904084645
N  N16  1  0.47960000  0.73120000  0.06890000  1.0 -0.1904084645
N  N17  1  0.01870000  0.77120000  0.31914000  1.0 -0.2029710295
N  N18  1  0.48130000  0.22880000  0.81914000  1.0 -0.2029710295
N  N19  1  0.98130000  0.27120000  0.18086000  1.0 -0.2029710295
N  N20  1  0.51870000  0.72880000  0.68086000  1.0 -0.2029710295
N  N21  1  0.51870000  0.27120000  0.81914000  1.0 -0.2029710295
N  N22  1  0.98130000  0.72880000  0.31914000  1.0 -0.2029710295
N  N23  1  0.48130000  0.77120000  0.68086000  1.0 -0.2029710295
N  N24  1  0.01870000  0.22880000  0.18086000  1.0 -0.2029710295
N  N25  1  0.98130000  0.22880000  0.68086000  1.0 -0.2029710295
N  N26  1  0.51870000  0.77120000  0.18086000  1.0 -0.2029710295
N  N27  1  0.01870000  0.72880000  0.81914000  1.0 -0.2029710295
N  N28  1  0.48130000  0.27120000  0.31914000  1.0 -0.2029710295
N  N29  1  0.48130000  0.72880000  0.18086000  1.0 -0.2029710295
N  N30  1  0.01870000  0.27120000  0.68086000  1.0 -0.2029710295
N  N31  1  0.51870000  0.22880000  0.31914000  1.0 -0.2029710295
N  N32  1  0.98130000  0.77120000  0.81914000  1.0 -0.2029710295
N  N33  1  0.00000000  0.75000000  0.24550000  1.0 -0.1668048384
N  N34  1  0.50000000  0.25000000  0.74550000  1.0 -0.1668048384
N  N35  1  0.00000000  0.25000000  0.25450000  1.0 -0.1668048384
N  N36  1  0.50000000  0.75000000  0.75450000  1.0 -0.1668048384
N  N37  1  0.00000000  0.25000000  0.75450000  1.0 -0.1668048384
N  N38  1  0.50000000  0.75000000  0.25450000  1.0 -0.1668048384
N  N39  1  0.00000000  0.75000000  0.74550000  1.0 -0.1668048384
N  N40  1  0.50000000  0.25000000  0.24550000  1.0 -0.1668048384
N  N41  1  0.50000000  0.75000000  0.49570000  1.0 -0.0893883495
N  N42  1  0.00000000  0.25000000  0.99570000  1.0 -0.0893883495
N  N43  1  0.50000000  0.25000000  0.00430000  1.0 -0.0893883495
N  N44  1  0.00000000  0.75000000  0.50430000  1.0 -0.0893883495
N  N45  1  0.50000000  0.25000000  0.50430000  1.0 -0.0893883495
N  N46  1  0.00000000  0.75000000  0.00430000  1.0 -0.0893883495
N  N47  1  0.50000000  0.75000000  0.99570000  1.0 -0.0893883495
N  N48  1  0.00000000  0.25000000  0.49570000  1.0 -0.0893883495
N  N81  1  0.59620000  0.60840000  0.40380000  0.49 -0.2703008091
N  N82  1  0.90380000  0.39160000  0.90380000  0.49 -0.2703008091
N  N83  1  0.40380000  0.10840000  0.09620000  0.49 -0.2703008091
N  N84  1  0.09620000  0.89160000  0.59620000  0.49 -0.2703008091
N  N85  1  0.09620000  0.10840000  0.90380000  0.49 -0.2703008091
N  N86  1  0.40380000  0.89160000  0.40380000  0.49 -0.2703008091
N  N87  1  0.90380000  0.60840000  0.59620000  0.49 -0.2703008091
N  N88  1  0.59620000  0.39160000  0.09620000  0.49 -0.2703008091
N  N89  1  0.40380000  0.39160000  0.59620000  0.49 -0.2703008091
N  N90  1  0.09620000  0.60840000  0.09620000  0.49 -0.2703008091
N  N91  1  0.59620000  0.89160000  0.90380000  0.49 -0.2703008091
N  N92  1  0.90380000  0.10840000  0.40380000  0.49 -0.2703008091
N  N93  1  0.90380000  0.89160000  0.09620000  0.49 -0.2703008091
N  N94  1  0.59620000  0.10840000  0.59620000  0.49 -0.2703008091
N  N95  1  0.09620000  0.39160000  0.40380000  0.49 -0.2703008091
N  N96  1  0.40380000  0.60840000  0.90380000  0.49 -0.2703008091
N  N49  1  0.52730000  0.72580000  0.52440000  0.5 0.1690475703
N  N50  1  0.97270000  0.27420000  0.02440000  0.5 0.1690475703
N  N51  1  0.47270000  0.22580000  0.97560000  0.5 0.1690475703
N  N52  1  0.02730000  0.77420000  0.47560000  0.5 0.1690475703
N  N53  1  0.02730000  0.22580000  0.02440000  0.5 0.1690475703
N  N54  1  0.47270000  0.77420000  0.52440000  0.5 0.1690475703
N  N55  1  0.97270000  0.72580000  0.47560000  0.5 0.1690475703
N  N56  1  0.52730000  0.27420000  0.97560000  0.5 0.1690475703
N  N57  1  0.47270000  0.27420000  0.47560000  0.5 0.1690475703
N  N58  1  0.02730000  0.72580000  0.97560000  0.5 0.1690475703
N  N59  1  0.52730000  0.77420000  0.02440000  0.5 0.1690475703
N  N60  1  0.97270000  0.22580000  0.52440000  0.5 0.1690475703
N  N61  1  0.97270000  0.77420000  0.97560000  0.5 0.1690475703
N  N62  1  0.52730000  0.22580000  0.47560000  0.5 0.1690475703
N  N63  1  0.02730000  0.27420000  0.52440000  0.5 0.1690475703
N  N64  1  0.47270000  0.72580000  0.02440000  0.5 0.1690475703
N  N97  1  0.56760000  0.68310000  0.50920000  0.5 -0.3394544241
N  N98  1  0.93240000  0.31690000  0.00920000  0.5 -0.3394544241
N  N99  1  0.43240000  0.18310000  0.99080000  0.5 -0.3394544241
N  N100  1  0.06760000  0.81690000  0.49080000  0.5 -0.3394544241
N  N101  1  0.06760000  0.18310000  0.00920000  0.5 -0.3394544241
N  N102  1  0.43240000  0.81690000  0.50920000  0.5 -0.3394544241
N  N103  1  0.93240000  0.68310000  0.49080000  0.5 -0.3394544241
N  N104  1  0.56760000  0.31690000  0.99080000  0.5 -0.3394544241
N  N105  1  0.43240000  0.31690000  0.49080000  0.5 -0.3394544241
N  N106  1  0.06760000  0.68310000  0.99080000  0.5 -0.3394544241
N  N107  1  0.56760000  0.81690000  0.00920000  0.5 -0.3394544241
N  N108  1  0.93240000  0.18310000  0.50920000  0.5 -0.3394544241
N  N109  1  0.93240000  0.81690000  0.99080000  0.5 -0.3394544241
N  N110  1  0.56760000  0.18310000  0.49080000  0.5 -0.3394544241
N  N111  1  0.06760000  0.31690000  0.50920000  0.5 -0.3394544241
N  N112  1  0.43240000  0.68310000  0.00920000  0.5 -0.3394544241
N  N113  1  0.06390000  0.81930000  0.26110000  0.5 -0.3622569027
N  N114  1  0.43610000  0.18070000  0.76110000  0.5 -0.3622569027
N  N115  1  0.93610000  0.31930000  0.23890000  0.5 -0.3622569027
N  N116  1  0.56390000  0.68070000  0.73890000  0.5 -0.3622569027
N  N117  1  0.56390000  0.31930000  0.76110000  0.5 -0.3622569027
N  N118  1  0.93610000  0.68070000  0.26110000  0.5 -0.3622569027
N  N119  1  0.43610000  0.81930000  0.73890000  0.5 -0.3622569027
N  N120  1  0.06390000  0.18070000  0.23890000  0.5 -0.3622569027
N  N121  1  0.93610000  0.18070000  0.73890000  0.5 -0.3622569027
N  N122  1  0.56390000  0.81930000  0.23890000  0.5 -0.3622569027
N  N123  1  0.06390000  0.68070000  0.76110000  0.5 -0.3622569027
N  N124  1  0.43610000  0.31930000  0.26110000  0.5 -0.3622569027
N  N125  1  0.43610000  0.68070000  0.23890000  0.5 -0.3622569027
N  N126  1  0.06390000  0.31930000  0.73890000  0.5 -0.3622569027
N  N127  1  0.56390000  0.18070000  0.26110000  0.5 -0.3622569027
N  N128  1  0.93610000  0.81930000  0.76110000  0.5 -0.3622569027
N  N129  1  0.03220000  0.77600000  0.27300000  0.5 0.079159527
N  N130  1  0.46780000  0.22400000  0.77300000  0.5 0.079159527
N  N131  1  0.96780000  0.27600000  0.22700000  0.5 0.079159527
N  N132  1  0.53220000  0.72400000  0.72700000  0.5 0.079159527
N  N133  1  0.53220000  0.27600000  0.77300000  0.5 0.079159527
N  N134  1  0.96780000  0.72400000  0.27300000  0.5 0.079159527
N  N135  1  0.46780000  0.77600000  0.72700000  0.5 0.079159527
N  N136  1  0.03220000  0.22400000  0.22700000  0.5 0.079159527
N  N137  1  0.96780000  0.22400000  0.72700000  0.5 0.079159527
N  N138  1  0.53220000  0.77600000  0.22700000  0.5 0.079159527
N  N139  1  0.03220000  0.72400000  0.77300000  0.5 0.079159527
N  N140  1  0.46780000  0.27600000  0.27300000  0.5 0.079159527
N  N141  1  0.46780000  0.72400000  0.22700000  0.5 0.079159527
N  N142  1  0.03220000  0.27600000  0.72700000  0.5 0.079159527
N  N143  1  0.53220000  0.22400000  0.27300000  0.5 0.079159527
N  N144  1  0.96780000  0.77600000  0.77300000  0.5 0.079159527
N  N145  1  0.56740000  0.61490000  0.00570000  0.5 -0.1166704031
N  N146  1  0.93260000  0.38510000  0.50570000  0.5 -0.1166704031
N  N147  1  0.43260000  0.11490000  0.49430000  0.5 -0.1166704031
N  N148  1  0.06740000  0.88510000  0.99430000  0.5 -0.1166704031
N  N149  1  0.06740000  0.11490000  0.50570000  0.5 -0.1166704031
N  N150  1  0.43260000  0.88510000  0.00570000  0.5 -0.1166704031
N  N151  1  0.93260000  0.61490000  0.99430000  0.5 -0.1166704031
N  N152  1  0.56740000  0.38510000  0.49430000  0.5 -0.1166704031
N  N153  1  0.43260000  0.38510000  0.99430000  0.5 -0.1166704031
N  N154  1  0.06740000  0.61490000  0.49430000  0.5 -0.1166704031
N  N155  1  0.56740000  0.88510000  0.50570000  0.5 -0.1166704031
N  N156  1  0.93260000  0.11490000  0.00570000  0.5 -0.1166704031
N  N157  1  0.93260000  0.88510000  0.49430000  0.5 -0.1166704031
N  N158  1  0.56740000  0.11490000  0.99430000  0.5 -0.1166704031
N  N159  1  0.06740000  0.38510000  0.00570000  0.5 -0.1166704031
N  N160  1  0.43260000  0.61490000  0.50570000  0.5 -0.1166704031
N  N161  1  0.63700000  0.81980000  0.74090000  0.5 -0.1904084645
N  N162  1  0.86300000  0.18020000  0.24090000  0.5 -0.1904084645
N  N163  1  0.36300000  0.31980000  0.75910000  0.5 -0.1904084645
N  N164  1  0.13700000  0.68020000  0.25910000  0.5 -0.1904084645
N  N165  1  0.13700000  0.31980000  0.24090000  0.5 -0.1904084645
N  N166  1  0.36300000  0.68020000  0.74090000  0.5 -0.1904084645
N  N167  1  0.86300000  0.81980000  0.25910000  0.5 -0.1904084645
N  N168  1  0.63700000  0.18020000  0.75910000  0.5 -0.1904084645
N  N169  1  0.36300000  0.18020000  0.25910000  0.5 -0.1904084645
N  N170  1  0.13700000  0.81980000  0.75910000  0.5 -0.1904084645
N  N171  1  0.63700000  0.68020000  0.24090000  0.5 -0.1904084645
N  N172  1  0.86300000  0.31980000  0.74090000  0.5 -0.1904084645
N  N173  1  0.86300000  0.68020000  0.75910000  0.5 -0.1904084645
N  N174  1  0.63700000  0.31980000  0.25910000  0.5 -0.1904084645
N  N175  1  0.13700000  0.18020000  0.74090000  0.5 -0.1904084645
N  N176  1  0.36300000  0.81980000  0.24090000  0.5 -0.1904084645
N  N65  1  0.35740000  0.65360000  0.34620000  0.51 -0.2760799212
N  N66  1  0.14260000  0.34640000  0.84620000  0.51 -0.2760799212
N  N67  1  0.64260000  0.15360000  0.15380000  0.51 -0.2703008091
N  N68  1  0.85740000  0.84640000  0.65380000  0.51 -0.2760799212
N  N69  1  0.85740000  0.15360000  0.84620000  0.51 -0.2703008091
N  N70  1  0.64260000  0.84640000  0.34620000  0.51 -0.2760799212
N  N71  1  0.14260000  0.65360000  0.65380000  0.51 -0.2760799212
N  N72  1  0.35740000  0.34640000  0.15380000  0.51 -0.2703008091
N  N73  1  0.64260000  0.34640000  0.65380000  0.51 -0.2703008091
N  N74  1  0.85740000  0.65360000  0.15380000  0.51 -0.2703008091
N  N75  1  0.35740000  0.84640000  0.84620000  0.51 -0.2760799212
N  N76  1  0.14260000  0.15360000  0.34620000  0.51 -0.2760799212
N  N77  1  0.14260000  0.84640000  0.15380000  0.51 -0.2760799212
N  N78  1  0.35740000  0.15360000  0.65380000  0.51 -0.2703008091
N  N79  1  0.85740000  0.34640000  0.34620000  0.51 -0.2703008091
N  N80  1  0.64260000  0.65360000  0.84620000  0.51 -0.2760799212
O  O1  1  0.41790000  0.76760000  0.33640000  1.0 -0.5135047617
O  O2  1  0.08210000  0.23240000  0.83640000  1.0 -0.5135047617
O  O3  1  0.58210000  0.26760000  0.16360000  1.0 -0.5135047617
O  O4  1  0.91790000  0.73240000  0.66360000  1.0 -0.5135047617
O  O5  1  0.91790000  0.26760000  0.83640000  1.0 -0.5135047617
O  O6  1  0.58210000  0.73240000  0.33640000  1.0 -0.5135047617
O  O7  1  0.08210000  0.76760000  0.66360000  1.0 -0.5135047617
O  O8  1  0.41790000  0.23240000  0.16360000  1.0 -0.5135047617
O  O9  1  0.58210000  0.23240000  0.66360000  1.0 -0.5135047617
O  O10  1  0.91790000  0.76760000  0.16360000  1.0 -0.5135047617
O  O11  1  0.41790000  0.73240000  0.83640000  1.0 -0.5135047617
O  O12  1  0.08210000  0.26760000  0.33640000  1.0 -0.5135047617
O  O13  1  0.08210000  0.73240000  0.16360000  1.0 -0.5135047617
O  O14  1  0.41790000  0.26760000  0.66360000  1.0 -0.5135047617
O  O15  1  0.91790000  0.23240000  0.33640000  1.0 -0.5135047617
O  O16  1  0.58210000  0.76760000  0.83640000  1.0 -0.5135047617
O  O17  1  0.42080000  0.76760000  0.41408000  1.0 -0.4857661309
O  O18  1  0.07920000  0.23240000  0.91408000  1.0 -0.4857661309
O  O19  1  0.57920000  0.26760000  0.08592000  1.0 -0.4857661309
O  O20  1  0.92080000  0.73240000  0.58592000  1.0 -0.4857661309
O  O21  1  0.92080000  0.26760000  0.91408000  1.0 -0.4857661309
O  O22  1  0.57920000  0.73240000  0.41408000  1.0 -0.4857661309
O  O23  1  0.07920000  0.76760000  0.58592000  1.0 -0.4857661309
O  O24  1  0.42080000  0.23240000  0.08592000  1.0 -0.4857661309
O  O25  1  0.57920000  0.23240000  0.58592000  1.0 -0.4857661309
O  O26  1  0.92080000  0.76760000  0.08592000  1.0 -0.4857661309
O  O27  1  0.42080000  0.73240000  0.91408000  1.0 -0.4857661309
O  O28  1  0.07920000  0.26760000  0.41408000  1.0 -0.4857661309
O  O29  1  0.07920000  0.73240000  0.08592000  1.0 -0.4857661309
O  O30  1  0.42080000  0.26760000  0.58592000  1.0 -0.4857661309
O  O31  1  0.92080000  0.23240000  0.41408000  1.0 -0.4857661309
O  O32  1  0.57920000  0.76760000  0.91408000  1.0 -0.4857661309
O  O33  1  0.48210000  0.66760000  0.41318000  1.0 -0.5026600542
O  O34  1  0.01790000  0.33240000  0.91318000  1.0 -0.5026600542
O  O35  1  0.51790000  0.16760000  0.08682000  1.0 -0.5026600542
O  O36  1  0.98210000  0.83240000  0.58682000  1.0 -0.5026600542
O  O37  1  0.98210000  0.16760000  0.91318000  1.0 -0.5026600542
O  O38  1  0.51790000  0.83240000  0.41318000  1.0 -0.5026600542
O  O39  1  0.01790000  0.66760000  0.58682000  1.0 -0.5026600542
O  O40  1  0.48210000  0.33240000  0.08682000  1.0 -0.5026600542
O  O41  1  0.51790000  0.33240000  0.58682000  1.0 -0.5026600542
O  O42  1  0.98210000  0.66760000  0.08682000  1.0 -0.5026600542
O  O43  1  0.48210000  0.83240000  0.91318000  1.0 -0.5026600542
O  O44  1  0.01790000  0.16760000  0.41318000  1.0 -0.5026600542
O  O45  1  0.01790000  0.83240000  0.08682000  1.0 -0.5026600542
O  O46  1  0.48210000  0.16760000  0.58682000  1.0 -0.5026600542
O  O47  1  0.98210000  0.33240000  0.41318000  1.0 -0.5026600542
O  O48  1  0.51790000  0.66760000  0.91318000  1.0 -0.5026600542
O  O49  1  0.48190000  0.67040000  0.33606000  1.0 -0.4720635558
O  O50  1  0.01810000  0.32960000  0.83606000  1.0 -0.4720635558
O  O51  1  0.51810000  0.17040000  0.16394000  1.0 -0.4720635558
O  O52  1  0.98190000  0.82960000  0.66394000  1.0 -0.4720635558
O  O53  1  0.98190000  0.17040000  0.83606000  1.0 -0.4720635558
O  O54  1  0.51810000  0.82960000  0.33606000  1.0 -0.4720635558
O  O55  1  0.01810000  0.67040000  0.66394000  1.0 -0.4720635558
O  O56  1  0.48190000  0.32960000  0.16394000  1.0 -0.4720635558
O  O57  1  0.51810000  0.32960000  0.66394000  1.0 -0.4720635558
O  O58  1  0.98190000  0.67040000  0.16394000  1.0 -0.4720635558
O  O59  1  0.48190000  0.82960000  0.83606000  1.0 -0.4720635558
O  O60  1  0.01810000  0.17040000  0.33606000  1.0 -0.4720635558
O  O61  1  0.01810000  0.82960000  0.16394000  1.0 -0.4720635558
O  O62  1  0.48190000  0.17040000  0.66394000  1.0 -0.4720635558
O  O63  1  0.98190000  0.32960000  0.33606000  1.0 -0.4720635558
O  O64  1  0.51810000  0.67040000  0.83606000  1.0 -0.4720635558
O  O65  1  0.13350000  0.78130000  0.36880000  1.0 -0.4474609172
O  O66  1  0.36650000  0.21870000  0.86880000  1.0 -0.4474609172
O  O67  1  0.86650000  0.28130000  0.13120000  1.0 -0.4474609172
O  O68  1  0.63350000  0.71870000  0.63120000  1.0 -0.4474609172
O  O69  1  0.63350000  0.28130000  0.86880000  1.0 -0.4474609172
O  O70  1  0.86650000  0.71870000  0.36880000  1.0 -0.4474609172
O  O71  1  0.36650000  0.78130000  0.63120000  1.0 -0.4474609172
O  O72  1  0.13350000  0.21870000  0.13120000  1.0 -0.4474609172
O  O73  1  0.86650000  0.21870000  0.63120000  1.0 -0.4474609172
O  O74  1  0.63350000  0.78130000  0.13120000  1.0 -0.4474609172
O  O75  1  0.13350000  0.71870000  0.86880000  1.0 -0.4474609172
O  O76  1  0.36650000  0.28130000  0.36880000  1.0 -0.4474609172
O  O77  1  0.36650000  0.71870000  0.13120000  1.0 -0.4474609172
O  O78  1  0.13350000  0.28130000  0.63120000  1.0 -0.4474609172
O  O79  1  0.63350000  0.21870000  0.36880000  1.0 -0.4474609172
O  O80  1  0.86650000  0.78130000  0.86880000  1.0 -0.4474609172
O  O81  1  0.03160000  0.88310000  0.38110000  1.0 -0.4720635558
O  O82  1  0.46840000  0.11690000  0.88110000  1.0 -0.4720635558
O  O83  1  0.96840000  0.38310000  0.11890000  1.0 -0.4720635558
O  O84  1  0.53160000  0.61690000  0.61890000  1.0 -0.4720635558
O  O85  1  0.53160000  0.38310000  0.88110000  1.0 -0.4720635558
O  O86  1  0.96840000  0.61690000  0.38110000  1.0 -0.4720635558
O  O87  1  0.46840000  0.88310000  0.61890000  1.0 -0.4720635558
O  O88  1  0.03160000  0.11690000  0.11890000  1.0 -0.4720635558
O  O89  1  0.96840000  0.11690000  0.61890000  1.0 -0.4720635558
O  O90  1  0.53160000  0.88310000  0.11890000  1.0 -0.4720635558
O  O91  1  0.03160000  0.61690000  0.88110000  1.0 -0.4720635558
O  O92  1  0.46840000  0.38310000  0.38110000  1.0 -0.4720635558
O  O93  1  0.46840000  0.61690000  0.11890000  1.0 -0.4720635558
O  O94  1  0.03160000  0.38310000  0.61890000  1.0 -0.4720635558
O  O95  1  0.53160000  0.11690000  0.38110000  1.0 -0.4720635558
O  O96  1  0.96840000  0.88310000  0.88110000  1.0 -0.4720635558
O  O97  1  0.14590000  0.84190000  0.42390000  1.0 -0.5414712164
O  O98  1  0.35410000  0.15810000  0.92390000  1.0 -0.5414712164
O  O99  1  0.85410000  0.34190000  0.07610000  1.0 -0.5414712164
O  O100  1  0.64590000  0.65810000  0.57610000  1.0 -0.5414712164
O  O101  1  0.64590000  0.34190000  0.92390000  1.0 -0.5414712164
O  O102  1  0.85410000  0.65810000  0.42390000  1.0 -0.5414712164
O  O103  1  0.35410000  0.84190000  0.57610000  1.0 -0.5414712164
O  O104  1  0.14590000  0.15810000  0.07610000  1.0 -0.5414712164
O  O105  1  0.85410000  0.15810000  0.57610000  1.0 -0.5414712164
O  O106  1  0.64590000  0.84190000  0.07610000  1.0 -0.5414712164
O  O107  1  0.14590000  0.65810000  0.92390000  1.0 -0.5414712164
O  O108  1  0.35410000  0.34190000  0.42390000  1.0 -0.5414712164
O  O109  1  0.35410000  0.65810000  0.07610000  1.0 -0.5414712164
O  O110  1  0.14590000  0.34190000  0.57610000  1.0 -0.5414712164
O  O111  1  0.64590000  0.15810000  0.42390000  1.0 -0.5414712164
O  O112  1  0.85410000  0.84190000  0.92390000  1.0 -0.5414712164
O  O113  1  0.09300000  0.89530000  0.32590000  1.0 -0.4199737194
O  O114  1  0.40700000  0.10470000  0.82590000  1.0 -0.4199737194
O  O115  1  0.90700000  0.39530000  0.17410000  1.0 -0.4199737194
O  O116  1  0.59300000  0.60470000  0.67410000  1.0 -0.4199737194
O  O117  1  0.59300000  0.39530000  0.82590000  1.0 -0.4199737194
O  O118  1  0.90700000  0.60470000  0.32590000  1.0 -0.4199737194
O  O119  1  0.40700000  0.89530000  0.67410000  1.0 -0.4199737194
O  O120  1  0.09300000  0.10470000  0.17410000  1.0 -0.4199737194
O  O121  1  0.90700000  0.10470000  0.67410000  1.0 -0.4199737194
O  O122  1  0.59300000  0.89530000  0.17410000  1.0 -0.4199737194
O  O123  1  0.09300000  0.60470000  0.82590000  1.0 -0.4199737194
O  O124  1  0.40700000  0.39530000  0.32590000  1.0 -0.4199737194
O  O125  1  0.40700000  0.60470000  0.17410000  1.0 -0.4199737194
O  O126  1  0.09300000  0.39530000  0.67410000  1.0 -0.4199737194
O  O127  1  0.59300000  0.10470000  0.32590000  1.0 -0.4199737194
O  O128  1  0.90700000  0.89530000  0.82590000  1.0 -0.4199737194
