# DDEC6 charges by PACMAN v1.1 (https://github.com/mtap-research/PACMAN-charge/)
data_ja9b10501_si_021_ASR_pacman
_symmetry_space_group_name_H-M   'P 1'
_cell_length_a   18.69440000
_cell_length_b   18.69440000
_cell_length_c   37.06880000
_cell_angle_alpha   90.00000000
_cell_angle_beta   90.00000000
_cell_angle_gamma   90.00000000
_symmetry_Int_Tables_number   1
_chemical_formula_structural   Al16H172.8C275.84N17.28O74.24
_chemical_formula_sum   'Al16 H172.8 C275.84 N17.28 O74.24'
_cell_volume   12954.82614501
_cell_formula_units_Z   1
loop_
 _symmetry_equiv_pos_site_id
 _symmetry_equiv_pos_as_xyz
  1  'x, y, z'
loop_
 _atom_site_type_symbol
 _atom_site_label
 _atom_site_symmetry_multiplicity
 _atom_site_fract_x
 _atom_site_fract_y
 _atom_site_fract_z
 _atom_site_occupancy
 _atom_site_charge
Al  Al1  1  0.90337000  0.13077000  0.07940000  1.0 1.3909661068
Al  Al2  1  0.09663000  0.86923000  0.07940000  1.0 1.3909661068
Al  Al3  1  0.36923000  0.40337000  0.57940000  1.0 1.3909661068
Al  Al4  1  0.63077000  0.59663000  0.57940000  1.0 1.3909661068
Al  Al5  1  0.59663000  0.63077000  0.42060000  1.0 1.3909661068
Al  Al6  1  0.40337000  0.36923000  0.42060000  1.0 1.3909661068
Al  Al7  1  0.13077000  0.90337000  0.92060000  1.0 1.3909661068
Al  Al8  1  0.86923000  0.09663000  0.92060000  1.0 1.3909661068
Al  Al9  1  0.83487000  0.16513000  0.00000000  1.0 1.1846090301
Al  Al10  1  0.16513000  0.83487000  0.00000000  1.0 1.1846090301
Al  Al11  1  0.33487000  0.33487000  0.50000000  1.0 1.1846090301
Al  Al12  1  0.66513000  0.66513000  0.50000000  1.0 1.1846090301
Al  Al13  1  0.00000000  0.00000000  0.11270000  1.0 1.64683858
Al  Al14  1  0.50000000  0.50000000  0.61270000  1.0 1.64683858
Al  Al15  1  0.50000000  0.50000000  0.38730000  1.0 1.64683858
Al  Al16  1  0.00000000  0.00000000  0.88730000  1.0 1.64683858
H  H1  1  0.00809000  0.06948000  0.05798000  1.0 0.4092052324
H  H2  1  0.87031000  0.05457000  0.02913000  1.0 0.4007110267
H  H3  1  0.89440000  0.24990000  0.17301000  1.0 0.1188419373
H  H4  1  0.01289000  0.08794000  0.21393000  1.0 0.1188419373
H  H5  1  0.89155000  0.30486000  0.22837000  1.0 0.1109515638
H  H6  1  0.85373000  0.31007000  0.28844000  1.0 0.1000584074
H  H7  1  0.05461000  0.23682000  0.30474000  1.0 0.1000584074
H  H8  1  0.01243000  0.14436000  0.27010000  1.0 0.1109515638
H  H9  1  0.15345000  0.28931000  0.32751000  1.0 0.1000584074
H  H10  1  0.03104000  0.29451000  0.41733000  1.0 0.1000584074
H  H11  1  0.76024000  0.31608000  0.33047000  1.0 0.0888356751
H  H12  1  0.66105000  0.37895000  0.35052000  1.0 0.1188419373
H  H13  1  0.25643000  0.29179000  0.36296000  1.0 0.1188419373
H  H14  1  0.79201000  0.53280000  0.39109000  1.0 0.1109515638
H  H15  1  0.89074000  0.46847000  0.37060000  1.0 0.1109515638
H  H16  1  0.13268000  0.28697000  0.45318000  1.0 0.1109515638
H  H17  1  0.96076000  0.36345000  0.37896000  1.0 0.1109515638
H  H18  1  0.99191000  0.93052000  0.05798000  1.0 0.4092052324
H  H19  1  0.12969000  0.94543000  0.02913000  1.0 0.4007110267
H  H20  1  0.10560000  0.75010000  0.17301000  1.0 0.1188419373
H  H21  1  0.98711000  0.91206000  0.21393000  1.0 0.1188419373
H  H22  1  0.10845000  0.69514000  0.22837000  1.0 0.1109515638
H  H23  1  0.14627000  0.68993000  0.28844000  1.0 0.1000584074
H  H24  1  0.94539000  0.76318000  0.30474000  1.0 0.1000584074
H  H25  1  0.98757000  0.85564000  0.27010000  1.0 0.1109515638
H  H26  1  0.84655000  0.71069000  0.32751000  1.0 0.1000584074
H  H27  1  0.96896000  0.70549000  0.41733000  1.0 0.1000584074
H  H28  1  0.23976000  0.68392000  0.33047000  1.0 0.0888356751
H  H29  1  0.33895000  0.62105000  0.35052000  1.0 0.1188419373
H  H30  1  0.74357000  0.70821000  0.36296000  1.0 0.1188419373
H  H31  1  0.20799000  0.46720000  0.39109000  1.0 0.1109515638
H  H32  1  0.10926000  0.53153000  0.37060000  1.0 0.1109515638
H  H33  1  0.86732000  0.71303000  0.45318000  1.0 0.1109515638
H  H34  1  0.03924000  0.63655000  0.37896000  1.0 0.1109515638
H  H35  1  0.43052000  0.50809000  0.55798000  1.0 0.4092052324
H  H36  1  0.44543000  0.37031000  0.52913000  1.0 0.4007110267
H  H37  1  0.25010000  0.39440000  0.67301000  1.0 0.1188419373
H  H38  1  0.41206000  0.51289000  0.71393000  1.0 0.1188419373
H  H39  1  0.19514000  0.39155000  0.72837000  1.0 0.1109515638
H  H40  1  0.18993000  0.35373000  0.78844000  1.0 0.1000584074
H  H41  1  0.26318000  0.55461000  0.80474000  1.0 0.1000584074
H  H42  1  0.35564000  0.51243000  0.77010000  1.0 0.1109515638
H  H43  1  0.21069000  0.65345000  0.82751000  1.0 0.1000584074
H  H44  1  0.20549000  0.53104000  0.91733000  1.0 0.1000584074
H  H45  1  0.18392000  0.26024000  0.83047000  1.0 0.0888356751
H  H46  1  0.12105000  0.16105000  0.85052000  1.0 0.1188419373
H  H47  1  0.20821000  0.75643000  0.86296000  1.0 0.1188419373
H  H48  1  0.96720000  0.29201000  0.89109000  1.0 0.1109515638
H  H49  1  0.03153000  0.39074000  0.87060000  1.0 0.1109515638
H  H50  1  0.21303000  0.63268000  0.95318000  1.0 0.1109515638
H  H51  1  0.13655000  0.46076000  0.87896000  1.0 0.1109515638
H  H52  1  0.56948000  0.49191000  0.55798000  1.0 0.4092052324
H  H53  1  0.55457000  0.62969000  0.52913000  1.0 0.4007110267
H  H54  1  0.74990000  0.60560000  0.67301000  1.0 0.1188419373
H  H55  1  0.58794000  0.48711000  0.71393000  1.0 0.1188419373
H  H56  1  0.80486000  0.60845000  0.72837000  1.0 0.1109515638
H  H57  1  0.81007000  0.64627000  0.78844000  1.0 0.1000584074
H  H58  1  0.73682000  0.44539000  0.80474000  1.0 0.1000584074
H  H59  1  0.64436000  0.48757000  0.77010000  1.0 0.1109515638
H  H60  1  0.78931000  0.34655000  0.82751000  1.0 0.1000584074
H  H61  1  0.79451000  0.46896000  0.91733000  1.0 0.1000584074
H  H62  1  0.81608000  0.73976000  0.83047000  1.0 0.0888356751
H  H63  1  0.87895000  0.83895000  0.85052000  1.0 0.1188419373
H  H64  1  0.79179000  0.24357000  0.86296000  1.0 0.1188419373
H  H65  1  0.03280000  0.70799000  0.89109000  1.0 0.1109515638
H  H66  1  0.96847000  0.60926000  0.87060000  1.0 0.1109515638
H  H67  1  0.78697000  0.36732000  0.95318000  1.0 0.1109515638
H  H68  1  0.86345000  0.53924000  0.87896000  1.0 0.1109515638
H  H69  1  0.49191000  0.56948000  0.44202000  1.0 0.4092052324
H  H70  1  0.62969000  0.55457000  0.47087000  1.0 0.4007110267
H  H71  1  0.60560000  0.74990000  0.32699000  1.0 0.1188419373
H  H72  1  0.48711000  0.58794000  0.28607000  1.0 0.1188419373
H  H73  1  0.60845000  0.80486000  0.27163000  1.0 0.1109515638
H  H74  1  0.64627000  0.81007000  0.21156000  1.0 0.1000584074
H  H75  1  0.44539000  0.73682000  0.19526000  1.0 0.1000584074
H  H76  1  0.48757000  0.64436000  0.22990000  1.0 0.1109515638
H  H77  1  0.34655000  0.78931000  0.17249000  1.0 0.1000584074
H  H78  1  0.46896000  0.79451000  0.08267000  1.0 0.1000584074
H  H79  1  0.73976000  0.81608000  0.16953000  1.0 0.0888356751
H  H80  1  0.83895000  0.87895000  0.14948000  1.0 0.1188419373
H  H81  1  0.24357000  0.79179000  0.13704000  1.0 0.1188419373
H  H82  1  0.70799000  0.03280000  0.10891000  1.0 0.1109515638
H  H83  1  0.60926000  0.96847000  0.12940000  1.0 0.1109515638
H  H84  1  0.36732000  0.78697000  0.04682000  1.0 0.1109515638
H  H85  1  0.53924000  0.86345000  0.12104000  1.0 0.1109515638
H  H86  1  0.50809000  0.43052000  0.44202000  1.0 0.4092052324
H  H87  1  0.37031000  0.44543000  0.47087000  1.0 0.4007110267
H  H88  1  0.39440000  0.25010000  0.32699000  1.0 0.1188419373
H  H89  1  0.51289000  0.41206000  0.28607000  1.0 0.1188419373
H  H90  1  0.39155000  0.19514000  0.27163000  1.0 0.1109515638
H  H91  1  0.35373000  0.18993000  0.21156000  1.0 0.1000584074
H  H92  1  0.55461000  0.26318000  0.19526000  1.0 0.1000584074
H  H93  1  0.51243000  0.35564000  0.22990000  1.0 0.1109515638
H  H94  1  0.65345000  0.21069000  0.17249000  1.0 0.1000584074
H  H95  1  0.53104000  0.20549000  0.08267000  1.0 0.1000584074
H  H96  1  0.26024000  0.18392000  0.16953000  1.0 0.0888356751
H  H97  1  0.16105000  0.12105000  0.14948000  1.0 0.1188419373
H  H98  1  0.75643000  0.20821000  0.13704000  1.0 0.1188419373
H  H99  1  0.29201000  0.96720000  0.10891000  1.0 0.1109515638
H  H100  1  0.39074000  0.03153000  0.12940000  1.0 0.1109515638
H  H101  1  0.63268000  0.21303000  0.04682000  1.0 0.1109515638
H  H102  1  0.46076000  0.13655000  0.12104000  1.0 0.1109515638
H  H103  1  0.06948000  0.00809000  0.94202000  1.0 0.4092052324
H  H104  1  0.05457000  0.87031000  0.97087000  1.0 0.4007110267
H  H105  1  0.24990000  0.89440000  0.82699000  1.0 0.1188419373
H  H106  1  0.08794000  0.01289000  0.78607000  1.0 0.1188419373
H  H107  1  0.30486000  0.89155000  0.77163000  1.0 0.1109515638
H  H108  1  0.31007000  0.85373000  0.71156000  1.0 0.1000584074
H  H109  1  0.23682000  0.05461000  0.69526000  1.0 0.1000584074
H  H110  1  0.14436000  0.01243000  0.72990000  1.0 0.1109515638
H  H111  1  0.28931000  0.15345000  0.67249000  1.0 0.1000584074
H  H112  1  0.29451000  0.03104000  0.58267000  1.0 0.1000584074
H  H113  1  0.31608000  0.76024000  0.66953000  1.0 0.0888356751
H  H114  1  0.37895000  0.66105000  0.64948000  1.0 0.1188419373
H  H115  1  0.29179000  0.25643000  0.63704000  1.0 0.1188419373
H  H116  1  0.53280000  0.79201000  0.60891000  1.0 0.1109515638
H  H117  1  0.46847000  0.89074000  0.62940000  1.0 0.1109515638
H  H118  1  0.28697000  0.13268000  0.54682000  1.0 0.1109515638
H  H119  1  0.36345000  0.96076000  0.62104000  1.0 0.1109515638
H  H120  1  0.93052000  0.99191000  0.94202000  1.0 0.4092052324
H  H121  1  0.94543000  0.12969000  0.97087000  1.0 0.4007110267
H  H122  1  0.75010000  0.10560000  0.82699000  1.0 0.1188419373
H  H123  1  0.91206000  0.98711000  0.78607000  1.0 0.1188419373
H  H124  1  0.69514000  0.10845000  0.77163000  1.0 0.1109515638
H  H125  1  0.68993000  0.14627000  0.71156000  1.0 0.1000584074
H  H126  1  0.76318000  0.94539000  0.69526000  1.0 0.1000584074
H  H127  1  0.85564000  0.98757000  0.72990000  1.0 0.1109515638
H  H128  1  0.71069000  0.84655000  0.67249000  1.0 0.1000584074
H  H129  1  0.70549000  0.96896000  0.58267000  1.0 0.1000584074
H  H130  1  0.68392000  0.23976000  0.66953000  1.0 0.0888356751
H  H131  1  0.62105000  0.33895000  0.64948000  1.0 0.1188419373
H  H132  1  0.70821000  0.74357000  0.63704000  1.0 0.1188419373
H  H133  1  0.46720000  0.20799000  0.60891000  1.0 0.1109515638
H  H134  1  0.53153000  0.10926000  0.62940000  1.0 0.1109515638
H  H135  1  0.71303000  0.86732000  0.54682000  1.0 0.1109515638
H  H136  1  0.63655000  0.03924000  0.62104000  1.0 0.1109515638
H  H137  1  0.93716000  0.29424000  0.97905000  0.18 0.0888356751
H  H138  1  0.14824000  0.38941000  0.05359000  0.18 0.0701585677
H  H139  1  0.05893000  0.21437000  0.09790000  0.18 0.1000584074
H  H140  1  0.04428000  0.22566000  0.10518000  0.18 0.1000584074
H  H141  1  0.02446000  0.41938000  0.01933000  0.18 0.0595394209
H  H142  1  0.22274000  0.31810000  0.26518000  0.18 0.0888356751
H  H143  1  0.12203000  0.25989000  0.23113000  0.18 0.0787913814
H  H144  1  0.06930000  0.28027000  0.15851000  0.18 0.0701585677
H  H145  1  0.25390000  0.30666000  0.24777000  0.18 0.1000584074
H  H146  1  0.12935000  0.29546000  0.22235000  0.18 0.1000584074
H  H147  1  0.08238000  0.29781000  0.15204000  0.18 0.1109515638
H  H148  1  0.36381000  0.17226000  0.07730000  0.18 0.1000584074
H  H149  1  0.30955000  0.23958000  0.12294000  0.18 0.0888356751
H  H150  1  0.43191000  0.41032000  0.09589000  0.18 0.1000584074
H  H151  1  0.48617000  0.34300000  0.05024000  0.18 0.1109515638
H  H152  1  0.52951000  0.39380000  0.05140000  0.18 0.0888356751
H  H153  1  0.46173000  0.41550000  0.10332000  0.18 0.0888356751
H  H154  1  0.32236000  0.26027000  0.07356000  0.18 0.0701585677
H  H155  1  0.39014000  0.23856000  0.02163000  0.18 0.1109515638
H  H156  1  0.11293000  0.41587000  0.06856000  0.18 0.0701585677
H  H157  1  0.06179000  0.38665000  0.00508000  0.18 0.0510210304
H  H158  1  0.92069000  0.31719000  0.98818000  0.18 0.1000584074
H  H159  1  0.06284000  0.70576000  0.97905000  0.18 0.0888356751
H  H160  1  0.85176000  0.61059000  0.05359000  0.18 0.0701585677
H  H161  1  0.94107000  0.78563000  0.09790000  0.18 0.1000584074
H  H162  1  0.95572000  0.77434000  0.10518000  0.18 0.1000584074
H  H163  1  0.97554000  0.58062000  0.01933000  0.18 0.0595394209
H  H164  1  0.77726000  0.68190000  0.26518000  0.18 0.0888356751
H  H165  1  0.87797000  0.74011000  0.23113000  0.18 0.0787913814
H  H166  1  0.93070000  0.71973000  0.15851000  0.18 0.0701585677
H  H167  1  0.74610000  0.69334000  0.24777000  0.18 0.1000584074
H  H168  1  0.87065000  0.70454000  0.22235000  0.18 0.1000584074
H  H169  1  0.91762000  0.70219000  0.15204000  0.18 0.1109515638
H  H170  1  0.63619000  0.82774000  0.07730000  0.18 0.1000584074
H  H171  1  0.69045000  0.76042000  0.12294000  0.18 0.1000584074
H  H172  1  0.56809000  0.58968000  0.09589000  0.18 0.1000584074
H  H173  1  0.51383000  0.65700000  0.05024000  0.18 0.1109515638
H  H174  1  0.47049000  0.60620000  0.05140000  0.18 0.0888356751
H  H175  1  0.53827000  0.58450000  0.10332000  0.18 0.0888356751
H  H176  1  0.67764000  0.73973000  0.07356000  0.18 0.0701585677
H  H177  1  0.60986000  0.76144000  0.02163000  0.18 0.1109515638
H  H178  1  0.88707000  0.58413000  0.06856000  0.18 0.0701585677
H  H179  1  0.93821000  0.61335000  0.00508000  0.18 0.0510210304
H  H180  1  0.07931000  0.68281000  0.98818000  0.18 0.1000584074
H  H181  1  0.20576000  0.43716000  0.47905000  0.18 0.0888356751
H  H182  1  0.11059000  0.64824000  0.55359000  0.18 0.0701585677
H  H183  1  0.28563000  0.55893000  0.59790000  0.18 0.1000584074
H  H184  1  0.27434000  0.54428000  0.60518000  0.18 0.1000584074
H  H185  1  0.08062000  0.52446000  0.51933000  0.18 0.0595394209
H  H186  1  0.18190000  0.72274000  0.76518000  0.18 0.0888356751
H  H187  1  0.24011000  0.62203000  0.73113000  0.18 0.0787913814
H  H188  1  0.21973000  0.56930000  0.65851000  0.18 0.0701585677
H  H189  1  0.19334000  0.75390000  0.74777000  0.18 0.1000584074
H  H190  1  0.20454000  0.62935000  0.72235000  0.18 0.1000584074
H  H191  1  0.20219000  0.58238000  0.65204000  0.18 0.1109515638
H  H192  1  0.32774000  0.86381000  0.57730000  0.18 0.1000584074
H  H193  1  0.26042000  0.80955000  0.62294000  0.18 0.1000584074
H  H194  1  0.08968000  0.93191000  0.59589000  0.18 0.1000584074
H  H195  1  0.15700000  0.98617000  0.55024000  0.18 0.1109515638
H  H196  1  0.10620000  0.02951000  0.55140000  0.18 0.0888356751
H  H197  1  0.08450000  0.96173000  0.60332000  0.18 0.0888356751
H  H198  1  0.23973000  0.82236000  0.57356000  0.18 0.0701585677
H  H199  1  0.26144000  0.89014000  0.52163000  0.18 0.1109515638
H  H200  1  0.08413000  0.61293000  0.56856000  0.18 0.0701585677
H  H201  1  0.11335000  0.56179000  0.50508000  0.18 0.0510210304
H  H202  1  0.18281000  0.42069000  0.48818000  0.18 0.1000584074
H  H203  1  0.79424000  0.56284000  0.47905000  0.18 0.0888356751
H  H204  1  0.88941000  0.35176000  0.55359000  0.18 0.0701585677
H  H205  1  0.71437000  0.44107000  0.59790000  0.18 0.1000584074
H  H206  1  0.72566000  0.45572000  0.60518000  0.18 0.1000584074
H  H207  1  0.91938000  0.47554000  0.51933000  0.18 0.0595394209
H  H208  1  0.81810000  0.27726000  0.76518000  0.18 0.0888356751
H  H209  1  0.75989000  0.37797000  0.73113000  0.18 0.0787913814
H  H210  1  0.78027000  0.43070000  0.65851000  0.18 0.0701585677
H  H211  1  0.80666000  0.24610000  0.74777000  0.18 0.1000584074
H  H212  1  0.79546000  0.37065000  0.72235000  0.18 0.1000584074
H  H213  1  0.79781000  0.41762000  0.65204000  0.18 0.1109515638
H  H214  1  0.67226000  0.13619000  0.57730000  0.18 0.1000584074
H  H215  1  0.73958000  0.19045000  0.62294000  0.18 0.1000584074
H  H216  1  0.91032000  0.06809000  0.59589000  0.18 0.1000584074
H  H217  1  0.84300000  0.01383000  0.55024000  0.18 0.1109515638
H  H218  1  0.89380000  0.97049000  0.55140000  0.18 0.0888356751
H  H219  1  0.91550000  0.03827000  0.60332000  0.18 0.0888356751
H  H220  1  0.76027000  0.17764000  0.57356000  0.18 0.0787913814
H  H221  1  0.73856000  0.10986000  0.52163000  0.18 0.1109515638
H  H222  1  0.91587000  0.38707000  0.56856000  0.18 0.0701585677
H  H223  1  0.88665000  0.43821000  0.50508000  0.18 0.0510210304
H  H224  1  0.81719000  0.57931000  0.48818000  0.18 0.1000584074
H  H225  1  0.56284000  0.79424000  0.52095000  0.18 0.0888356751
H  H226  1  0.35176000  0.88941000  0.44641000  0.18 0.0701585677
H  H227  1  0.44107000  0.71437000  0.40210000  0.18 0.1000584074
H  H228  1  0.45572000  0.72566000  0.39482000  0.18 0.1000584074
H  H229  1  0.47554000  0.91938000  0.48067000  0.18 0.0595394209
H  H230  1  0.27726000  0.81810000  0.23482000  0.18 0.0888356751
H  H231  1  0.37797000  0.75989000  0.26887000  0.18 0.0787913814
H  H232  1  0.43070000  0.78027000  0.34149000  0.18 0.0701585677
H  H233  1  0.24610000  0.80666000  0.25223000  0.18 0.1000584074
H  H234  1  0.37065000  0.79546000  0.27765000  0.18 0.1000584074
H  H235  1  0.41762000  0.79781000  0.34796000  0.18 0.1109515638
H  H236  1  0.13619000  0.67226000  0.42270000  0.18 0.1000584074
H  H237  1  0.19045000  0.73958000  0.37706000  0.18 0.1000584074
H  H238  1  0.06809000  0.91032000  0.40411000  0.18 0.1000584074
H  H239  1  0.01383000  0.84300000  0.44976000  0.18 0.1109515638
H  H240  1  0.97049000  0.89380000  0.44860000  0.18 0.0888356751
H  H241  1  0.03827000  0.91550000  0.39668000  0.18 0.0888356751
H  H242  1  0.17764000  0.76027000  0.42644000  0.18 0.0701585677
H  H243  1  0.10986000  0.73856000  0.47837000  0.18 0.1109515638
H  H244  1  0.38707000  0.91587000  0.43144000  0.18 0.0701585677
H  H245  1  0.43821000  0.88665000  0.49492000  0.18 0.0510210304
H  H246  1  0.57931000  0.81719000  0.51182000  0.18 0.1000584074
H  H247  1  0.43716000  0.20576000  0.52095000  0.18 0.0888356751
H  H248  1  0.64824000  0.11059000  0.44641000  0.18 0.0701585677
H  H249  1  0.55893000  0.28563000  0.40210000  0.18 0.1000584074
H  H250  1  0.54428000  0.27434000  0.39482000  0.18 0.1000584074
H  H251  1  0.52446000  0.08062000  0.48067000  0.18 0.0595394209
H  H252  1  0.72274000  0.18190000  0.23482000  0.18 0.0888356751
H  H253  1  0.62203000  0.24011000  0.26887000  0.18 0.0787913814
H  H254  1  0.56930000  0.21973000  0.34149000  0.18 0.0701585677
H  H255  1  0.75390000  0.19334000  0.25223000  0.18 0.1000584074
H  H256  1  0.62935000  0.20454000  0.27765000  0.18 0.1000584074
H  H257  1  0.58238000  0.20219000  0.34796000  0.18 0.1109515638
H  H258  1  0.86381000  0.32774000  0.42270000  0.18 0.1000584074
H  H259  1  0.80955000  0.26042000  0.37706000  0.18 0.1000584074
H  H260  1  0.93191000  0.08968000  0.40411000  0.18 0.1000584074
H  H261  1  0.98617000  0.15700000  0.44976000  0.18 0.1109515638
H  H262  1  0.02951000  0.10620000  0.44860000  0.18 0.0888356751
H  H263  1  0.96173000  0.08450000  0.39668000  0.18 0.0888356751
H  H264  1  0.82236000  0.23973000  0.42644000  0.18 0.0787913814
H  H265  1  0.89014000  0.26144000  0.47837000  0.18 0.1109515638
H  H266  1  0.61293000  0.08413000  0.43144000  0.18 0.0701585677
H  H267  1  0.56179000  0.11335000  0.49492000  0.18 0.0510210304
H  H268  1  0.42069000  0.18281000  0.51182000  0.18 0.1000584074
H  H269  1  0.29424000  0.93716000  0.02095000  0.18 0.0888356751
H  H270  1  0.38941000  0.14824000  0.94641000  0.18 0.0701585677
H  H271  1  0.21437000  0.05893000  0.90210000  0.18 0.1000584074
H  H272  1  0.22566000  0.04428000  0.89482000  0.18 0.1000584074
H  H273  1  0.41938000  0.02446000  0.98067000  0.18 0.0595394209
H  H274  1  0.31810000  0.22274000  0.73482000  0.18 0.0888356751
H  H275  1  0.25989000  0.12203000  0.76887000  0.18 0.0787913814
H  H276  1  0.28027000  0.06930000  0.84149000  0.18 0.0701585677
H  H277  1  0.30666000  0.25390000  0.75223000  0.18 0.1000584074
H  H278  1  0.29546000  0.12935000  0.77765000  0.18 0.1000584074
H  H279  1  0.29781000  0.08238000  0.84796000  0.18 0.1109515638
H  H280  1  0.17226000  0.36381000  0.92270000  0.18 0.1000584074
H  H281  1  0.23958000  0.30955000  0.87706000  0.18 0.1000584074
H  H282  1  0.41032000  0.43191000  0.90411000  0.18 0.1000584074
H  H283  1  0.34300000  0.48617000  0.94976000  0.18 0.1109515638
H  H284  1  0.39380000  0.52951000  0.94860000  0.18 0.0888356751
H  H285  1  0.41550000  0.46173000  0.89668000  0.18 0.0888356751
H  H286  1  0.26027000  0.32236000  0.92644000  0.18 0.0787913814
H  H287  1  0.23856000  0.39014000  0.97837000  0.18 0.1109515638
H  H288  1  0.41587000  0.11293000  0.93144000  0.18 0.0701585677
H  H289  1  0.38665000  0.06179000  0.99492000  0.18 0.0510210304
H  H290  1  0.31719000  0.92069000  0.01182000  0.18 0.1000584074
H  H291  1  0.70576000  0.06284000  0.02095000  0.18 0.0888356751
H  H292  1  0.61059000  0.85176000  0.94641000  0.18 0.0701585677
H  H293  1  0.78563000  0.94107000  0.90210000  0.18 0.1000584074
H  H294  1  0.77434000  0.95572000  0.89482000  0.18 0.1000584074
H  H295  1  0.58062000  0.97554000  0.98067000  0.18 0.0595394209
H  H296  1  0.68190000  0.77726000  0.73482000  0.18 0.0888356751
H  H297  1  0.74011000  0.87797000  0.76887000  0.18 0.0787913814
H  H298  1  0.71973000  0.93070000  0.84149000  0.18 0.0701585677
H  H299  1  0.69334000  0.74610000  0.75223000  0.18 0.1000584074
H  H300  1  0.70454000  0.87065000  0.77765000  0.18 0.1000584074
H  H301  1  0.70219000  0.91762000  0.84796000  0.18 0.1109515638
H  H302  1  0.82774000  0.63619000  0.92270000  0.18 0.1000584074
H  H303  1  0.76042000  0.69045000  0.87706000  0.18 0.1000584074
H  H304  1  0.58968000  0.56809000  0.90411000  0.18 0.1000584074
H  H305  1  0.65700000  0.51383000  0.94976000  0.18 0.1109515638
H  H306  1  0.60620000  0.47049000  0.94860000  0.18 0.0888356751
H  H307  1  0.58450000  0.53827000  0.89668000  0.18 0.0888356751
H  H308  1  0.73973000  0.67764000  0.92644000  0.18 0.0787913814
H  H309  1  0.76144000  0.60986000  0.97837000  0.18 0.1109515638
H  H310  1  0.58413000  0.88707000  0.93144000  0.18 0.0701585677
H  H311  1  0.61335000  0.93821000  0.99492000  0.18 0.0510210304
H  H312  1  0.68281000  0.07931000  0.01182000  0.18 0.1000584074
H  H313  1  0.98254000  0.28680000  0.03185000  0.64 0.0787913814
H  H314  1  0.01746000  0.71320000  0.03185000  0.64 0.0787913814
H  H315  1  0.21320000  0.48254000  0.53185000  0.64 0.0787913814
H  H316  1  0.78680000  0.51746000  0.53185000  0.64 0.0787913814
H  H317  1  0.51746000  0.78680000  0.46815000  0.64 0.0787913814
H  H318  1  0.48254000  0.21320000  0.46815000  0.64 0.0787913814
H  H319  1  0.28680000  0.98254000  0.96815000  0.64 0.0787913814
H  H320  1  0.71320000  0.01746000  0.96815000  0.64 0.0787913814
C  C1  1  0.95490000  0.12860000  0.15190000  1.0 0.6109975024
C  C2  1  0.91860000  0.22850000  0.19281000  1.0 -0.1327905202
C  C3  1  0.95420000  0.16420000  0.18786000  1.0 -0.0400898183
C  C4  1  0.95440000  0.26810000  0.29051000  1.0 0.0888356751
C  C5  1  0.95470000  0.23260000  0.25510000  1.0 0.0701585677
C  C6  1  0.98910000  0.13250000  0.21690000  1.0 -0.1184746952
C  C7  1  0.91760000  0.26160000  0.22549000  1.0 -0.1588966989
C  C8  1  0.89590000  0.30810000  0.30270000  1.0 -0.2327667655
C  C9  1  0.01450000  0.26390000  0.31257000  1.0 -0.2403987528
C  C10  1  0.98900000  0.16630000  0.25024000  1.0 -0.1714668733
C  C11  1  0.83460000  0.38490000  0.34814000  1.0 0.0888356751
C  C12  1  0.08260000  0.29390000  0.36836000  1.0 0.0787913814
C  C13  1  0.14920000  0.29130000  0.35303000  1.0 -0.1545287588
C  C14  1  0.07700000  0.29300000  0.40638000  1.0 -0.1714668733
C  C15  1  0.76690000  0.36010000  0.34280000  1.0 -0.222470094
C  C16  1  0.70770000  0.39710000  0.35487000  1.0 -0.1588966989
C  C17  1  0.20420000  0.29100000  0.41145000  1.0 -0.0194477744
C  C18  1  0.71680000  0.46120000  0.37345000  1.0 -0.0292634997
C  C19  1  0.21060000  0.29140000  0.37399000  1.0 -0.1023254518
C  C20  1  0.78550000  0.48850000  0.37897000  1.0 -0.1100108714
C  C21  1  0.84390000  0.45050000  0.36663000  1.0 -0.1327905202
C  C22  1  0.89820000  0.34540000  0.33557000  1.0 0.1000584074
C  C23  1  0.13700000  0.28980000  0.42769000  1.0 -0.1545287588
C  C24  1  0.95890000  0.33910000  0.35650000  1.0 -0.2046567605
C  C25  1  0.65280000  0.50070000  0.38627000  1.0 0.6271342977
C  C26  1  0.26960000  0.29790000  0.43350000  1.0 0.5565429895
C  C27  1  0.01730000  0.29850000  0.34603000  1.0 0.0888356751
C  C28  1  0.04510000  0.87140000  0.15190000  1.0 0.6109975024
C  C29  1  0.08140000  0.77150000  0.19281000  1.0 -0.1327905202
C  C30  1  0.04580000  0.83580000  0.18786000  1.0 -0.0400898183
C  C31  1  0.04560000  0.73190000  0.29051000  1.0 0.0888356751
C  C32  1  0.04530000  0.76740000  0.25510000  1.0 0.0701585677
C  C33  1  0.01090000  0.86750000  0.21690000  1.0 -0.1184746952
C  C34  1  0.08240000  0.73840000  0.22549000  1.0 -0.1588966989
C  C35  1  0.10410000  0.69190000  0.30270000  1.0 -0.2327667655
C  C36  1  0.98550000  0.73610000  0.31257000  1.0 -0.2403987528
C  C37  1  0.01100000  0.83370000  0.25024000  1.0 -0.1714668733
C  C38  1  0.16540000  0.61510000  0.34814000  1.0 0.0888356751
C  C39  1  0.91740000  0.70610000  0.36836000  1.0 0.0787913814
C  C40  1  0.85080000  0.70870000  0.35303000  1.0 -0.1545287588
C  C41  1  0.92300000  0.70700000  0.40638000  1.0 -0.1714668733
C  C42  1  0.23310000  0.63990000  0.34280000  1.0 -0.2327667655
C  C43  1  0.29230000  0.60290000  0.35487000  1.0 -0.1588966989
C  C44  1  0.79580000  0.70900000  0.41145000  1.0 -0.0149859351
C  C45  1  0.28320000  0.53880000  0.37345000  1.0 -0.0292634997
C  C46  1  0.78940000  0.70860000  0.37399000  1.0 -0.1023254518
C  C47  1  0.21450000  0.51150000  0.37897000  1.0 -0.1100108714
C  C48  1  0.15610000  0.54950000  0.36663000  1.0 -0.1327905202
C  C49  1  0.10180000  0.65460000  0.33557000  1.0 0.1000584074
C  C50  1  0.86300000  0.71020000  0.42769000  1.0 -0.1545287588
C  C51  1  0.04110000  0.66090000  0.35650000  1.0 -0.2046567605
C  C52  1  0.34720000  0.49930000  0.38627000  1.0 0.6271342977
C  C53  1  0.73040000  0.70210000  0.43350000  1.0 0.5565429895
C  C54  1  0.98270000  0.70150000  0.34603000  1.0 0.0888356751
C  C55  1  0.37140000  0.45490000  0.65190000  1.0 0.6109975024
C  C56  1  0.27150000  0.41860000  0.69281000  1.0 -0.1327905202
C  C57  1  0.33580000  0.45420000  0.68786000  1.0 -0.0400898183
C  C58  1  0.23190000  0.45440000  0.79051000  1.0 0.0888356751
C  C59  1  0.26740000  0.45470000  0.75510000  1.0 0.0701585677
C  C60  1  0.36750000  0.48910000  0.71690000  1.0 -0.1184746952
C  C61  1  0.23840000  0.41760000  0.72549000  1.0 -0.1588966989
C  C62  1  0.19190000  0.39590000  0.80270000  1.0 -0.2327667655
C  C63  1  0.23610000  0.51450000  0.81257000  1.0 -0.2403987528
C  C64  1  0.33370000  0.48900000  0.75024000  1.0 -0.1714668733
C  C65  1  0.11510000  0.33460000  0.84814000  1.0 0.0888356751
C  C66  1  0.20610000  0.58260000  0.86836000  1.0 0.0787913814
C  C67  1  0.20870000  0.64920000  0.85303000  1.0 -0.1545287588
C  C68  1  0.20700000  0.57700000  0.90638000  1.0 -0.1714668733
C  C69  1  0.13990000  0.26690000  0.84280000  1.0 -0.222470094
C  C70  1  0.10290000  0.20770000  0.85487000  1.0 -0.1588966989
C  C71  1  0.20900000  0.70420000  0.91145000  1.0 -0.0194477744
C  C72  1  0.03880000  0.21680000  0.87345000  1.0 -0.0292634997
C  C73  1  0.20860000  0.71060000  0.87399000  1.0 -0.1023254518
C  C74  1  0.01150000  0.28550000  0.87897000  1.0 -0.1100108714
C  C75  1  0.04950000  0.34390000  0.86663000  1.0 -0.1327905202
C  C76  1  0.15460000  0.39820000  0.83557000  1.0 0.1000584074
C  C77  1  0.21020000  0.63700000  0.92769000  1.0 -0.1545287588
C  C78  1  0.16090000  0.45890000  0.85650000  1.0 -0.2059379077
C  C79  1  0.99930000  0.15280000  0.88627000  1.0 0.6271342977
C  C80  1  0.20210000  0.76960000  0.93350000  1.0 0.5565429895
C  C81  1  0.20150000  0.51730000  0.84603000  1.0 0.0888356751
C  C82  1  0.62860000  0.54510000  0.65190000  1.0 0.6109975024
C  C83  1  0.72850000  0.58140000  0.69281000  1.0 -0.1327905202
C  C84  1  0.66420000  0.54580000  0.68786000  1.0 -0.0400898183
C  C85  1  0.76810000  0.54560000  0.79051000  1.0 0.0888356751
C  C86  1  0.73260000  0.54530000  0.75510000  1.0 0.0701585677
C  C87  1  0.63250000  0.51090000  0.71690000  1.0 -0.1184746952
C  C88  1  0.76160000  0.58240000  0.72549000  1.0 -0.1588966989
C  C89  1  0.80810000  0.60410000  0.80270000  1.0 -0.2327667655
C  C90  1  0.76390000  0.48550000  0.81257000  1.0 -0.2403987528
C  C91  1  0.66630000  0.51100000  0.75024000  1.0 -0.1714668733
C  C92  1  0.88490000  0.66540000  0.84814000  1.0 0.0888356751
C  C93  1  0.79390000  0.41740000  0.86836000  1.0 0.0787913814
C  C94  1  0.79130000  0.35080000  0.85303000  1.0 -0.1588966989
C  C95  1  0.79300000  0.42300000  0.90638000  1.0 -0.1714668733
C  C96  1  0.86010000  0.73310000  0.84280000  1.0 -0.222470094
C  C97  1  0.89710000  0.79230000  0.85487000  1.0 -0.1588966989
C  C98  1  0.79100000  0.29580000  0.91145000  1.0 -0.0149859351
C  C99  1  0.96120000  0.78320000  0.87345000  1.0 -0.0292634997
C  C100  1  0.79140000  0.28940000  0.87399000  1.0 -0.1023254518
C  C101  1  0.98850000  0.71450000  0.87897000  1.0 -0.1100108714
C  C102  1  0.95050000  0.65610000  0.86663000  1.0 -0.1327905202
C  C103  1  0.84540000  0.60180000  0.83557000  1.0 0.1000584074
C  C104  1  0.78980000  0.36300000  0.92769000  1.0 -0.1545287588
C  C105  1  0.83910000  0.54110000  0.85650000  1.0 -0.2046567605
C  C106  1  0.00070000  0.84720000  0.88627000  1.0 0.6271342977
C  C107  1  0.79790000  0.23040000  0.93350000  1.0 0.5565429895
C  C108  1  0.79850000  0.48270000  0.84603000  1.0 0.0888356751
C  C109  1  0.54510000  0.62860000  0.34810000  1.0 0.6109975024
C  C110  1  0.58140000  0.72850000  0.30719000  1.0 -0.1327905202
C  C111  1  0.54580000  0.66420000  0.31214000  1.0 -0.0400898183
C  C112  1  0.54560000  0.76810000  0.20949000  1.0 0.0888356751
C  C113  1  0.54530000  0.73260000  0.24490000  1.0 0.0701585677
C  C114  1  0.51090000  0.63250000  0.28310000  1.0 -0.1184746952
C  C115  1  0.58240000  0.76160000  0.27451000  1.0 -0.1588966989
C  C116  1  0.60410000  0.80810000  0.19730000  1.0 -0.2327667655
C  C117  1  0.48550000  0.76390000  0.18743000  1.0 -0.2403987528
C  C118  1  0.51100000  0.66630000  0.24976000  1.0 -0.1714668733
C  C119  1  0.66540000  0.88490000  0.15186000  1.0 0.0888356751
C  C120  1  0.41740000  0.79390000  0.13164000  1.0 0.0787913814
C  C121  1  0.35080000  0.79130000  0.14697000  1.0 -0.1545287588
C  C122  1  0.42300000  0.79300000  0.09362000  1.0 -0.1714668733
C  C123  1  0.73310000  0.86010000  0.15720000  1.0 -0.222470094
C  C124  1  0.79230000  0.89710000  0.14513000  1.0 -0.1588966989
C  C125  1  0.29580000  0.79100000  0.08855000  1.0 -0.0194477744
C  C126  1  0.78320000  0.96120000  0.12655000  1.0 -0.0292634997
C  C127  1  0.28940000  0.79140000  0.12601000  1.0 -0.1023254518
C  C128  1  0.71450000  0.98850000  0.12103000  1.0 -0.1100108714
C  C129  1  0.65610000  0.95050000  0.13337000  1.0 -0.1327905202
C  C130  1  0.60180000  0.84540000  0.16443000  1.0 0.1000584074
C  C131  1  0.36300000  0.78980000  0.07231000  1.0 -0.1545287588
C  C132  1  0.54110000  0.83910000  0.14350000  1.0 -0.2046567605
C  C133  1  0.84720000  0.00070000  0.11373000  1.0 0.6271342977
C  C134  1  0.23040000  0.79790000  0.06650000  1.0 0.5565429895
C  C135  1  0.48270000  0.79850000  0.15397000  1.0 0.0888356751
C  C136  1  0.45490000  0.37140000  0.34810000  1.0 0.6109975024
C  C137  1  0.41860000  0.27150000  0.30719000  1.0 -0.1327905202
C  C138  1  0.45420000  0.33580000  0.31214000  1.0 -0.0400898183
C  C139  1  0.45440000  0.23190000  0.20949000  1.0 0.0888356751
C  C140  1  0.45470000  0.26740000  0.24490000  1.0 0.0701585677
C  C141  1  0.48910000  0.36750000  0.28310000  1.0 -0.1184746952
C  C142  1  0.41760000  0.23840000  0.27451000  1.0 -0.1588966989
C  C143  1  0.39590000  0.19190000  0.19730000  1.0 -0.2327667655
C  C144  1  0.51450000  0.23610000  0.18743000  1.0 -0.2403987528
C  C145  1  0.48900000  0.33370000  0.24976000  1.0 -0.1714668733
C  C146  1  0.33460000  0.11510000  0.15186000  1.0 0.0888356751
C  C147  1  0.58260000  0.20610000  0.13164000  1.0 0.0787913814
C  C148  1  0.64920000  0.20870000  0.14697000  1.0 -0.1588966989
C  C149  1  0.57700000  0.20700000  0.09362000  1.0 -0.1714668733
C  C150  1  0.26690000  0.13990000  0.15720000  1.0 -0.222470094
C  C151  1  0.20770000  0.10290000  0.14513000  1.0 -0.1588966989
C  C152  1  0.70420000  0.20900000  0.08855000  1.0 -0.0149859351
C  C153  1  0.21680000  0.03880000  0.12655000  1.0 -0.0292634997
C  C154  1  0.71060000  0.20860000  0.12601000  1.0 -0.1023254518
C  C155  1  0.28550000  0.01150000  0.12103000  1.0 -0.1100108714
C  C156  1  0.34390000  0.04950000  0.13337000  1.0 -0.1327905202
C  C157  1  0.39820000  0.15460000  0.16443000  1.0 0.1000584074
C  C158  1  0.63700000  0.21020000  0.07231000  1.0 -0.1545287588
C  C159  1  0.45890000  0.16090000  0.14350000  1.0 -0.2046567605
C  C160  1  0.15280000  0.99930000  0.11373000  1.0 0.6271342977
C  C161  1  0.76960000  0.20210000  0.06650000  1.0 0.5565429895
C  C162  1  0.51730000  0.20150000  0.15397000  1.0 0.0888356751
C  C163  1  0.12860000  0.95490000  0.84810000  1.0 0.6109975024
C  C164  1  0.22850000  0.91860000  0.80719000  1.0 -0.1327905202
C  C165  1  0.16420000  0.95420000  0.81214000  1.0 -0.0400898183
C  C166  1  0.26810000  0.95440000  0.70949000  1.0 0.0888356751
C  C167  1  0.23260000  0.95470000  0.74490000  1.0 0.0701585677
C  C168  1  0.13250000  0.98910000  0.78310000  1.0 -0.1184746952
C  C169  1  0.26160000  0.91760000  0.77451000  1.0 -0.1588966989
C  C170  1  0.30810000  0.89590000  0.69730000  1.0 -0.2327667655
C  C171  1  0.26390000  0.01450000  0.68743000  1.0 -0.2403987528
C  C172  1  0.16630000  0.98900000  0.74976000  1.0 -0.1714668733
C  C173  1  0.38490000  0.83460000  0.65186000  1.0 0.0888356751
C  C174  1  0.29390000  0.08260000  0.63164000  1.0 0.0787913814
C  C175  1  0.29130000  0.14920000  0.64697000  1.0 -0.1588966989
C  C176  1  0.29300000  0.07700000  0.59362000  1.0 -0.1714668733
C  C177  1  0.36010000  0.76690000  0.65720000  1.0 -0.222470094
C  C178  1  0.39710000  0.70770000  0.64513000  1.0 -0.1588966989
C  C179  1  0.29100000  0.20420000  0.58855000  1.0 -0.0194477744
C  C180  1  0.46120000  0.71680000  0.62655000  1.0 -0.0292634997
C  C181  1  0.29140000  0.21060000  0.62601000  1.0 -0.1023254518
C  C182  1  0.48850000  0.78550000  0.62103000  1.0 -0.1100108714
C  C183  1  0.45050000  0.84390000  0.63337000  1.0 -0.1327905202
C  C184  1  0.34540000  0.89820000  0.66443000  1.0 0.1000584074
C  C185  1  0.28980000  0.13700000  0.57231000  1.0 -0.1545287588
C  C186  1  0.33910000  0.95890000  0.64350000  1.0 -0.2059379077
C  C187  1  0.50070000  0.65280000  0.61373000  1.0 0.6271342977
C  C188  1  0.29790000  0.26960000  0.56650000  1.0 0.5565429895
C  C189  1  0.29850000  0.01730000  0.65397000  1.0 0.0888356751
C  C190  1  0.87140000  0.04510000  0.84810000  1.0 0.6109975024
C  C191  1  0.77150000  0.08140000  0.80719000  1.0 -0.1327905202
C  C192  1  0.83580000  0.04580000  0.81214000  1.0 -0.0400898183
C  C193  1  0.73190000  0.04560000  0.70949000  1.0 0.0888356751
C  C194  1  0.76740000  0.04530000  0.74490000  1.0 0.0701585677
C  C195  1  0.86750000  0.01090000  0.78310000  1.0 -0.1184746952
C  C196  1  0.73840000  0.08240000  0.77451000  1.0 -0.1588966989
C  C197  1  0.69190000  0.10410000  0.69730000  1.0 -0.2327667655
C  C198  1  0.73610000  0.98550000  0.68743000  1.0 -0.2403987528
C  C199  1  0.83370000  0.01100000  0.74976000  1.0 -0.1714668733
C  C200  1  0.61510000  0.16540000  0.65186000  1.0 0.0888356751
C  C201  1  0.70610000  0.91740000  0.63164000  1.0 0.0787913814
C  C202  1  0.70870000  0.85080000  0.64697000  1.0 -0.1588966989
C  C203  1  0.70700000  0.92300000  0.59362000  1.0 -0.1714668733
C  C204  1  0.63990000  0.23310000  0.65720000  1.0 -0.222470094
C  C205  1  0.60290000  0.29230000  0.64513000  1.0 -0.1588966989
C  C206  1  0.70900000  0.79580000  0.58855000  1.0 -0.0194477744
C  C207  1  0.53880000  0.28320000  0.62655000  1.0 -0.0292634997
C  C208  1  0.70860000  0.78940000  0.62601000  1.0 -0.1023254518
C  C209  1  0.51150000  0.21450000  0.62103000  1.0 -0.1100108714
C  C210  1  0.54950000  0.15610000  0.63337000  1.0 -0.1327905202
C  C211  1  0.65460000  0.10180000  0.66443000  1.0 0.1000584074
C  C212  1  0.71020000  0.86300000  0.57231000  1.0 -0.1545287588
C  C213  1  0.66090000  0.04110000  0.64350000  1.0 -0.2059379077
C  C214  1  0.49930000  0.34720000  0.61373000  1.0 0.6271342977
C  C215  1  0.70210000  0.73040000  0.56650000  1.0 0.5565429895
C  C216  1  0.70150000  0.98270000  0.65397000  1.0 0.0888356751
C  C217  1  0.94700000  0.27600000  0.00250000  0.18 -0.0194477744
C  C218  1  0.10990000  0.35610000  0.05350000  0.18 -0.1100108714
C  C219  1  0.08100000  0.31900000  0.09460000  0.18 0.0442182865
C  C220  1  0.00520000  0.29880000  0.02680000  0.18 0.0298709073
C  C221  1  0.02700000  0.38000000  0.03580000  0.18 -0.0400898183
C  C222  1  0.21700000  0.31300000  0.23980000  0.18 -0.1403031716
C  C223  1  0.16000000  0.28700000  0.22060000  0.18 -0.0912331448
C  C224  1  0.25310000  0.35380000  0.14580000  0.18 0.0787913814
C  C225  1  0.13880000  0.32010000  0.12120000  0.18 0.0595394209
C  C226  1  0.11610000  0.29900000  0.15530000  0.18 -0.0912331448
C  C227  1  0.23040000  0.33270000  0.17990000  0.18 0.1109515638
C  C228  1  0.24000000  0.31800000  0.22380000  0.18 0.0701585677
C  C229  1  0.17100000  0.31000000  0.20990000  0.18 0.0215119809
C  C230  1  0.27160000  0.34230000  0.12940000  0.18 0.1000584074
C  C231  1  0.15420000  0.30400000  0.11080000  0.18 0.0787913814
C  C232  1  0.13060000  0.30900000  0.14630000  0.18 -0.0292634997
C  C233  1  0.24800000  0.34700000  0.16490000  0.18 0.0510210304
C  C234  1  0.37800000  0.22100000  0.08110000  0.18 -0.1714668733
C  C235  1  0.34500000  0.26100000  0.10820000  0.18 -0.1588966989
C  C236  1  0.36600000  0.33100000  0.11370000  0.18 0.1000584074
C  C237  1  0.41800000  0.36200000  0.09210000  0.18 -0.0194477744
C  C238  1  0.45000000  0.32200000  0.06500000  0.18 0.0298709073
C  C239  1  0.43000000  0.25100000  0.05950000  0.18 0.0510210304
C  C240  1  0.48700000  0.36700000  0.05590000  0.18 -0.1100108714
C  C241  1  0.44720000  0.38000000  0.08670000  0.18 -0.1023254518
C  C242  1  0.38570000  0.34000000  0.09330000  0.18 0.0595394209
C  C243  1  0.36400000  0.28700000  0.06910000  0.18 -0.0292634997
C  C244  1  0.40500000  0.27400000  0.03820000  0.18 -0.0530646596
C  C245  1  0.46600000  0.31400000  0.03160000  0.18 -0.2403987528
C  C246  1  0.07900000  0.37800000  0.06660000  0.18 -0.0675656218
C  C247  1  0.10000000  0.30600000  0.08280000  0.18 0.0510210304
C  C248  1  0.05970000  0.35390000  0.02470000  0.18 -0.0400898183
C  C249  1  0.97800000  0.31600000  0.03290000  0.18 -0.0400898183
C  C250  1  0.93500000  0.29300000  0.00950000  0.18 -0.0675656218
C  C251  1  0.05300000  0.72400000  0.00250000  0.18 -0.0194477744
C  C252  1  0.89010000  0.64390000  0.05350000  0.18 -0.1023254518
C  C253  1  0.91900000  0.68100000  0.09460000  0.18 0.0442182865
C  C254  1  0.99480000  0.70120000  0.02680000  0.18 0.0298709073
C  C255  1  0.97300000  0.62000000  0.03580000  0.18 -0.0400898183
C  C256  1  0.78300000  0.68700000  0.23980000  0.18 -0.1403031716
C  C257  1  0.84000000  0.71300000  0.22060000  0.18 -0.0912331448
C  C258  1  0.74690000  0.64620000  0.14580000  0.18 0.0787913814
C  C259  1  0.86120000  0.67990000  0.12120000  0.18 0.0595394209
C  C260  1  0.88390000  0.70100000  0.15530000  0.18 -0.0912331448
C  C261  1  0.76960000  0.66730000  0.17990000  0.18 0.1109515638
C  C262  1  0.76000000  0.68200000  0.22380000  0.18 0.0701585677
C  C263  1  0.82900000  0.69000000  0.20990000  0.18 0.0215119809
C  C264  1  0.72840000  0.65770000  0.12940000  0.18 0.1000584074
C  C265  1  0.84580000  0.69600000  0.11080000  0.18 0.0787913814
C  C266  1  0.86940000  0.69100000  0.14630000  0.18 -0.0292634997
C  C267  1  0.75200000  0.65300000  0.16490000  0.18 0.0510210304
C  C268  1  0.62200000  0.77900000  0.08110000  0.18 -0.1714668733
C  C269  1  0.65500000  0.73900000  0.10820000  0.18 -0.1588966989
C  C270  1  0.63400000  0.66900000  0.11370000  0.18 0.1000584074
C  C271  1  0.58200000  0.63800000  0.09210000  0.18 -0.0194477744
C  C272  1  0.55000000  0.67800000  0.06500000  0.18 0.0298709073
C  C273  1  0.57000000  0.74900000  0.05950000  0.18 0.0510210304
C  C274  1  0.51300000  0.63300000  0.05590000  0.18 -0.1100108714
C  C275  1  0.55280000  0.62000000  0.08670000  0.18 -0.1023254518
C  C276  1  0.61430000  0.66000000  0.09330000  0.18 0.0595394209
C  C277  1  0.63600000  0.71300000  0.06910000  0.18 -0.0292634997
C  C278  1  0.59500000  0.72600000  0.03820000  0.18 -0.0530646596
C  C279  1  0.53400000  0.68600000  0.03160000  0.18 -0.2403987528
C  C280  1  0.92100000  0.62200000  0.06660000  0.18 -0.0675656218
C  C281  1  0.90000000  0.69400000  0.08280000  0.18 0.0595394209
C  C282  1  0.94030000  0.64610000  0.02470000  0.18 -0.0400898183
C  C283  1  0.02200000  0.68400000  0.03290000  0.18 -0.0400898183
C  C284  1  0.06500000  0.70700000  0.00950000  0.18 -0.0675656218
C  C285  1  0.22400000  0.44700000  0.50250000  0.18 -0.0194477744
C  C286  1  0.14390000  0.60990000  0.55350000  0.18 -0.1023254518
C  C287  1  0.18100000  0.58100000  0.59460000  0.18 0.0442182865
C  C288  1  0.20120000  0.50520000  0.52680000  0.18 0.0298709073
C  C289  1  0.12000000  0.52700000  0.53580000  0.18 -0.0400898183
C  C290  1  0.18700000  0.71700000  0.73980000  0.18 -0.1403031716
C  C291  1  0.21300000  0.66000000  0.72060000  0.18 -0.0912331448
C  C292  1  0.14620000  0.75310000  0.64580000  0.18 0.0701585677
C  C293  1  0.17990000  0.63880000  0.62120000  0.18 0.0595394209
C  C294  1  0.20100000  0.61610000  0.65530000  0.18 -0.0912331448
C  C295  1  0.16730000  0.73040000  0.67990000  0.18 0.1188419373
C  C296  1  0.18200000  0.74000000  0.72380000  0.18 0.0701585677
C  C297  1  0.19000000  0.67100000  0.70990000  0.18 0.0215119809
C  C298  1  0.15770000  0.77160000  0.62940000  0.18 0.1000584074
C  C299  1  0.19600000  0.65420000  0.61080000  0.18 0.0787913814
C  C300  1  0.19100000  0.63060000  0.64630000  0.18 -0.0292634997
C  C301  1  0.15300000  0.74800000  0.66490000  0.18 0.0510210304
C  C302  1  0.27900000  0.87800000  0.58110000  0.18 -0.1714668733
C  C303  1  0.23900000  0.84500000  0.60820000  0.18 -0.1588966989
C  C304  1  0.16900000  0.86600000  0.61370000  0.18 0.1000584074
C  C305  1  0.13800000  0.91800000  0.59210000  0.18 -0.0292634997
C  C306  1  0.17800000  0.95000000  0.56500000  0.18 0.0298709073
C  C307  1  0.24900000  0.93000000  0.55950000  0.18 0.0510210304
C  C308  1  0.13300000  0.98700000  0.55590000  0.18 -0.1100108714
C  C309  1  0.12000000  0.94720000  0.58670000  0.18 -0.1023254518
C  C310  1  0.16000000  0.88570000  0.59330000  0.18 0.0595394209
C  C311  1  0.21300000  0.86400000  0.56910000  0.18 -0.0292634997
C  C312  1  0.22600000  0.90500000  0.53820000  0.18 -0.0551867889
C  C313  1  0.18600000  0.96600000  0.53160000  0.18 -0.2403987528
C  C314  1  0.12200000  0.57900000  0.56660000  0.18 -0.0675656218
C  C315  1  0.19400000  0.60000000  0.58280000  0.18 0.0510210304
C  C316  1  0.14610000  0.55970000  0.52470000  0.18 -0.0400898183
C  C317  1  0.18400000  0.47800000  0.53290000  0.18 -0.0400898183
C  C318  1  0.20700000  0.43500000  0.50950000  0.18 -0.0675656218
C  C319  1  0.77600000  0.55300000  0.50250000  0.18 -0.0194477744
C  C320  1  0.85610000  0.39010000  0.55350000  0.18 -0.1023254518
C  C321  1  0.81900000  0.41900000  0.59460000  0.18 0.0442182865
C  C322  1  0.79880000  0.49480000  0.52680000  0.18 0.0298709073
C  C323  1  0.88000000  0.47300000  0.53580000  0.18 -0.0400898183
C  C324  1  0.81300000  0.28300000  0.73980000  0.18 -0.1403031716
C  C325  1  0.78700000  0.34000000  0.72060000  0.18 -0.0912331448
C  C326  1  0.85380000  0.24690000  0.64580000  0.18 0.0787913814
C  C327  1  0.82010000  0.36120000  0.62120000  0.18 0.0595394209
C  C328  1  0.79900000  0.38390000  0.65530000  0.18 -0.0912331448
C  C329  1  0.83270000  0.26960000  0.67990000  0.18 0.1188419373
C  C330  1  0.81800000  0.26000000  0.72380000  0.18 0.0701585677
C  C331  1  0.81000000  0.32900000  0.70990000  0.18 0.0215119809
C  C332  1  0.84230000  0.22840000  0.62940000  0.18 0.1000584074
C  C333  1  0.80400000  0.34580000  0.61080000  0.18 0.0787913814
C  C334  1  0.80900000  0.36940000  0.64630000  0.18 -0.0292634997
C  C335  1  0.84700000  0.25200000  0.66490000  0.18 0.0510210304
C  C336  1  0.72100000  0.12200000  0.58110000  0.18 -0.1714668733
C  C337  1  0.76100000  0.15500000  0.60820000  0.18 -0.1588966989
C  C338  1  0.83100000  0.13400000  0.61370000  0.18 0.1000584074
C  C339  1  0.86200000  0.08200000  0.59210000  0.18 -0.0194477744
C  C340  1  0.82200000  0.05000000  0.56500000  0.18 0.0298709073
C  C341  1  0.75100000  0.07000000  0.55950000  0.18 0.0510210304
C  C342  1  0.86700000  0.01300000  0.55590000  0.18 -0.1100108714
C  C343  1  0.88000000  0.05280000  0.58670000  0.18 -0.1023254518
C  C344  1  0.84000000  0.11430000  0.59330000  0.18 0.0595394209
C  C345  1  0.78700000  0.13600000  0.56910000  0.18 -0.0292634997
C  C346  1  0.77400000  0.09500000  0.53820000  0.18 -0.0530646596
C  C347  1  0.81400000  0.03400000  0.53160000  0.18 -0.2403987528
C  C348  1  0.87800000  0.42100000  0.56660000  0.18 -0.0675656218
C  C349  1  0.80600000  0.40000000  0.58280000  0.18 0.0595394209
C  C350  1  0.85390000  0.44030000  0.52470000  0.18 -0.0400898183
C  C351  1  0.81600000  0.52200000  0.53290000  0.18 -0.0400898183
C  C352  1  0.79300000  0.56500000  0.50950000  0.18 -0.0675656218
C  C353  1  0.55300000  0.77600000  0.49750000  0.18 -0.0194477744
C  C354  1  0.39010000  0.85610000  0.44650000  0.18 -0.1023254518
C  C355  1  0.41900000  0.81900000  0.40540000  0.18 0.0442182865
C  C356  1  0.49480000  0.79880000  0.47320000  0.18 0.0298709073
C  C357  1  0.47300000  0.88000000  0.46420000  0.18 -0.0400898183
C  C358  1  0.28300000  0.81300000  0.26020000  0.18 -0.1403031716
C  C359  1  0.34000000  0.78700000  0.27940000  0.18 -0.0912331448
C  C360  1  0.24690000  0.85380000  0.35420000  0.18 0.0787913814
C  C361  1  0.36120000  0.82010000  0.37880000  0.18 0.0595394209
C  C362  1  0.38390000  0.79900000  0.34470000  0.18 -0.0912331448
C  C363  1  0.26960000  0.83270000  0.32010000  0.18 0.1109515638
C  C364  1  0.26000000  0.81800000  0.27620000  0.18 0.0701585677
C  C365  1  0.32900000  0.81000000  0.29010000  0.18 0.0215119809
C  C366  1  0.22840000  0.84230000  0.37060000  0.18 0.1000584074
C  C367  1  0.34580000  0.80400000  0.38920000  0.18 0.0787913814
C  C368  1  0.36940000  0.80900000  0.35370000  0.18 -0.0292634997
C  C369  1  0.25200000  0.84700000  0.33510000  0.18 0.0510210304
C  C370  1  0.12200000  0.72100000  0.41890000  0.18 -0.1714668733
C  C371  1  0.15500000  0.76100000  0.39180000  0.18 -0.1588966989
C  C372  1  0.13400000  0.83100000  0.38630000  0.18 0.1000584074
C  C373  1  0.08200000  0.86200000  0.40790000  0.18 -0.0194477744
C  C374  1  0.05000000  0.82200000  0.43500000  0.18 0.0298709073
C  C375  1  0.07000000  0.75100000  0.44050000  0.18 0.0510210304
C  C376  1  0.01300000  0.86700000  0.44410000  0.18 -0.1100108714
C  C377  1  0.05280000  0.88000000  0.41330000  0.18 -0.1023254518
C  C378  1  0.11430000  0.84000000  0.40670000  0.18 0.0595394209
C  C379  1  0.13600000  0.78700000  0.43090000  0.18 -0.0292634997
C  C380  1  0.09500000  0.77400000  0.46180000  0.18 -0.0551867889
C  C381  1  0.03400000  0.81400000  0.46840000  0.18 -0.2403987528
C  C382  1  0.42100000  0.87800000  0.43340000  0.18 -0.0675656218
C  C383  1  0.40000000  0.80600000  0.41720000  0.18 0.0510210304
C  C384  1  0.44030000  0.85390000  0.47530000  0.18 -0.0400898183
C  C385  1  0.52200000  0.81600000  0.46710000  0.18 -0.0400898183
C  C386  1  0.56500000  0.79300000  0.49050000  0.18 -0.0675656218
C  C387  1  0.44700000  0.22400000  0.49750000  0.18 -0.0194477744
C  C388  1  0.60990000  0.14390000  0.44650000  0.18 -0.1023254518
C  C389  1  0.58100000  0.18100000  0.40540000  0.18 0.0442182865
C  C390  1  0.50520000  0.20120000  0.47320000  0.18 0.0298709073
C  C391  1  0.52700000  0.12000000  0.46420000  0.18 -0.0400898183
C  C392  1  0.71700000  0.18700000  0.26020000  0.18 -0.1403031716
C  C393  1  0.66000000  0.21300000  0.27940000  0.18 -0.0912331448
C  C394  1  0.75310000  0.14620000  0.35420000  0.18 0.0787913814
C  C395  1  0.63880000  0.17990000  0.37880000  0.18 0.0595394209
C  C396  1  0.61610000  0.20100000  0.34470000  0.18 -0.0912331448
C  C397  1  0.73040000  0.16730000  0.32010000  0.18 0.1109515638
C  C398  1  0.74000000  0.18200000  0.27620000  0.18 0.0701585677
C  C399  1  0.67100000  0.19000000  0.29010000  0.18 0.0215119809
C  C400  1  0.77160000  0.15770000  0.37060000  0.18 0.1000584074
C  C401  1  0.65420000  0.19600000  0.38920000  0.18 0.0787913814
C  C402  1  0.63060000  0.19100000  0.35370000  0.18 -0.0292634997
C  C403  1  0.74800000  0.15300000  0.33510000  0.18 0.0510210304
C  C404  1  0.87800000  0.27900000  0.41890000  0.18 -0.1714668733
C  C405  1  0.84500000  0.23900000  0.39180000  0.18 -0.1588966989
C  C406  1  0.86600000  0.16900000  0.38630000  0.18 0.1000584074
C  C407  1  0.91800000  0.13800000  0.40790000  0.18 -0.0194477744
C  C408  1  0.95000000  0.17800000  0.43500000  0.18 0.0298709073
C  C409  1  0.93000000  0.24900000  0.44050000  0.18 0.0510210304
C  C410  1  0.98700000  0.13300000  0.44410000  0.18 -0.1100108714
C  C411  1  0.94720000  0.12000000  0.41330000  0.18 -0.1023254518
C  C412  1  0.88570000  0.16000000  0.40670000  0.18 0.0595394209
C  C413  1  0.86400000  0.21300000  0.43090000  0.18 -0.0292634997
C  C414  1  0.90500000  0.22600000  0.46180000  0.18 -0.0530646596
C  C415  1  0.96600000  0.18600000  0.46840000  0.18 -0.245950009
C  C416  1  0.57900000  0.12200000  0.43340000  0.18 -0.0675656218
C  C417  1  0.60000000  0.19400000  0.41720000  0.18 0.0510210304
C  C418  1  0.55970000  0.14610000  0.47530000  0.18 -0.0400898183
C  C419  1  0.47800000  0.18400000  0.46710000  0.18 -0.0400898183
C  C420  1  0.43500000  0.20700000  0.49050000  0.18 -0.0675656218
C  C421  1  0.27600000  0.94700000  0.99750000  0.18 -0.0194477744
C  C422  1  0.35610000  0.10990000  0.94650000  0.18 -0.1023254518
C  C423  1  0.31900000  0.08100000  0.90540000  0.18 0.0442182865
C  C424  1  0.29880000  0.00520000  0.97320000  0.18 0.0298709073
C  C425  1  0.38000000  0.02700000  0.96420000  0.18 -0.0400898183
C  C426  1  0.31300000  0.21700000  0.76020000  0.18 -0.1403031716
C  C427  1  0.28700000  0.16000000  0.77940000  0.18 -0.0912331448
C  C428  1  0.35380000  0.25310000  0.85420000  0.18 0.0701585677
C  C429  1  0.32010000  0.13880000  0.87880000  0.18 0.0595394209
C  C430  1  0.29900000  0.11610000  0.84470000  0.18 -0.0912331448
C  C431  1  0.33270000  0.23040000  0.82010000  0.18 0.1109515638
C  C432  1  0.31800000  0.24000000  0.77620000  0.18 0.0701585677
C  C433  1  0.31000000  0.17100000  0.79010000  0.18 0.0215119809
C  C434  1  0.34230000  0.27160000  0.87060000  0.18 0.1000584074
C  C435  1  0.30400000  0.15420000  0.88920000  0.18 0.0787913814
C  C436  1  0.30900000  0.13060000  0.85370000  0.18 -0.0292634997
C  C437  1  0.34700000  0.24800000  0.83510000  0.18 0.0510210304
C  C438  1  0.22100000  0.37800000  0.91890000  0.18 -0.1714668733
C  C439  1  0.26100000  0.34500000  0.89180000  0.18 -0.1588966989
C  C440  1  0.33100000  0.36600000  0.88630000  0.18 0.1000584074
C  C441  1  0.36200000  0.41800000  0.90790000  0.18 -0.0194477744
C  C442  1  0.32200000  0.45000000  0.93500000  0.18 0.0298709073
C  C443  1  0.25100000  0.43000000  0.94050000  0.18 0.0510210304
C  C444  1  0.36700000  0.48700000  0.94410000  0.18 -0.1100108714
C  C445  1  0.38000000  0.44720000  0.91330000  0.18 -0.1023254518
C  C446  1  0.34000000  0.38570000  0.90670000  0.18 0.0595394209
C  C447  1  0.28700000  0.36400000  0.93090000  0.18 -0.0292634997
C  C448  1  0.27400000  0.40500000  0.96180000  0.18 -0.0530646596
C  C449  1  0.31400000  0.46600000  0.96840000  0.18 -0.2403987528
C  C450  1  0.37800000  0.07900000  0.93340000  0.18 -0.0675656218
C  C451  1  0.30600000  0.10000000  0.91720000  0.18 0.0595394209
C  C452  1  0.35390000  0.05970000  0.97530000  0.18 -0.0400898183
C  C453  1  0.31600000  0.97800000  0.96710000  0.18 -0.0400898183
C  C454  1  0.29300000  0.93500000  0.99050000  0.18 -0.0675656218
C  C455  1  0.72400000  0.05300000  0.99750000  0.18 -0.0194477744
C  C456  1  0.64390000  0.89010000  0.94650000  0.18 -0.1023254518
C  C457  1  0.68100000  0.91900000  0.90540000  0.18 0.0442182865
C  C458  1  0.70120000  0.99480000  0.97320000  0.18 0.0298709073
C  C459  1  0.62000000  0.97300000  0.96420000  0.18 -0.0400898183
C  C460  1  0.68700000  0.78300000  0.76020000  0.18 -0.1403031716
C  C461  1  0.71300000  0.84000000  0.77940000  0.18 -0.0912331448
C  C462  1  0.64620000  0.74690000  0.85420000  0.18 0.0701585677
C  C463  1  0.67990000  0.86120000  0.87880000  0.18 0.0595394209
C  C464  1  0.70100000  0.88390000  0.84470000  0.18 -0.0912331448
C  C465  1  0.66730000  0.76960000  0.82010000  0.18 0.1109515638
C  C466  1  0.68200000  0.76000000  0.77620000  0.18 0.0701585677
C  C467  1  0.69000000  0.82900000  0.79010000  0.18 0.0215119809
C  C468  1  0.65770000  0.72840000  0.87060000  0.18 0.1000584074
C  C469  1  0.69600000  0.84580000  0.88920000  0.18 0.0787913814
C  C470  1  0.69100000  0.86940000  0.85370000  0.18 -0.0292634997
C  C471  1  0.65300000  0.75200000  0.83510000  0.18 0.0510210304
C  C472  1  0.77900000  0.62200000  0.91890000  0.18 -0.1714668733
C  C473  1  0.73900000  0.65500000  0.89180000  0.18 -0.1588966989
C  C474  1  0.66900000  0.63400000  0.88630000  0.18 0.1000584074
C  C475  1  0.63800000  0.58200000  0.90790000  0.18 -0.0194477744
C  C476  1  0.67800000  0.55000000  0.93500000  0.18 0.0298709073
C  C477  1  0.74900000  0.57000000  0.94050000  0.18 0.0510210304
C  C478  1  0.63300000  0.51300000  0.94410000  0.18 -0.1100108714
C  C479  1  0.62000000  0.55280000  0.91330000  0.18 -0.1023254518
C  C480  1  0.66000000  0.61430000  0.90670000  0.18 0.0595394209
C  C481  1  0.71300000  0.63600000  0.93090000  0.18 -0.0292634997
C  C482  1  0.72600000  0.59500000  0.96180000  0.18 -0.0530646596
C  C483  1  0.68600000  0.53400000  0.96840000  0.18 -0.2403987528
C  C484  1  0.62200000  0.92100000  0.93340000  0.18 -0.0675656218
C  C485  1  0.69400000  0.90000000  0.91720000  0.18 0.0595394209
C  C486  1  0.64610000  0.94030000  0.97530000  0.18 -0.0400898183
C  C487  1  0.68400000  0.02200000  0.96710000  0.18 -0.0400898183
C  C488  1  0.70700000  0.06500000  0.99050000  0.18 -0.0675656218
C  C489  1  0.04760000  0.25680000  0.08500000  0.36 -0.2403987528
C  C490  1  0.99830000  0.25280000  0.05720000  0.36 0.0787913814
C  C491  1  0.95240000  0.74320000  0.08500000  0.36 -0.2403987528
C  C492  1  0.00170000  0.74720000  0.05720000  0.36 0.0787913814
C  C493  1  0.24320000  0.54760000  0.58500000  0.36 -0.2403987528
C  C494  1  0.24720000  0.49830000  0.55720000  0.36 0.0701585677
C  C495  1  0.75680000  0.45240000  0.58500000  0.36 -0.2403987528
C  C496  1  0.75280000  0.50170000  0.55720000  0.36 0.0787913814
C  C497  1  0.45240000  0.75680000  0.41500000  0.36 -0.2403987528
C  C498  1  0.50170000  0.75280000  0.44280000  0.36 0.0787913814
C  C499  1  0.54760000  0.24320000  0.41500000  0.36 -0.2327667655
C  C500  1  0.49830000  0.24720000  0.44280000  0.36 0.0787913814
C  C501  1  0.25680000  0.04760000  0.91500000  0.36 -0.2327667655
C  C502  1  0.25280000  0.99830000  0.94280000  0.36 0.0787913814
C  C503  1  0.74320000  0.95240000  0.91500000  0.36 -0.2327667655
C  C504  1  0.74720000  0.00170000  0.94280000  0.36 0.0701585677
C  C505  1  0.95110000  0.24750000  0.03540000  0.64 0.0787913814
C  C506  1  0.04890000  0.75250000  0.03540000  0.64 0.0787913814
C  C507  1  0.25250000  0.45110000  0.53540000  0.64 0.0787913814
C  C508  1  0.74750000  0.54890000  0.53540000  0.64 0.0787913814
C  C509  1  0.54890000  0.74750000  0.46460000  0.64 0.0787913814
C  C510  1  0.45110000  0.25250000  0.46460000  0.64 0.0787913814
C  C511  1  0.24750000  0.95110000  0.96460000  0.64 0.0787913814
C  C512  1  0.75250000  0.04890000  0.96460000  0.64 0.0787913814
N  N1  1  0.32860000  0.37500000  0.14000000  0.18 -0.1403031716
N  N2  1  0.34590000  0.35200000  0.12550000  0.18 -0.0194477744
N  N3  1  0.26600000  0.32800000  0.21250000  0.18 -0.0912331448
N  N4  1  0.20720000  0.34750000  0.11650000  0.18 -0.1023254518
N  N5  1  0.16190000  0.30530000  0.18460000  0.18 -0.0835617129
N  N6  1  0.28400000  0.34300000  0.19730000  0.18 -0.1588966989
N  N7  1  0.22470000  0.32090000  0.10240000  0.18 -0.1184746952
N  N8  1  0.17750000  0.33100000  0.17330000  0.18 0.0215119809
N  N9  1  0.67140000  0.62500000  0.14000000  0.18 -0.1403031716
N  N10  1  0.65410000  0.64800000  0.12550000  0.18 -0.0194477744
N  N11  1  0.73400000  0.67200000  0.21250000  0.18 -0.0912331448
N  N12  1  0.79280000  0.65250000  0.11650000  0.18 -0.1023254518
N  N13  1  0.83810000  0.69470000  0.18460000  0.18 -0.0835617129
N  N14  1  0.71600000  0.65700000  0.19730000  0.18 -0.1588966989
N  N15  1  0.77530000  0.67910000  0.10240000  0.18 -0.1184746952
N  N16  1  0.82250000  0.66900000  0.17330000  0.18 0.0215119809
N  N17  1  0.12500000  0.82860000  0.64000000  0.18 -0.1403031716
N  N18  1  0.14800000  0.84590000  0.62550000  0.18 -0.0194477744
N  N19  1  0.17200000  0.76600000  0.71250000  0.18 -0.0835617129
N  N20  1  0.15250000  0.70720000  0.61650000  0.18 -0.1100108714
N  N21  1  0.19470000  0.66190000  0.68460000  0.18 -0.0912331448
N  N22  1  0.15700000  0.78400000  0.69730000  0.18 -0.1588966989
N  N23  1  0.17910000  0.72470000  0.60240000  0.18 -0.1184746952
N  N24  1  0.16900000  0.67750000  0.67330000  0.18 0.0215119809
N  N25  1  0.87500000  0.17140000  0.64000000  0.18 -0.1403031716
N  N26  1  0.85200000  0.15410000  0.62550000  0.18 -0.0194477744
N  N27  1  0.82800000  0.23400000  0.71250000  0.18 -0.0835617129
N  N28  1  0.84750000  0.29280000  0.61650000  0.18 -0.1023254518
N  N29  1  0.80530000  0.33810000  0.68460000  0.18 -0.0912331448
N  N30  1  0.84300000  0.21600000  0.69730000  0.18 -0.1588966989
N  N31  1  0.82090000  0.27530000  0.60240000  0.18 -0.1184746952
N  N32  1  0.83100000  0.32250000  0.67330000  0.18 0.0215119809
N  N33  1  0.17140000  0.87500000  0.36000000  0.18 -0.1403031716
N  N34  1  0.15410000  0.85200000  0.37450000  0.18 -0.0194477744
N  N35  1  0.23400000  0.82800000  0.28750000  0.18 -0.0835617129
N  N36  1  0.29280000  0.84750000  0.38350000  0.18 -0.1023254518
N  N37  1  0.33810000  0.80530000  0.31540000  0.18 -0.0835617129
N  N38  1  0.21600000  0.84300000  0.30270000  0.18 -0.1588966989
N  N39  1  0.27530000  0.82090000  0.39760000  0.18 -0.1184746952
N  N40  1  0.32250000  0.83100000  0.32670000  0.18 0.0215119809
N  N41  1  0.82860000  0.12500000  0.36000000  0.18 -0.1403031716
N  N42  1  0.84590000  0.14800000  0.37450000  0.18 -0.0194477744
N  N43  1  0.76600000  0.17200000  0.28750000  0.18 -0.0835617129
N  N44  1  0.70720000  0.15250000  0.38350000  0.18 -0.1023254518
N  N45  1  0.66190000  0.19470000  0.31540000  0.18 -0.0835617129
N  N46  1  0.78400000  0.15700000  0.30270000  0.18 -0.1588966989
N  N47  1  0.72470000  0.17910000  0.39760000  0.18 -0.1184746952
N  N48  1  0.67750000  0.16900000  0.32670000  0.18 0.0215119809
N  N49  1  0.37500000  0.32860000  0.86000000  0.18 -0.1403031716
N  N50  1  0.35200000  0.34590000  0.87450000  0.18 -0.0194477744
N  N51  1  0.32800000  0.26600000  0.78750000  0.18 -0.0835617129
N  N52  1  0.34750000  0.20720000  0.88350000  0.18 -0.1023254518
N  N53  1  0.30530000  0.16190000  0.81540000  0.18 -0.0835617129
N  N54  1  0.34300000  0.28400000  0.80270000  0.18 -0.1588966989
N  N55  1  0.32090000  0.22470000  0.89760000  0.18 -0.1100108714
N  N56  1  0.33100000  0.17750000  0.82670000  0.18 0.0298709073
N  N57  1  0.62500000  0.67140000  0.86000000  0.18 -0.1403031716
N  N58  1  0.64800000  0.65410000  0.87450000  0.18 -0.0194477744
N  N59  1  0.67200000  0.73400000  0.78750000  0.18 -0.0835617129
N  N60  1  0.65250000  0.79280000  0.88350000  0.18 -0.1023254518
N  N61  1  0.69470000  0.83810000  0.81540000  0.18 -0.0835617129
N  N62  1  0.65700000  0.71600000  0.80270000  0.18 -0.1588966989
N  N63  1  0.67910000  0.77530000  0.89760000  0.18 -0.1100108714
N  N64  1  0.66900000  0.82250000  0.82670000  0.18 0.0215119809
N  N65  1  0.91280000  0.22590000  0.02010000  0.36 -0.0675656218
N  N66  1  0.94980000  0.20430000  0.05190000  0.36 -0.0400898183
N  N67  1  0.08720000  0.77410000  0.02010000  0.36 -0.0675656218
N  N68  1  0.05020000  0.79570000  0.05190000  0.36 -0.0400898183
N  N69  1  0.27410000  0.41280000  0.52010000  0.36 -0.0675656218
N  N70  1  0.29570000  0.44980000  0.55190000  0.36 -0.0400898183
N  N71  1  0.72590000  0.58720000  0.52010000  0.36 -0.0675656218
N  N72  1  0.70430000  0.55020000  0.55190000  0.36 -0.0400898183
N  N73  1  0.58720000  0.72590000  0.47990000  0.36 -0.0675656218
N  N74  1  0.55020000  0.70430000  0.44810000  0.36 -0.0400898183
N  N75  1  0.41280000  0.27410000  0.47990000  0.36 -0.0675656218
N  N76  1  0.44980000  0.29570000  0.44810000  0.36 -0.0400898183
N  N77  1  0.22590000  0.91280000  0.97990000  0.36 -0.0675656218
N  N78  1  0.20430000  0.94980000  0.94810000  0.36 -0.0400898183
N  N79  1  0.77410000  0.08720000  0.97990000  0.36 -0.0675656218
N  N80  1  0.79570000  0.05020000  0.94810000  0.36 -0.0400898183
O  O1  1  0.97763000  0.06738000  0.07847000  1.0 -0.9405877994
O  O2  1  0.97820000  0.06536000  0.15072000  1.0 -0.5842404365
O  O3  1  0.86967000  0.10416000  0.03474000  1.0 -0.8746363179
O  O4  1  0.93029000  0.16346000  0.12574000  1.0 -0.5970089839
O  O5  1  0.66072000  0.56294000  0.39756000  1.0 -0.5842404365
O  O6  1  0.32805000  0.30215000  0.41617000  1.0 -0.5842404365
O  O7  1  0.26439000  0.29974000  0.46733000  1.0 -0.5858107897
O  O8  1  0.59477000  0.46649000  0.38444000  1.0 -0.6132278473
O  O9  1  0.02237000  0.93262000  0.07847000  1.0 -0.9405877994
O  O10  1  0.02180000  0.93464000  0.15072000  1.0 -0.5842404365
O  O11  1  0.13033000  0.89584000  0.03474000  1.0 -0.8746363179
O  O12  1  0.06971000  0.83654000  0.12574000  1.0 -0.5970089839
O  O13  1  0.33928000  0.43706000  0.39756000  1.0 -0.5842404365
O  O14  1  0.67195000  0.69785000  0.41617000  1.0 -0.5842404365
O  O15  1  0.73561000  0.70026000  0.46733000  1.0 -0.5858107897
O  O16  1  0.40523000  0.53351000  0.38444000  1.0 -0.6132278473
O  O17  1  0.43262000  0.47763000  0.57847000  1.0 -0.9405877994
O  O18  1  0.43464000  0.47820000  0.65072000  1.0 -0.5858107897
O  O19  1  0.39584000  0.36967000  0.53474000  1.0 -0.8746363179
O  O20  1  0.33654000  0.43029000  0.62574000  1.0 -0.5970089839
O  O21  1  0.93706000  0.16072000  0.89756000  1.0 -0.5842404365
O  O22  1  0.19785000  0.82805000  0.91617000  1.0 -0.5842404365
O  O23  1  0.20026000  0.76439000  0.96733000  1.0 -0.5858107897
O  O24  1  0.03351000  0.09477000  0.88444000  1.0 -0.6132278473
O  O25  1  0.56738000  0.52237000  0.57847000  1.0 -0.9405877994
O  O26  1  0.56536000  0.52180000  0.65072000  1.0 -0.5858107897
O  O27  1  0.60416000  0.63033000  0.53474000  1.0 -0.8746363179
O  O28  1  0.66346000  0.56971000  0.62574000  1.0 -0.5970089839
O  O29  1  0.06294000  0.83928000  0.89756000  1.0 -0.5842404365
O  O30  1  0.80215000  0.17195000  0.91617000  1.0 -0.5842404365
O  O31  1  0.79974000  0.23561000  0.96733000  1.0 -0.5842404365
O  O32  1  0.96649000  0.90523000  0.88444000  1.0 -0.6132278473
O  O33  1  0.52237000  0.56738000  0.42153000  1.0 -0.9405877994
O  O34  1  0.52180000  0.56536000  0.34928000  1.0 -0.5842404365
O  O35  1  0.63033000  0.60416000  0.46526000  1.0 -0.8746363179
O  O36  1  0.56971000  0.66346000  0.37426000  1.0 -0.5970089839
O  O37  1  0.83928000  0.06294000  0.10244000  1.0 -0.5842404365
O  O38  1  0.17195000  0.80215000  0.08383000  1.0 -0.5858107897
O  O39  1  0.23561000  0.79974000  0.03267000  1.0 -0.5858107897
O  O40  1  0.90523000  0.96649000  0.11556000  1.0 -0.6132278473
O  O41  1  0.47763000  0.43262000  0.42153000  1.0 -0.9405877994
O  O42  1  0.47820000  0.43464000  0.34928000  1.0 -0.5842404365
O  O43  1  0.36967000  0.39584000  0.46526000  1.0 -0.8746363179
O  O44  1  0.43029000  0.33654000  0.37426000  1.0 -0.5970089839
O  O45  1  0.16072000  0.93706000  0.10244000  1.0 -0.5842404365
O  O46  1  0.82805000  0.19785000  0.08383000  1.0 -0.5842404365
O  O47  1  0.76439000  0.20026000  0.03267000  1.0 -0.5842404365
O  O48  1  0.09477000  0.03351000  0.11556000  1.0 -0.6132278473
O  O49  1  0.06738000  0.97763000  0.92153000  1.0 -0.9405877994
O  O50  1  0.06536000  0.97820000  0.84928000  1.0 -0.5858107897
O  O51  1  0.10416000  0.86967000  0.96526000  1.0 -0.8746363179
O  O52  1  0.16346000  0.93029000  0.87426000  1.0 -0.5970089839
O  O53  1  0.56294000  0.66072000  0.60244000  1.0 -0.5842404365
O  O54  1  0.30215000  0.32805000  0.58383000  1.0 -0.5842404365
O  O55  1  0.29974000  0.26439000  0.53267000  1.0 -0.5858107897
O  O56  1  0.46649000  0.59477000  0.61556000  1.0 -0.6132278473
O  O57  1  0.93262000  0.02237000  0.92153000  1.0 -0.9405877994
O  O58  1  0.93464000  0.02180000  0.84928000  1.0 -0.5858107897
O  O59  1  0.89584000  0.13033000  0.96526000  1.0 -0.8746363179
O  O60  1  0.83654000  0.06971000  0.87426000  1.0 -0.5970089839
O  O61  1  0.43706000  0.33928000  0.60244000  1.0 -0.5842404365
O  O62  1  0.69785000  0.67195000  0.58383000  1.0 -0.5842404365
O  O63  1  0.70026000  0.73561000  0.53267000  1.0 -0.5858107897
O  O64  1  0.53351000  0.40523000  0.61556000  1.0 -0.6132278473
O  O65  1  0.96690000  0.20760000  0.06280000  0.64 -0.0530646596
O  O66  1  0.90110000  0.24310000  0.01250000  0.64 -0.0675656218
O  O67  1  0.03310000  0.79240000  0.06280000  0.64 -0.0530646596
O  O68  1  0.09890000  0.75690000  0.01250000  0.64 -0.0675656218
O  O69  1  0.29240000  0.46690000  0.56280000  0.64 -0.0530646596
O  O70  1  0.25690000  0.40110000  0.51250000  0.64 -0.0675656218
O  O71  1  0.70760000  0.53310000  0.56280000  0.64 -0.0530646596
O  O72  1  0.74310000  0.59890000  0.51250000  0.64 -0.0675656218
O  O73  1  0.53310000  0.70760000  0.43720000  0.64 -0.0530646596
O  O74  1  0.59890000  0.74310000  0.48750000  0.64 -0.0675656218
O  O75  1  0.46690000  0.29240000  0.43720000  0.64 -0.0530646596
O  O76  1  0.40110000  0.25690000  0.48750000  0.64 -0.0675656218
O  O77  1  0.20760000  0.96690000  0.93720000  0.64 -0.0530646596
O  O78  1  0.24310000  0.90110000  0.98750000  0.64 -0.0675656218
O  O79  1  0.79240000  0.03310000  0.93720000  0.64 -0.0530646596
O  O80  1  0.75690000  0.09890000  0.98750000  0.64 -0.0675656218
