# DDEC6 charges by PACMAN v1.1 (https://github.com/mtap-research/PACMAN-charge/)
data_2017[Al][skl]3[FSR]5
_chemical_formula_sum              "Al16 H168 C272 O80"
_cell_length_a       19.215
_cell_length_b       19.215
_cell_length_c       36.779
_cell_angle_alpha    90
_cell_angle_beta     90
_cell_angle_gamma    90

_symmetry_space_group_name_H-M    "P 1"
_symmetry_Int_Tables_number       1

loop_
  _symmetry_equiv_pos_as_xyz
  'x, y, z'

loop_
  _atom_site_type_symbol
  _atom_site_label
  _atom_site_symmetry_multiplicity
  _atom_site_fract_x
  _atom_site_fract_y
  _atom_site_fract_z
  _atom_site_occupancy
  _atom_site_charge
Al  Al1       1.0  0.66147  0.33853  0.50000  1.0000 1.6558812289
Al  Al2       1.0  0.16147  0.16147  0.00000  1.0000 1.6558812289
Al  Al3       1.0  0.33853  0.66147  0.50000  1.0000 1.6558812289
Al  Al4       1.0  0.83853  0.83853  0.00000  1.0000 1.6558812289
Al  Al5       1.0  0.62401  0.39911  0.41739  1.0000 1.6435103104
Al  Al6       1.0  0.10089  0.12401  0.91739  1.0000 1.6435103104
Al  Al7       1.0  0.37599  0.60089  0.41739  1.0000 1.6435103104
Al  Al8       1.0  0.89911  0.87599  0.91739  1.0000 1.6435103104
Al  Al9       1.0  0.12401  0.10089  0.08261  1.0000 1.6435103104
Al  Al10      1.0  0.87599  0.89911  0.08261  1.0000 1.6435103104
Al  Al11      1.0  0.39911  0.62401  0.58261  1.0000 1.6450839071
Al  Al12      1.0  0.60089  0.37599  0.58261  1.0000 1.6450839071
Al  Al13      1.0  0.50000  0.50000  0.38300  1.0000 1.6450839071
Al  Al14      1.0  0.00000  0.00000  0.88300  1.0000 1.6450839071
Al  Al15      1.0  0.00000  0.00000  0.11700  1.0000 1.6435103104
Al  Al16      1.0  0.50000  0.50000  0.61700  1.0000 1.6450839071
H   H1        1.0  0.57000  0.50590  0.43760  1.0000 0.4222814283
H   H2        1.0  0.99410  0.07000  0.93760  1.0000 0.4222814283
H   H3        1.0  0.43000  0.49410  0.43760  1.0000 0.4222814283
H   H4        1.0  0.00590  0.93000  0.93760  1.0000 0.4222814283
H   H5        1.0  0.07000  0.99410  0.06240  1.0000 0.4222814283
H   H6        1.0  0.93000  0.00590  0.06240  1.0000 0.4222814283
H   H7        1.0  0.50590  0.57000  0.56240  1.0000 0.4222814283
H   H8        1.0  0.49410  0.43000  0.56240  1.0000 0.4222814283
H   H9        1.0  0.55510  0.37710  0.47130  1.0000 0.4222814283
H   H10       1.0  0.12290  0.05510  0.97130  1.0000 0.4222814283
H   H11       1.0  0.44490  0.62290  0.47130  1.0000 0.4222814283
H   H12       1.0  0.87710  0.94490  0.97130  1.0000 0.4222814283
H   H13       1.0  0.05510  0.12290  0.02870  1.0000 0.4222814283
H   H14       1.0  0.94490  0.87710  0.02870  1.0000 0.4222814283
H   H15       1.0  0.37710  0.55510  0.52870  1.0000 0.4222814283
H   H16       1.0  0.62290  0.44490  0.52870  1.0000 0.4222814283
H   H17       1.0  0.80970  0.64490  0.17030  1.0000 0.1117139348
H   H18       1.0  0.85510  0.30970  0.67030  1.0000 0.1117139348
H   H19       1.0  0.19030  0.35510  0.17030  1.0000 0.1117139348
H   H20       1.0  0.14490  0.69030  0.67030  1.0000 0.1117139348
H   H21       1.0  0.30970  0.85510  0.32970  1.0000 0.1117139348
H   H22       1.0  0.69030  0.14490  0.32970  1.0000 0.1117139348
H   H23       1.0  0.64490  0.80970  0.82970  1.0000 0.1117139348
H   H24       1.0  0.35510  0.19030  0.82970  1.0000 0.1117139348
H   H25       1.0  0.80440  0.63380  0.04500  1.0000 0.1298925844
H   H26       1.0  0.86620  0.30440  0.54500  1.0000 0.1298925844
H   H27       1.0  0.19560  0.36620  0.04500  1.0000 0.1298925844
H   H28       1.0  0.13380  0.69560  0.54500  1.0000 0.1298925844
H   H29       1.0  0.30440  0.86620  0.45500  1.0000 0.1298925844
H   H30       1.0  0.69560  0.13380  0.45500  1.0000 0.1298925844
H   H31       1.0  0.63380  0.80440  0.95500  1.0000 0.1298925844
H   H32       1.0  0.36620  0.19560  0.95500  1.0000 0.1298925844
H   H33       1.0  0.81170  0.74490  0.13780  1.0000 0.1298925844
H   H34       1.0  0.75510  0.31170  0.63780  1.0000 0.1298925844
H   H35       1.0  0.18830  0.25510  0.13780  1.0000 0.1298925844
H   H36       1.0  0.24490  0.68830  0.63780  1.0000 0.1298925844
H   H37       1.0  0.31170  0.75510  0.36220  1.0000 0.1298925844
H   H38       1.0  0.68830  0.24490  0.36220  1.0000 0.1298925844
H   H39       1.0  0.74490  0.81170  0.86220  1.0000 0.1298925844
H   H40       1.0  0.25510  0.18830  0.86220  1.0000 0.1298925844
H   H41       1.0  0.80500  0.53280  0.07820  1.0000 0.1200696128
H   H42       1.0  0.96720  0.30500  0.57820  1.0000 0.1200696128
H   H43       1.0  0.19500  0.46720  0.07820  1.0000 0.1200696128
H   H44       1.0  0.03280  0.69500  0.57820  1.0000 0.1200696128
H   H45       1.0  0.30500  0.96720  0.42180  1.0000 0.1200696128
H   H46       1.0  0.69500  0.03280  0.42180  1.0000 0.1200696128
H   H47       1.0  0.53280  0.80500  0.92180  1.0000 0.1200696128
H   H48       1.0  0.46720  0.19500  0.92180  1.0000 0.1200696128
H   H49       1.0  0.59260  0.51420  0.28090  1.0000 0.1298925844
H   H50       1.0  0.98580  0.09260  0.78090  1.0000 0.1298925844
H   H51       1.0  0.40740  0.48580  0.28090  1.0000 0.1298925844
H   H52       1.0  0.01420  0.90740  0.78090  1.0000 0.1298925844
H   H53       1.0  0.09260  0.98580  0.21910  1.0000 0.1298925844
H   H54       1.0  0.90740  0.01420  0.21910  1.0000 0.1298925844
H   H55       1.0  0.51420  0.59260  0.71910  1.0000 0.1298925844
H   H56       1.0  0.48580  0.40740  0.71910  1.0000 0.1298925844
H   H57       1.0  0.87160  0.16220  0.14880  1.0000 0.1298925844
H   H58       1.0  0.33780  0.37160  0.64880  1.0000 0.1298925844
H   H59       1.0  0.12840  0.83780  0.14880  1.0000 0.1298925844
H   H60       1.0  0.66220  0.62840  0.64880  1.0000 0.1298925844
H   H61       1.0  0.37160  0.33780  0.35120  1.0000 0.1298925844
H   H62       1.0  0.62840  0.66220  0.35120  1.0000 0.1298925844
H   H63       1.0  0.16220  0.87160  0.85120  1.0000 0.1298925844
H   H64       1.0  0.83780  0.12840  0.85120  1.0000 0.1298925844
H   H65       1.0  0.02240  0.28690  0.11150  1.0000 0.1200696128
H   H66       1.0  0.21310  0.52240  0.61150  1.0000 0.1200696128
H   H67       1.0  0.97760  0.71310  0.11150  1.0000 0.1200696128
H   H68       1.0  0.78690  0.47760  0.61150  1.0000 0.1200696128
H   H69       1.0  0.52240  0.21310  0.38850  1.0000 0.1200696128
H   H70       1.0  0.47760  0.78690  0.38850  1.0000 0.1200696128
H   H71       1.0  0.28690  0.02240  0.88850  1.0000 0.1200696128
H   H72       1.0  0.71310  0.97760  0.88850  1.0000 0.1200696128
H   H73       1.0  0.73750  0.38930  0.32250  1.0000 0.1298925844
H   H74       1.0  0.11070  0.23750  0.82250  1.0000 0.1298925844
H   H75       1.0  0.26250  0.61070  0.32250  1.0000 0.1298925844
H   H76       1.0  0.88930  0.76250  0.82250  1.0000 0.1298925844
H   H77       1.0  0.23750  0.11070  0.17750  1.0000 0.1298925844
H   H78       1.0  0.76250  0.88930  0.17750  1.0000 0.1298925844
H   H79       1.0  0.38930  0.73750  0.67750  1.0000 0.1298925844
H   H80       1.0  0.61070  0.26250  0.67750  1.0000 0.1298925844
H   H81       1.0  0.79650  0.38760  0.26780  1.0000 0.1117139348
H   H82       1.0  0.11240  0.29650  0.76780  1.0000 0.1117139348
H   H83       1.0  0.20350  0.61240  0.26780  1.0000 0.1117139348
H   H84       1.0  0.88760  0.70350  0.76780  1.0000 0.1117139348
H   H85       1.0  0.29650  0.11240  0.23220  1.0000 0.1117139348
H   H86       1.0  0.70350  0.88760  0.23220  1.0000 0.1117139348
H   H87       1.0  0.38760  0.79650  0.73220  1.0000 0.1117139348
H   H88       1.0  0.61240  0.20350  0.73220  1.0000 0.1117139348
H   H89       1.0  0.64700  0.50910  0.22560  1.0000 0.1117139348
H   H90       1.0  0.99090  0.14700  0.72560  1.0000 0.1117139348
H   H91       1.0  0.35300  0.49090  0.22560  1.0000 0.1117139348
H   H92       1.0  0.00910  0.85300  0.72560  1.0000 0.1117139348
H   H93       1.0  0.14700  0.99090  0.27440  1.0000 0.1117139348
H   H94       1.0  0.85300  0.00910  0.27440  1.0000 0.1117139348
H   H95       1.0  0.50910  0.64700  0.77440  1.0000 0.1117139348
H   H96       1.0  0.49090  0.35300  0.77440  1.0000 0.1117139348
H   H97       1.0  0.74500  0.55230  0.19100  1.0000 0.1117139348
H   H98       1.0  0.94770  0.24500  0.69100  1.0000 0.1117139348
H   H99       1.0  0.25500  0.44770  0.19100  1.0000 0.1117139348
H   H100      1.0  0.05230  0.75500  0.69100  1.0000 0.1117139348
H   H101      1.0  0.24500  0.94770  0.30900  1.0000 0.1117139348
H   H102      1.0  0.75500  0.05230  0.30900  1.0000 0.1117139348
H   H103      1.0  0.55230  0.74500  0.80900  1.0000 0.1117139348
H   H104      1.0  0.44770  0.25500  0.80900  1.0000 0.1117139348
H   H105      1.0  0.95400  0.38170  0.12430  1.0000 0.1117139348
H   H106      1.0  0.11830  0.45400  0.62430  1.0000 0.1117139348
H   H107      1.0  0.04600  0.61830  0.12430  1.0000 0.1117139348
H   H108      1.0  0.88170  0.54600  0.62430  1.0000 0.1117139348
H   H109      1.0  0.45400  0.11830  0.37570  1.0000 0.1117139348
H   H110      1.0  0.54600  0.88170  0.37570  1.0000 0.1117139348
H   H111      1.0  0.38170  0.95400  0.87570  1.0000 0.1117139348
H   H112      1.0  0.61830  0.04600  0.87570  1.0000 0.1117139348
H   H113      1.0  0.80780  0.26000  0.16480  1.0000 0.1117139348
H   H114      1.0  0.24000  0.30780  0.66480  1.0000 0.1117139348
H   H115      1.0  0.19220  0.74000  0.16480  1.0000 0.1117139348
H   H116      1.0  0.76000  0.69220  0.66480  1.0000 0.1117139348
H   H117      1.0  0.30780  0.24000  0.33520  1.0000 0.1117139348
H   H118      1.0  0.69220  0.76000  0.33520  1.0000 0.1117139348
H   H119      1.0  0.26000  0.80780  0.83520  1.0000 0.1117139348
H   H120      1.0  0.74000  0.19220  0.83520  1.0000 0.1117139348
H   H121      1.0  0.86310  0.45330  0.11680  1.0000 0.1117139348
H   H122      1.0  0.04670  0.36310  0.61680  1.0000 0.1117139348
H   H123      1.0  0.13690  0.54670  0.11680  1.0000 0.1117139348
H   H124      1.0  0.95330  0.63690  0.61680  1.0000 0.1117139348
H   H125      1.0  0.36310  0.04670  0.38320  1.0000 0.1117139348
H   H126      1.0  0.63690  0.95330  0.38320  1.0000 0.1117139348
H   H127      1.0  0.45330  0.86310  0.88320  1.0000 0.1117139348
H   H128      1.0  0.54670  0.13690  0.88320  1.0000 0.1117139348
H   H129      1.0  0.80550  0.35300  0.20820  1.0000 0.1117139348
H   H130      1.0  0.14700  0.30550  0.70820  1.0000 0.1117139348
H   H131      1.0  0.19450  0.64700  0.20820  1.0000 0.1117139348
H   H132      1.0  0.85300  0.69450  0.70820  1.0000 0.1117139348
H   H133      1.0  0.30550  0.14700  0.29180  1.0000 0.1117139348
H   H134      1.0  0.69450  0.85300  0.29180  1.0000 0.1117139348
H   H135      1.0  0.35300  0.80550  0.79180  1.0000 0.1117139348
H   H136      1.0  0.64700  0.19450  0.79180  1.0000 0.1117139348
H   H137      1.0  0.81930  0.49380  0.40270  1.0000 0.1298925844
H   H138      1.0  0.00620  0.31930  0.90270  1.0000 0.1298925844
H   H139      1.0  0.18070  0.50620  0.40270  1.0000 0.1298925844
H   H140      1.0  0.99380  0.68070  0.90270  1.0000 0.1298925844
H   H141      1.0  0.31930  0.00620  0.09730  1.0000 0.1298925844
H   H142      1.0  0.68070  0.99380  0.09730  1.0000 0.1298925844
H   H143      1.0  0.49380  0.81930  0.59730  1.0000 0.1298925844
H   H144      1.0  0.50620  0.18070  0.59730  1.0000 0.1298925844
H   H145      1.0  0.93800  0.52040  0.40080  1.0000 0.1117139348
H   H146      1.0  0.97960  0.43800  0.90080  1.0000 0.1117139348
H   H147      1.0  0.06200  0.47960  0.40080  1.0000 0.1117139348
H   H148      1.0  0.02040  0.56200  0.90080  1.0000 0.1117139348
H   H149      1.0  0.43800  0.97960  0.09920  1.0000 0.1117139348
H   H150      1.0  0.56200  0.02040  0.09920  1.0000 0.1117139348
H   H151      1.0  0.52040  0.93800  0.59920  1.0000 0.1117139348
H   H152      1.0  0.47960  0.06200  0.59920  1.0000 0.1117139348
H   H153      1.0  0.84760  0.42270  0.50370  1.0000 0.1298925844
H   H154      1.0  0.07730  0.34760  0.00370  1.0000 0.1298925844
H   H155      1.0  0.15240  0.57730  0.50370  1.0000 0.1298925844
H   H156      1.0  0.92270  0.65240  0.00370  1.0000 0.1298925844
H   H157      1.0  0.34760  0.07730  0.99630  1.0000 0.1298925844
H   H158      1.0  0.65240  0.92270  0.99630  1.0000 0.1298925844
H   H159      1.0  0.42270  0.84760  0.49630  1.0000 0.1298925844
H   H160      1.0  0.57730  0.15240  0.49630  1.0000 0.1298925844
H   H161      1.0  0.96140  0.46060  0.50240  1.0000 0.1117139348
H   H162      1.0  0.03940  0.46140  0.00240  1.0000 0.1117139348
H   H163      1.0  0.03860  0.53940  0.50240  1.0000 0.1117139348
H   H164      1.0  0.96060  0.53860  0.00240  1.0000 0.1117139348
H   H165      1.0  0.46140  0.03940  0.99760  1.0000 0.1117139348
H   H166      1.0  0.53860  0.96060  0.99760  1.0000 0.1117139348
H   H167      1.0  0.46060  0.96140  0.49760  1.0000 0.1117139348
H   H168      1.0  0.53940  0.03860  0.49760  1.0000 0.1117139348
C   C1        1.0  0.62120  0.45100  0.34224  1.0000 0.6211525305
C   C2        1.0  0.04900  0.12120  0.84224  1.0000 0.6211525305
C   C3        1.0  0.37880  0.54900  0.34224  1.0000 0.6211525305
C   C4        1.0  0.95100  0.87880  0.84224  1.0000 0.6211525305
C   C5        1.0  0.12120  0.04900  0.15776  1.0000 0.6211525305
C   C6        1.0  0.87880  0.95100  0.15776  1.0000 0.6211525305
C   C7        1.0  0.45100  0.62120  0.65776  1.0000 0.6211525305
C   C8        1.0  0.54900  0.37880  0.65776  1.0000 0.6211525305
C   C9        1.0  0.80690  0.64250  0.14508  1.0000 -0.1314431345
C   C10       1.0  0.85750  0.30690  0.64508  1.0000 -0.1314431345
C   C11       1.0  0.19310  0.35750  0.14508  1.0000 -0.1314431345
C   C12       1.0  0.14250  0.69310  0.64508  1.0000 -0.1314431345
C   C13       1.0  0.30690  0.85750  0.35492  1.0000 -0.1314431345
C   C14       1.0  0.69310  0.14250  0.35492  1.0000 -0.1314431345
C   C15       1.0  0.64250  0.80690  0.85492  1.0000 -0.1314431345
C   C16       1.0  0.35750  0.19310  0.85492  1.0000 -0.1314431345
C   C17       1.0  0.80430  0.63590  0.07027  1.0000 -0.1002535997
C   C18       1.0  0.86410  0.30430  0.57027  1.0000 -0.1002535997
C   C19       1.0  0.19570  0.36410  0.07027  1.0000 -0.1002535997
C   C20       1.0  0.13590  0.69570  0.57027  1.0000 -0.1002535997
C   C21       1.0  0.30430  0.86410  0.42973  1.0000 -0.1002535997
C   C22       1.0  0.69570  0.13590  0.42973  1.0000 -0.1002535997
C   C23       1.0  0.63590  0.80430  0.92973  1.0000 -0.1002535997
C   C24       1.0  0.36410  0.19570  0.92973  1.0000 -0.1002535997
C   C25       1.0  0.99200  0.15150  0.11471  1.0000 0.6281115963
C   C26       1.0  0.34850  0.49200  0.61471  1.0000 0.6281115963
C   C27       1.0  0.00800  0.84850  0.11471  1.0000 0.6281115963
C   C28       1.0  0.65150  0.50800  0.61471  1.0000 0.6281115963
C   C29       1.0  0.49200  0.34850  0.38529  1.0000 0.6281115963
C   C30       1.0  0.50800  0.65150  0.38529  1.0000 0.6281115963
C   C31       1.0  0.15150  0.99200  0.88529  1.0000 0.6281115963
C   C32       1.0  0.84850  0.00800  0.88529  1.0000 0.6281115963
C   C33       1.0  0.80840  0.70240  0.12580  1.0000 -0.0897655996
C   C34       1.0  0.79760  0.30840  0.62580  1.0000 -0.0897655996
C   C35       1.0  0.19160  0.29760  0.12580  1.0000 -0.0897655996
C   C36       1.0  0.20240  0.69160  0.62580  1.0000 -0.0897655996
C   C37       1.0  0.30840  0.79760  0.37420  1.0000 -0.0897655996
C   C38       1.0  0.69160  0.20240  0.37420  1.0000 -0.0897655996
C   C39       1.0  0.70240  0.80840  0.87420  1.0000 -0.0897655996
C   C40       1.0  0.29760  0.19160  0.87420  1.0000 -0.0897655996
C   C41       1.0  0.80380  0.57550  0.09010  1.0000 -0.1508139087
C   C42       1.0  0.92450  0.30380  0.59010  1.0000 -0.1508139087
C   C43       1.0  0.19620  0.42450  0.09010  1.0000 -0.1508139087
C   C44       1.0  0.07550  0.69620  0.59010  1.0000 -0.1508139087
C   C45       1.0  0.30380  0.92450  0.40990  1.0000 -0.1508139087
C   C46       1.0  0.69620  0.07550  0.40990  1.0000 -0.1508139087
C   C47       1.0  0.57550  0.80380  0.90990  1.0000 -0.1508139087
C   C48       1.0  0.42450  0.19620  0.90990  1.0000 -0.1508139087
C   C49       1.0  0.80480  0.70050  0.08767  1.0000 -0.0469419192
C   C50       1.0  0.79950  0.30480  0.58767  1.0000 -0.0469419192
C   C51       1.0  0.19520  0.29950  0.08767  1.0000 -0.0469419192
C   C52       1.0  0.20050  0.69520  0.58767  1.0000 -0.0469419192
C   C53       1.0  0.30480  0.79950  0.41233  1.0000 -0.0469419192
C   C54       1.0  0.69520  0.20050  0.41233  1.0000 -0.0469419192
C   C55       1.0  0.70050  0.80480  0.91233  1.0000 -0.0469419192
C   C56       1.0  0.29950  0.19520  0.91233  1.0000 -0.0469419192
C   C57       1.0  0.80990  0.76720  0.06760  1.0000 0.6211525305
C   C58       1.0  0.73280  0.30990  0.56760  1.0000 0.6211525305
C   C59       1.0  0.19010  0.23280  0.06760  1.0000 0.6211525305
C   C60       1.0  0.26720  0.69010  0.56760  1.0000 0.6211525305
C   C61       1.0  0.30990  0.73280  0.43240  1.0000 0.6211525305
C   C62       1.0  0.69010  0.26720  0.43240  1.0000 0.6211525305
C   C63       1.0  0.76720  0.80990  0.93240  1.0000 0.6211525305
C   C64       1.0  0.23280  0.19010  0.93240  1.0000 0.6211525305
C   C65       1.0  0.95350  0.21390  0.12637  1.0000 -0.0608259225
C   C66       1.0  0.28610  0.45350  0.62637  1.0000 -0.0608259225
C   C67       1.0  0.04650  0.78610  0.12637  1.0000 -0.0608259225
C   C68       1.0  0.71390  0.54650  0.62637  1.0000 -0.0608259225
C   C69       1.0  0.45350  0.28610  0.37363  1.0000 -0.0608259225
C   C70       1.0  0.54650  0.71390  0.37363  1.0000 -0.0608259225
C   C71       1.0  0.21390  0.95350  0.87363  1.0000 -0.0608259225
C   C72       1.0  0.78610  0.04650  0.87363  1.0000 -0.0608259225
C   C73       1.0  0.63280  0.48770  0.27832  1.0000 -0.0897655996
C   C74       1.0  0.01230  0.13280  0.77832  1.0000 -0.0897655996
C   C75       1.0  0.36720  0.51230  0.27832  1.0000 -0.0897655996
C   C76       1.0  0.98770  0.86720  0.77832  1.0000 -0.0897655996
C   C77       1.0  0.13280  0.01230  0.22168  1.0000 -0.0897655996
C   C78       1.0  0.86720  0.98770  0.22168  1.0000 -0.0897655996
C   C79       1.0  0.48770  0.63280  0.72168  1.0000 -0.0897655996
C   C80       1.0  0.51230  0.36720  0.72168  1.0000 -0.0897655996
C   C81       1.0  0.80150  0.57790  0.12899  1.0000 0.0802603239
C   C82       1.0  0.92210  0.30150  0.62899  1.0000 0.0802603239
C   C83       1.0  0.19850  0.42210  0.12899  1.0000 0.0802603239
C   C84       1.0  0.07790  0.69850  0.62899  1.0000 0.0802603239
C   C85       1.0  0.30150  0.92210  0.37101  1.0000 0.0802603239
C   C86       1.0  0.69850  0.07790  0.37101  1.0000 0.0802603239
C   C87       1.0  0.57790  0.80150  0.87101  1.0000 0.0802603239
C   C88       1.0  0.42210  0.19850  0.87101  1.0000 0.0802603239
C   C89       1.0  0.72870  0.45020  0.24058  1.0000 0.0802603239
C   C90       1.0  0.04980  0.22870  0.74058  1.0000 0.0802603239
C   C91       1.0  0.27130  0.54980  0.24058  1.0000 0.0802603239
C   C92       1.0  0.95020  0.77130  0.74058  1.0000 0.0802603239
C   C93       1.0  0.22870  0.04980  0.25942  1.0000 0.0802603239
C   C94       1.0  0.77130  0.95020  0.25942  1.0000 0.0802603239
C   C95       1.0  0.45020  0.72870  0.75942  1.0000 0.0802603239
C   C96       1.0  0.54980  0.27130  0.75942  1.0000 0.0802603239
C   C97       1.0  0.88910  0.20630  0.14401  1.0000 -0.0897655996
C   C98       1.0  0.29370  0.38910  0.64401  1.0000 -0.0897655996
C   C99       1.0  0.11090  0.79370  0.14401  1.0000 -0.0897655996
C   C100      1.0  0.70630  0.61090  0.64401  1.0000 -0.0897655996
C   C101      1.0  0.38910  0.29370  0.35599  1.0000 -0.0897655996
C   C102      1.0  0.61090  0.70630  0.35599  1.0000 -0.0897655996
C   C103      1.0  0.20630  0.88910  0.85599  1.0000 -0.0897655996
C   C104      1.0  0.79370  0.11090  0.85599  1.0000 -0.0897655996
C   C105      1.0  0.76780  0.44960  0.20536  1.0000 0.0802603239
C   C106      1.0  0.05040  0.26780  0.70536  1.0000 0.0802603239
C   C107      1.0  0.23220  0.55040  0.20536  1.0000 0.0802603239
C   C108      1.0  0.94960  0.73220  0.70536  1.0000 0.0802603239
C   C109      1.0  0.26780  0.05040  0.29464  1.0000 0.0802603239
C   C110      1.0  0.73220  0.94960  0.29464  1.0000 0.0802603239
C   C111      1.0  0.44960  0.76780  0.79464  1.0000 0.0802603239
C   C112      1.0  0.55040  0.23220  0.79464  1.0000 0.0802603239
C   C113      1.0  0.65800  0.45050  0.30765  1.0000 -0.082162301
C   C114      1.0  0.04950  0.15800  0.80765  1.0000 -0.082162301
C   C115      1.0  0.34200  0.54950  0.30765  1.0000 -0.082162301
C   C116      1.0  0.95050  0.84200  0.80765  1.0000 -0.082162301
C   C117      1.0  0.15800  0.04950  0.19235  1.0000 -0.082162301
C   C118      1.0  0.84200  0.95050  0.19235  1.0000 -0.082162301
C   C119      1.0  0.45050  0.65800  0.69235  1.0000 -0.082162301
C   C120      1.0  0.54950  0.34200  0.69235  1.0000 -0.082162301
C   C121      1.0  0.97830  0.28030  0.12140  1.0000 -0.0897655996
C   C122      1.0  0.21970  0.47830  0.62140  1.0000 -0.0897655996
C   C123      1.0  0.02170  0.71970  0.12140  1.0000 -0.0897655996
C   C124      1.0  0.78030  0.52170  0.62140  1.0000 -0.0897655996
C   C125      1.0  0.47830  0.21970  0.37860  1.0000 -0.0897655996
C   C126      1.0  0.52170  0.78030  0.37860  1.0000 -0.0897655996
C   C127      1.0  0.28030  0.97830  0.87860  1.0000 -0.0897655996
C   C128      1.0  0.71970  0.02170  0.87860  1.0000 -0.0897655996
C   C129      1.0  0.71950  0.41400  0.30290  1.0000 -0.082162301
C   C130      1.0  0.08600  0.21950  0.80290  1.0000 -0.082162301
C   C131      1.0  0.28050  0.58600  0.30290  1.0000 -0.082162301
C   C132      1.0  0.91400  0.78050  0.80290  1.0000 -0.082162301
C   C133      1.0  0.21950  0.08600  0.19710  1.0000 -0.082162301
C   C134      1.0  0.78050  0.91400  0.19710  1.0000 -0.082162301
C   C135      1.0  0.41400  0.71950  0.69710  1.0000 -0.082162301
C   C136      1.0  0.58600  0.28050  0.69710  1.0000 -0.082162301
C   C137      1.0  0.75550  0.41280  0.27005  1.0000 -0.1508139087
C   C138      1.0  0.08720  0.25550  0.77005  1.0000 -0.1508139087
C   C139      1.0  0.24450  0.58720  0.27005  1.0000 -0.1508139087
C   C140      1.0  0.91280  0.74450  0.77005  1.0000 -0.1508139087
C   C141      1.0  0.25550  0.08720  0.22995  1.0000 -0.1508139087
C   C142      1.0  0.74450  0.91280  0.22995  1.0000 -0.1508139087
C   C143      1.0  0.41280  0.75550  0.72995  1.0000 -0.1508139087
C   C144      1.0  0.58720  0.24450  0.72995  1.0000 -0.1508139087
C   C145      1.0  0.87980  0.33170  0.14882  1.0000 0.0641176669
C   C146      1.0  0.16830  0.37980  0.64882  1.0000 0.0641176669
C   C147      1.0  0.12020  0.66830  0.14882  1.0000 0.0641176669
C   C148      1.0  0.83170  0.62020  0.64882  1.0000 0.0641176669
C   C149      1.0  0.37980  0.16830  0.35118  1.0000 0.0641176669
C   C150      1.0  0.62020  0.83170  0.35118  1.0000 0.0641176669
C   C151      1.0  0.33170  0.87980  0.85118  1.0000 0.0641176669
C   C152      1.0  0.66830  0.12020  0.85118  1.0000 0.0641176669
C   C153      1.0  0.66640  0.48590  0.24528  1.0000 -0.1508139087
C   C154      1.0  0.01410  0.16640  0.74528  1.0000 -0.1508139087
C   C155      1.0  0.33360  0.51410  0.24528  1.0000 -0.1508139087
C   C156      1.0  0.98590  0.83360  0.74528  1.0000 -0.1508139087
C   C157      1.0  0.16640  0.01410  0.25472  1.0000 -0.1508139087
C   C158      1.0  0.83360  0.98590  0.25472  1.0000 -0.1508139087
C   C159      1.0  0.48590  0.66640  0.75472  1.0000 -0.1508139087
C   C160      1.0  0.51410  0.33360  0.75472  1.0000 -0.1508139087
C   C161      1.0  0.76800  0.51240  0.18326  1.0000 -0.2096914912
C   C162      1.0  0.98760  0.26800  0.68326  1.0000 -0.2096914912
C   C163      1.0  0.23200  0.48760  0.18326  1.0000 -0.2096914912
C   C164      1.0  0.01240  0.73200  0.68326  1.0000 -0.2096914912
C   C165      1.0  0.26800  0.98760  0.31674  1.0000 -0.2096914912
C   C166      1.0  0.73200  0.01240  0.31674  1.0000 -0.2096914912
C   C167      1.0  0.51240  0.76800  0.81674  1.0000 -0.2096914912
C   C168      1.0  0.48760  0.23200  0.81674  1.0000 -0.2096914912
C   C169      1.0  0.93860  0.33760  0.13086  1.0000 -0.1314431345
C   C170      1.0  0.16240  0.43860  0.63086  1.0000 -0.1314431345
C   C171      1.0  0.06140  0.66240  0.13086  1.0000 -0.1314431345
C   C172      1.0  0.83760  0.56140  0.63086  1.0000 -0.1314431345
C   C173      1.0  0.43860  0.16240  0.36914  1.0000 -0.1314431345
C   C174      1.0  0.56140  0.83760  0.36914  1.0000 -0.1314431345
C   C175      1.0  0.33760  0.93860  0.86914  1.0000 -0.1314431345
C   C176      1.0  0.66240  0.06140  0.86914  1.0000 -0.1314431345
C   C177      1.0  0.84030  0.39190  0.16002  1.0000 0.0861839766
C   C178      1.0  0.10810  0.34030  0.66002  1.0000 0.0861839766
C   C179      1.0  0.15970  0.60810  0.16002  1.0000 0.0802603239
C   C180      1.0  0.89190  0.65970  0.66002  1.0000 0.0861839766
C   C181      1.0  0.34030  0.10810  0.33998  1.0000 0.0861839766
C   C182      1.0  0.65970  0.89190  0.33998  1.0000 0.0861839766
C   C183      1.0  0.39190  0.84030  0.83998  1.0000 0.0861839766
C   C184      1.0  0.60810  0.15970  0.83998  1.0000 0.0861839766
C   C185      1.0  0.85160  0.26490  0.15429  1.0000 -0.1508139087
C   C186      1.0  0.23510  0.35160  0.65429  1.0000 -0.1508139087
C   C187      1.0  0.14840  0.73510  0.15429  1.0000 -0.1508139087
C   C188      1.0  0.76490  0.64840  0.65429  1.0000 -0.1508139087
C   C189      1.0  0.35160  0.23510  0.34571  1.0000 -0.1508139087
C   C190      1.0  0.64840  0.76490  0.34571  1.0000 -0.1508139087
C   C191      1.0  0.26490  0.85160  0.84571  1.0000 -0.1508139087
C   C192      1.0  0.73510  0.14840  0.84571  1.0000 -0.1508139087
C   C193      1.0  0.80300  0.51150  0.15055  1.0000 0.0802603239
C   C194      1.0  0.98850  0.30300  0.65055  1.0000 0.0802603239
C   C195      1.0  0.19700  0.48850  0.15055  1.0000 0.0802603239
C   C196      1.0  0.01150  0.69700  0.65055  1.0000 0.0802603239
C   C197      1.0  0.30300  0.98850  0.34945  1.0000 0.0802603239
C   C198      1.0  0.69700  0.01150  0.34945  1.0000 0.0802603239
C   C199      1.0  0.51150  0.80300  0.84945  1.0000 0.0802603239
C   C200      1.0  0.48850  0.19700  0.84945  1.0000 0.0802603239
C   C201      1.0  0.83940  0.45230  0.13887  1.0000 -0.2096914912
C   C202      1.0  0.04770  0.33940  0.63887  1.0000 -0.2096914912
C   C203      1.0  0.16060  0.54770  0.13887  1.0000 -0.2096914912
C   C204      1.0  0.95230  0.66060  0.63887  1.0000 -0.2096914912
C   C205      1.0  0.33940  0.04770  0.36113  1.0000 -0.2096914912
C   C206      1.0  0.66060  0.95230  0.36113  1.0000 -0.2096914912
C   C207      1.0  0.45230  0.83940  0.86113  1.0000 -0.2096914912
C   C208      1.0  0.54770  0.16060  0.86113  1.0000 -0.2096914912
C   C209      1.0  0.80430  0.39250  0.19366  1.0000 -0.2096914912
C   C210      1.0  0.10750  0.30430  0.69366  1.0000 -0.2096914912
C   C211      1.0  0.19570  0.60750  0.19366  1.0000 -0.2096914912
C   C212      1.0  0.89250  0.69570  0.69366  1.0000 -0.2096914912
C   C213      1.0  0.30430  0.10750  0.30634  1.0000 -0.2096914912
C   C214      1.0  0.69570  0.89250  0.30634  1.0000 -0.2096914912
C   C215      1.0  0.39250  0.80430  0.80634  1.0000 -0.2096914912
C   C216      1.0  0.60750  0.19570  0.80634  1.0000 -0.2096914912
C   C217      1.0  0.74720  0.43510  0.45659  1.0000 0.6389569669
C   C218      1.0  0.06490  0.24720  0.95659  1.0000 0.6389569669
C   C219      1.0  0.25280  0.56490  0.45659  1.0000 0.6389569669
C   C220      1.0  0.93510  0.75280  0.95659  1.0000 0.6389569669
C   C221      1.0  0.24720  0.06490  0.04341  1.0000 0.6389569669
C   C222      1.0  0.75280  0.93510  0.04341  1.0000 0.6389569669
C   C223      1.0  0.43510  0.74720  0.54341  1.0000 0.6389569669
C   C224      1.0  0.56490  0.25280  0.54341  1.0000 0.6389569669
C   C225      1.0  0.84760  0.48510  0.42275  1.0000 -0.0897655996
C   C226      1.0  0.01490  0.34760  0.92275  1.0000 -0.0897655996
C   C227      1.0  0.15240  0.51490  0.42275  1.0000 -0.0897655996
C   C228      1.0  0.98510  0.65240  0.92275  1.0000 -0.0897655996
C   C229      1.0  0.34760  0.01490  0.07725  1.0000 -0.0897655996
C   C230      1.0  0.65240  0.98510  0.07725  1.0000 -0.0897655996
C   C231      1.0  0.48510  0.84760  0.57725  1.0000 -0.0897655996
C   C232      1.0  0.51490  0.15240  0.57725  1.0000 -0.0897655996
C   C233      1.0  0.82150  0.45580  0.45340  1.0000 -0.0469419192
C   C234      1.0  0.04420  0.32150  0.95340  1.0000 -0.0469419192
C   C235      1.0  0.17850  0.54420  0.45340  1.0000 -0.0469419192
C   C236      1.0  0.95580  0.67850  0.95340  1.0000 -0.0469419192
C   C237      1.0  0.32150  0.04420  0.04660  1.0000 -0.0469419192
C   C238      1.0  0.67850  0.95580  0.04660  1.0000 -0.0469419192
C   C239      1.0  0.45580  0.82150  0.54660  1.0000 -0.0469419192
C   C240      1.0  0.54420  0.17850  0.54660  1.0000 -0.0469419192
C   C241      1.0  0.92000  0.50200  0.42225  1.0000 -0.1359482416
C   C242      1.0  0.99800  0.42000  0.92225  1.0000 -0.1359482416
C   C243      1.0  0.08000  0.49800  0.42225  1.0000 -0.1359482416
C   C244      1.0  0.00200  0.58000  0.92225  1.0000 -0.1359482416
C   C245      1.0  0.42000  0.99800  0.07775  1.0000 -0.1359482416
C   C246      1.0  0.58000  0.00200  0.07775  1.0000 -0.1359482416
C   C247      1.0  0.50200  0.92000  0.57775  1.0000 -0.1359482416
C   C248      1.0  0.49800  0.08000  0.57775  1.0000 -0.1359482416
C   C249      1.0  0.86490  0.44440  0.48296  1.0000 -0.0897655996
C   C250      1.0  0.05560  0.36490  0.98296  1.0000 -0.0897655996
C   C251      1.0  0.13510  0.55560  0.48296  1.0000 -0.0897655996
C   C252      1.0  0.94440  0.63510  0.98296  1.0000 -0.0897655996
C   C253      1.0  0.36490  0.05560  0.01704  1.0000 -0.0897655996
C   C254      1.0  0.63510  0.94440  0.01704  1.0000 -0.0897655996
C   C255      1.0  0.44440  0.86490  0.51704  1.0000 -0.0897655996
C   C256      1.0  0.55560  0.13510  0.51704  1.0000 -0.0897655996
C   C257      1.0  0.96320  0.49370  0.44964  1.0000 0.0652667362
C   C258      1.0  0.00630  0.46320  0.94964  1.0000 0.0652667362
C   C259      1.0  0.03680  0.50630  0.44964  1.0000 0.0652667362
C   C260      1.0  0.99370  0.53680  0.94964  1.0000 0.0652667362
C   C261      1.0  0.46320  0.00630  0.05036  1.0000 0.0641176669
C   C262      1.0  0.53680  0.99370  0.05036  1.0000 0.0652667362
C   C263      1.0  0.49370  0.96320  0.55036  1.0000 0.0652667362
C   C264      1.0  0.50630  0.03680  0.55036  1.0000 0.0641176669
C   C265      1.0  0.93380  0.46530  0.48175  1.0000 -0.1615604916
C   C266      1.0  0.03470  0.43380  0.98175  1.0000 -0.1615604916
C   C267      1.0  0.06620  0.53470  0.48175  1.0000 -0.1615604916
C   C268      1.0  0.96530  0.56620  0.98175  1.0000 -0.1615604916
C   C269      1.0  0.43380  0.03470  0.01825  1.0000 -0.1615604916
C   C270      1.0  0.56620  0.96530  0.01825  1.0000 -0.1615604916
C   C271      1.0  0.46530  0.93380  0.51825  1.0000 -0.1615604916
C   C272      1.0  0.53470  0.06620  0.51825  1.0000 -0.1615604916
O   O1        1.0  0.56581  0.47606  0.41781  1.0000 -1.0092805372
O   O2        1.0  0.02394  0.06581  0.91781  1.0000 -1.0092805372
O   O3        1.0  0.43419  0.52394  0.41781  1.0000 -1.0092805372
O   O4        1.0  0.97606  0.93419  0.91781  1.0000 -1.0092805372
O   O5        1.0  0.06581  0.02394  0.08219  1.0000 -1.0092805372
O   O6        1.0  0.93419  0.97606  0.08219  1.0000 -1.0092805372
O   O7        1.0  0.47606  0.56581  0.58219  1.0000 -1.0092805372
O   O8        1.0  0.52394  0.43419  0.58219  1.0000 -1.0092805372
O   O9        1.0  0.65199  0.41835  0.36860  1.0000 -0.5972564788
O   O10       1.0  0.08165  0.15199  0.86860  1.0000 -0.5972564788
O   O11       1.0  0.34801  0.58165  0.36860  1.0000 -0.5972564788
O   O12       1.0  0.91835  0.84801  0.86860  1.0000 -0.5972564788
O   O13       1.0  0.15199  0.08165  0.13140  1.0000 -0.5972564788
O   O14       1.0  0.84801  0.91835  0.13140  1.0000 -0.5972564788
O   O15       1.0  0.41835  0.65199  0.63140  1.0000 -0.5972564788
O   O16       1.0  0.58165  0.34801  0.63140  1.0000 -0.5972564788
O   O17       1.0  0.60159  0.37267  0.46467  1.0000 -1.0092805372
O   O18       1.0  0.12733  0.10159  0.96467  1.0000 -1.0092805372
O   O19       1.0  0.39841  0.62733  0.46467  1.0000 -1.0092805372
O   O20       1.0  0.87267  0.89841  0.96467  1.0000 -1.0092805372
O   O21       1.0  0.10159  0.12733  0.03533  1.0000 -1.0092805372
O   O22       1.0  0.89841  0.87267  0.03533  1.0000 -1.0092805372
O   O23       1.0  0.37267  0.60159  0.53533  1.0000 -1.0092805372
O   O24       1.0  0.62733  0.39841  0.53533  1.0000 -1.0092805372
O   O25       1.0  0.56402  0.47903  0.34441  1.0000 -0.5448043318
O   O26       1.0  0.02097  0.06402  0.84441  1.0000 -0.5448043318
O   O27       1.0  0.43598  0.52097  0.34441  1.0000 -0.5448043318
O   O28       1.0  0.97903  0.93598  0.84441  1.0000 -0.5458348961
O   O29       1.0  0.06402  0.02097  0.15559  1.0000 -0.5448043318
O   O30       1.0  0.93598  0.97903  0.15559  1.0000 -0.5448043318
O   O31       1.0  0.47903  0.56402  0.65559  1.0000 -0.5448043318
O   O32       1.0  0.52097  0.43598  0.65559  1.0000 -0.5448043318
O   O33       1.0  0.81584  0.82193  0.08636  1.0000 -0.5894880705
O   O34       1.0  0.67807  0.31584  0.58636  1.0000 -0.5894880705
O   O35       1.0  0.18416  0.17807  0.08636  1.0000 -0.5894880705
O   O36       1.0  0.32193  0.68416  0.58636  1.0000 -0.5894880705
O   O37       1.0  0.31584  0.67807  0.41364  1.0000 -0.5894880705
O   O38       1.0  0.68416  0.32193  0.41364  1.0000 -0.5894880705
O   O39       1.0  0.82193  0.81584  0.91364  1.0000 -0.5894880705
O   O40       1.0  0.17807  0.18416  0.91364  1.0000 -0.5894880705
O   O41       1.0  0.73215  0.39895  0.48405  1.0000 -0.5894880705
O   O42       1.0  0.10105  0.23215  0.98405  1.0000 -0.5894880705
O   O43       1.0  0.26785  0.60105  0.48405  1.0000 -0.5894880705
O   O44       1.0  0.89895  0.76785  0.98405  1.0000 -0.5894880705
O   O45       1.0  0.23215  0.10105  0.01595  1.0000 -0.5894880705
O   O46       1.0  0.76785  0.89895  0.01595  1.0000 -0.5894880705
O   O47       1.0  0.39895  0.73215  0.51595  1.0000 -0.5894880705
O   O48       1.0  0.60105  0.26785  0.51595  1.0000 -0.5894880705
O   O49       1.0  0.05330  0.16062  0.10116  1.0000 -0.6118998052
O   O50       1.0  0.33938  0.55330  0.60116  1.0000 -0.6118998052
O   O51       1.0  0.94670  0.83938  0.10116  1.0000 -0.6118998052
O   O52       1.0  0.66062  0.44670  0.60116  1.0000 -0.6118998052
O   O53       1.0  0.55330  0.33938  0.39884  1.0000 -0.6118998052
O   O54       1.0  0.44670  0.66062  0.39884  1.0000 -0.6118998052
O   O55       1.0  0.16062  0.05330  0.89884  1.0000 -0.6118998052
O   O56       1.0  0.83938  0.94670  0.89884  1.0000 -0.6118998052
O   O57       1.0  0.96532  0.09261  0.11982  1.0000 -0.5816926956
O   O58       1.0  0.40739  0.46532  0.61982  1.0000 -0.5816926956
O   O59       1.0  0.03468  0.90739  0.11982  1.0000 -0.5816926956
O   O60       1.0  0.59261  0.53468  0.61982  1.0000 -0.5816926956
O   O61       1.0  0.46532  0.40739  0.38018  1.0000 -0.5816926956
O   O62       1.0  0.53468  0.59261  0.38018  1.0000 -0.5816926956
O   O63       1.0  0.09261  0.96532  0.88018  1.0000 -0.5816926956
O   O64       1.0  0.90739  0.03468  0.88018  1.0000 -0.5816926956
O   O65       1.0  0.70500  0.45085  0.43182  1.0000 -0.5816926956
O   O66       1.0  0.04915  0.20500  0.93182  1.0000 -0.5816926956
O   O67       1.0  0.29500  0.54915  0.43182  1.0000 -0.5816926956
O   O68       1.0  0.95085  0.79500  0.93182  1.0000 -0.5816926956
O   O69       1.0  0.20500  0.04915  0.06818  1.0000 -0.5816926956
O   O70       1.0  0.79500  0.95085  0.06818  1.0000 -0.5816926956
O   O71       1.0  0.45085  0.70500  0.56818  1.0000 -0.5816926956
O   O72       1.0  0.54915  0.29500  0.56818  1.0000 -0.5816926956
O   O73       1.0  0.80556  0.76616  0.03261  1.0000 -0.5816926956
O   O74       1.0  0.73384  0.30556  0.53261  1.0000 -0.5816926956
O   O75       1.0  0.19444  0.23384  0.03261  1.0000 -0.5816926956
O   O76       1.0  0.26616  0.69444  0.53261  1.0000 -0.5894880705
O   O77       1.0  0.30556  0.73384  0.46739  1.0000 -0.5816926956
O   O78       1.0  0.69444  0.26616  0.46739  1.0000 -0.5816926956
O   O79       1.0  0.76616  0.80556  0.96739  1.0000 -0.5894880705
O   O80       1.0  0.23384  0.19444  0.96739  1.0000 -0.5894880705
