# DDEC6 charges by PACMAN v1.1 (https://github.com/mtap-research/PACMAN-charge/)
data_ja9b10501_si_014_ASR_pacman
_symmetry_space_group_name_H-M   'P 1'
_cell_length_a   19.19350000
_cell_length_b   19.19350000
_cell_length_c   36.60200000
_cell_angle_alpha   90.00000000
_cell_angle_beta   90.00000000
_cell_angle_gamma   90.00000000
_symmetry_Int_Tables_number   1
_chemical_formula_structural   Al16H153.68C228.16O85.6
_chemical_formula_sum   'Al16 H153.68 C228.16 O85.6'
_cell_volume   13483.82696723
_cell_formula_units_Z   1
loop_
 _symmetry_equiv_pos_site_id
 _symmetry_equiv_pos_as_xyz
  1  'x, y, z'
loop_
 _atom_site_type_symbol
 _atom_site_label
 _atom_site_symmetry_multiplicity
 _atom_site_fract_x
 _atom_site_fract_y
 _atom_site_fract_z
 _atom_site_occupancy
 _atom_site_charge
Al  Al1  1  0.90281000  0.12634000  0.08283000  1.0 1.6372650001
Al  Al2  1  0.09719000  0.87366000  0.08283000  1.0 1.6372650001
Al  Al3  1  0.37366000  0.40281000  0.58283000  1.0 1.6372650001
Al  Al4  1  0.62634000  0.59719000  0.58283000  1.0 1.6372650001
Al  Al5  1  0.59719000  0.62634000  0.41717000  1.0 1.6372650001
Al  Al6  1  0.40281000  0.37366000  0.41717000  1.0 1.6372650001
Al  Al7  1  0.12634000  0.90281000  0.91717000  1.0 1.6372650001
Al  Al8  1  0.87366000  0.09719000  0.91717000  1.0 1.6372650001
Al  Al9  1  0.00000000  0.00000000  0.11782000  1.0 1.6568714413
Al  Al10  1  0.50000000  0.50000000  0.61782000  1.0 1.6568714413
Al  Al11  1  0.50000000  0.50000000  0.38218000  1.0 1.6568714413
Al  Al12  1  0.00000000  0.00000000  0.88218000  1.0 1.6568714413
Al  Al13  1  0.83769000  0.16231000  0.00000000  1.0 1.6372650001
Al  Al14  1  0.16231000  0.83769000  0.00000000  1.0 1.6372650001
Al  Al15  1  0.33769000  0.33769000  0.50000000  1.0 1.6372650001
Al  Al16  1  0.66231000  0.66231000  0.50000000  1.0 1.6372650001
H  H1  1  0.00630000  0.06706000  0.06155000  1.0 0.4190009754
H  H2  1  0.88221000  0.05712000  0.02886000  1.0 0.4190009754
H  H3  1  0.53695000  0.20756000  0.07794000  1.0 0.1195953566
H  H4  1  0.45795000  0.13561000  0.11543000  1.0 0.1195953566
H  H5  1  0.74918000  0.19179000  0.13872000  1.0 0.1320738737
H  H6  1  0.64634000  0.18887000  0.17163000  1.0 0.1195953566
H  H7  1  0.64124000  0.20811000  0.04471000  1.0 0.1370030004
H  H8  1  0.39655000  0.25492000  0.32383000  1.0 0.1320738737
H  H9  1  0.26025000  0.19277000  0.16064000  1.0 0.1195953566
H  H10  1  0.28655000  0.97071000  0.11058000  1.0 0.1195953566
H  H11  1  0.16320000  0.13117000  0.14335000  1.0 0.1320738737
H  H12  1  0.38389000  0.03378000  0.12756000  1.0 0.1126786043
H  H13  1  0.50521000  0.41424000  0.27925000  1.0 0.1320738737
H  H14  1  0.35257000  0.19486000  0.20619000  1.0 0.1126786043
H  H15  1  0.50507000  0.35658000  0.22256000  1.0 0.1126786043
H  H16  1  0.39564000  0.19819000  0.26731000  1.0 0.1126786043
H  H17  1  0.55163000  0.25754000  0.19084000  1.0 0.1126786043
H  H18  1  0.99370000  0.93294000  0.06155000  1.0 0.4190009754
H  H19  1  0.11779000  0.94288000  0.02886000  1.0 0.4190009754
H  H20  1  0.46305000  0.79244000  0.07794000  1.0 0.1195953566
H  H21  1  0.54205000  0.86439000  0.11543000  1.0 0.1195953566
H  H22  1  0.25082000  0.80821000  0.13872000  1.0 0.1320738737
H  H23  1  0.35366000  0.81113000  0.17163000  1.0 0.1195953566
H  H24  1  0.35876000  0.79189000  0.04471000  1.0 0.1370030004
H  H25  1  0.60345000  0.74508000  0.32383000  1.0 0.1320738737
H  H26  1  0.73975000  0.80723000  0.16064000  1.0 0.1195953566
H  H27  1  0.71345000  0.02929000  0.11058000  1.0 0.1195953566
H  H28  1  0.83680000  0.86883000  0.14335000  1.0 0.1320738737
H  H29  1  0.61611000  0.96622000  0.12756000  1.0 0.1126786043
H  H30  1  0.49479000  0.58576000  0.27925000  1.0 0.1320738737
H  H31  1  0.64743000  0.80514000  0.20619000  1.0 0.1126786043
H  H32  1  0.49493000  0.64342000  0.22256000  1.0 0.1126786043
H  H33  1  0.60436000  0.80181000  0.26731000  1.0 0.1126786043
H  H34  1  0.44837000  0.74246000  0.19084000  1.0 0.1126786043
H  H35  1  0.43294000  0.50630000  0.56155000  1.0 0.4190009754
H  H36  1  0.44288000  0.38221000  0.52886000  1.0 0.4190009754
H  H37  1  0.29244000  0.03695000  0.57794000  1.0 0.1195953566
H  H38  1  0.36439000  0.95795000  0.61543000  1.0 0.1195953566
H  H39  1  0.30821000  0.24918000  0.63872000  1.0 0.1320738737
H  H40  1  0.31113000  0.14634000  0.67163000  1.0 0.1195953566
H  H41  1  0.29189000  0.14124000  0.54471000  1.0 0.1370030004
H  H42  1  0.24508000  0.89655000  0.82383000  1.0 0.1320738737
H  H43  1  0.30723000  0.76025000  0.66064000  1.0 0.1195953566
H  H44  1  0.52929000  0.78655000  0.61058000  1.0 0.1195953566
H  H45  1  0.36883000  0.66320000  0.64335000  1.0 0.1320738737
H  H46  1  0.46622000  0.88389000  0.62756000  1.0 0.1126786043
H  H47  1  0.08576000  0.00521000  0.77925000  1.0 0.1320738737
H  H48  1  0.30514000  0.85257000  0.70619000  1.0 0.1126786043
H  H49  1  0.14342000  0.00507000  0.72256000  1.0 0.1126786043
H  H50  1  0.30181000  0.89564000  0.76731000  1.0 0.1126786043
H  H51  1  0.24246000  0.05163000  0.69084000  1.0 0.1126786043
H  H52  1  0.56706000  0.49370000  0.56155000  1.0 0.4190009754
H  H53  1  0.55712000  0.61779000  0.52886000  1.0 0.4190009754
H  H54  1  0.70756000  0.96305000  0.57794000  1.0 0.1195953566
H  H55  1  0.63561000  0.04205000  0.61543000  1.0 0.1195953566
H  H56  1  0.69179000  0.75082000  0.63872000  1.0 0.1320738737
H  H57  1  0.68887000  0.85366000  0.67163000  1.0 0.1195953566
H  H58  1  0.70811000  0.85876000  0.54471000  1.0 0.1370030004
H  H59  1  0.75492000  0.10345000  0.82383000  1.0 0.1320738737
H  H60  1  0.69277000  0.23975000  0.66064000  1.0 0.1195953566
H  H61  1  0.47071000  0.21345000  0.61058000  1.0 0.1195953566
H  H62  1  0.63117000  0.33680000  0.64335000  1.0 0.1320738737
H  H63  1  0.53378000  0.11611000  0.62756000  1.0 0.1126786043
H  H64  1  0.91424000  0.99479000  0.77925000  1.0 0.1320738737
H  H65  1  0.69486000  0.14743000  0.70619000  1.0 0.1126786043
H  H66  1  0.85658000  0.99493000  0.72256000  1.0 0.1126786043
H  H67  1  0.69819000  0.10436000  0.76731000  1.0 0.1126786043
H  H68  1  0.75754000  0.94837000  0.69084000  1.0 0.1126786043
H  H69  1  0.49370000  0.56706000  0.43845000  1.0 0.4190009754
H  H70  1  0.61779000  0.55712000  0.47114000  1.0 0.4190009754
H  H71  1  0.96305000  0.70756000  0.42206000  1.0 0.1195953566
H  H72  1  0.04205000  0.63561000  0.38457000  1.0 0.1195953566
H  H73  1  0.75082000  0.69179000  0.36128000  1.0 0.1320738737
H  H74  1  0.85366000  0.68887000  0.32837000  1.0 0.1195953566
H  H75  1  0.85876000  0.70811000  0.45529000  1.0 0.1370030004
H  H76  1  0.10345000  0.75492000  0.17617000  1.0 0.1320738737
H  H77  1  0.23975000  0.69277000  0.33936000  1.0 0.1195953566
H  H78  1  0.21345000  0.47071000  0.38942000  1.0 0.1195953566
H  H79  1  0.33680000  0.63117000  0.35665000  1.0 0.1320738737
H  H80  1  0.11611000  0.53378000  0.37244000  1.0 0.1126786043
H  H81  1  0.99479000  0.91424000  0.22075000  1.0 0.1320738737
H  H82  1  0.14743000  0.69486000  0.29381000  1.0 0.1126786043
H  H83  1  0.99493000  0.85658000  0.27744000  1.0 0.1126786043
H  H84  1  0.10436000  0.69819000  0.23269000  1.0 0.1126786043
H  H85  1  0.94837000  0.75754000  0.30916000  1.0 0.1126786043
H  H86  1  0.50630000  0.43294000  0.43845000  1.0 0.4190009754
H  H87  1  0.38221000  0.44288000  0.47114000  1.0 0.4190009754
H  H88  1  0.03695000  0.29244000  0.42206000  1.0 0.1195953566
H  H89  1  0.95795000  0.36439000  0.38457000  1.0 0.1195953566
H  H90  1  0.24918000  0.30821000  0.36128000  1.0 0.1320738737
H  H91  1  0.14634000  0.31113000  0.32837000  1.0 0.1195953566
H  H92  1  0.14124000  0.29189000  0.45529000  1.0 0.1370030004
H  H93  1  0.89655000  0.24508000  0.17617000  1.0 0.1320738737
H  H94  1  0.76025000  0.30723000  0.33936000  1.0 0.1195953566
H  H95  1  0.78655000  0.52929000  0.38942000  1.0 0.1195953566
H  H96  1  0.66320000  0.36883000  0.35665000  1.0 0.1320738737
H  H97  1  0.88389000  0.46622000  0.37244000  1.0 0.1126786043
H  H98  1  0.00521000  0.08576000  0.22075000  1.0 0.1320738737
H  H99  1  0.85257000  0.30514000  0.29381000  1.0 0.1126786043
H  H100  1  0.00507000  0.14342000  0.27744000  1.0 0.1126786043
H  H101  1  0.89564000  0.30181000  0.23269000  1.0 0.1126786043
H  H102  1  0.05163000  0.24246000  0.30916000  1.0 0.1126786043
H  H103  1  0.06706000  0.00630000  0.93845000  1.0 0.4190009754
H  H104  1  0.05712000  0.88221000  0.97114000  1.0 0.4190009754
H  H105  1  0.20756000  0.53695000  0.92206000  1.0 0.1195953566
H  H106  1  0.13561000  0.45795000  0.88457000  1.0 0.1195953566
H  H107  1  0.19179000  0.74918000  0.86128000  1.0 0.1320738737
H  H108  1  0.18887000  0.64634000  0.82837000  1.0 0.1195953566
H  H109  1  0.20811000  0.64124000  0.95529000  1.0 0.1370030004
H  H110  1  0.25492000  0.39655000  0.67617000  1.0 0.1320738737
H  H111  1  0.19277000  0.26025000  0.83936000  1.0 0.1195953566
H  H112  1  0.97071000  0.28655000  0.88942000  1.0 0.1195953566
H  H113  1  0.13117000  0.16320000  0.85665000  1.0 0.1320738737
H  H114  1  0.03378000  0.38389000  0.87244000  1.0 0.1126786043
H  H115  1  0.41424000  0.50521000  0.72075000  1.0 0.1320738737
H  H116  1  0.19486000  0.35257000  0.79381000  1.0 0.1126786043
H  H117  1  0.35658000  0.50507000  0.77744000  1.0 0.1126786043
H  H118  1  0.19819000  0.39564000  0.73269000  1.0 0.1126786043
H  H119  1  0.25754000  0.55163000  0.80916000  1.0 0.1126786043
H  H120  1  0.93294000  0.99370000  0.93845000  1.0 0.4190009754
H  H121  1  0.94288000  0.11779000  0.97114000  1.0 0.4190009754
H  H122  1  0.79244000  0.46305000  0.92206000  1.0 0.1195953566
H  H123  1  0.86439000  0.54205000  0.88457000  1.0 0.1195953566
H  H124  1  0.80821000  0.25082000  0.86128000  1.0 0.1320738737
H  H125  1  0.81113000  0.35366000  0.82837000  1.0 0.1195953566
H  H126  1  0.79189000  0.35876000  0.95529000  1.0 0.1370030004
H  H127  1  0.74508000  0.60345000  0.67617000  1.0 0.1320738737
H  H128  1  0.80723000  0.73975000  0.83936000  1.0 0.1195953566
H  H129  1  0.02929000  0.71345000  0.88942000  1.0 0.1195953566
H  H130  1  0.86883000  0.83680000  0.85665000  1.0 0.1320738737
H  H131  1  0.96622000  0.61611000  0.87244000  1.0 0.1126786043
H  H132  1  0.58576000  0.49479000  0.72075000  1.0 0.1320738737
H  H133  1  0.80514000  0.64743000  0.79381000  1.0 0.1126786043
H  H134  1  0.64342000  0.49493000  0.77744000  1.0 0.1126786043
H  H135  1  0.80181000  0.60436000  0.73269000  1.0 0.1126786043
H  H136  1  0.74246000  0.44837000  0.80916000  1.0 0.1126786043
H  H137  1  0.92232000  0.39981000  0.07390000  0.17 0.1126786043
H  H138  1  0.86832000  0.34910000  0.05382000  0.17 0.1195953566
H  H139  1  0.90586000  0.32460000  0.09069000  0.17 0.1195953566
H  H140  1  0.07768000  0.60019000  0.07390000  0.17 0.1126786043
H  H141  1  0.13168000  0.65090000  0.05382000  0.17 0.1195953566
H  H142  1  0.09414000  0.67540000  0.09069000  0.17 0.1195953566
H  H143  1  0.10019000  0.42232000  0.57390000  0.17 0.1126786043
H  H144  1  0.15090000  0.36832000  0.55382000  0.17 0.1195953566
H  H145  1  0.17540000  0.40586000  0.59069000  0.17 0.1195953566
H  H146  1  0.89981000  0.57768000  0.57390000  0.17 0.1126786043
H  H147  1  0.84910000  0.63168000  0.55382000  0.17 0.1195953566
H  H148  1  0.82460000  0.59414000  0.59069000  0.17 0.1195953566
H  H149  1  0.57768000  0.89981000  0.42610000  0.17 0.1126786043
H  H150  1  0.63168000  0.84910000  0.44618000  0.17 0.1195953566
H  H151  1  0.59414000  0.82460000  0.40931000  0.17 0.1195953566
H  H152  1  0.42232000  0.10019000  0.42610000  0.17 0.1126786043
H  H153  1  0.36832000  0.15090000  0.44618000  0.17 0.1195953566
H  H154  1  0.40586000  0.17540000  0.40931000  0.17 0.1195953566
H  H155  1  0.39981000  0.92232000  0.92610000  0.17 0.1126786043
H  H156  1  0.34910000  0.86832000  0.94618000  0.17 0.1195953566
H  H157  1  0.32460000  0.90586000  0.90931000  0.17 0.1195953566
H  H158  1  0.60019000  0.07768000  0.92610000  0.17 0.1126786043
H  H159  1  0.65090000  0.13168000  0.94618000  0.17 0.1195953566
H  H160  1  0.67540000  0.09414000  0.90931000  0.17 0.1195953566
H  H161  1  0.08823000  0.24589000  0.96699000  0.35 0.1195953566
H  H162  1  0.00764000  0.23052000  0.95921000  0.35 0.1195953566
H  H163  1  0.03174000  0.30641000  0.97217000  0.35 0.1126786043
H  H164  1  0.91177000  0.75411000  0.96699000  0.35 0.1195953566
H  H165  1  0.99236000  0.76948000  0.95921000  0.35 0.1195953566
H  H166  1  0.96826000  0.69359000  0.97217000  0.35 0.1126786043
H  H167  1  0.25411000  0.58823000  0.46699000  0.35 0.1195953566
H  H168  1  0.26948000  0.50764000  0.45921000  0.35 0.1195953566
H  H169  1  0.19359000  0.53174000  0.47217000  0.35 0.1126786043
H  H170  1  0.74589000  0.41177000  0.46699000  0.35 0.1195953566
H  H171  1  0.73052000  0.49236000  0.45921000  0.35 0.1195953566
H  H172  1  0.80641000  0.46826000  0.47217000  0.35 0.1126786043
H  H173  1  0.41177000  0.74589000  0.53301000  0.35 0.1195953566
H  H174  1  0.49236000  0.73052000  0.54079000  0.35 0.1195953566
H  H175  1  0.46826000  0.80641000  0.52783000  0.35 0.1126786043
H  H176  1  0.58823000  0.25411000  0.53301000  0.35 0.1195953566
H  H177  1  0.50764000  0.26948000  0.54079000  0.35 0.1195953566
H  H178  1  0.53174000  0.19359000  0.52783000  0.35 0.1126786043
H  H179  1  0.24589000  0.08823000  0.03301000  0.35 0.1195953566
H  H180  1  0.23052000  0.00764000  0.04079000  0.35 0.1195953566
H  H181  1  0.30641000  0.03174000  0.02783000  0.35 0.1126786043
H  H182  1  0.75411000  0.91177000  0.03301000  0.35 0.1195953566
H  H183  1  0.76948000  0.99236000  0.04079000  0.35 0.1195953566
H  H184  1  0.69359000  0.96826000  0.02783000  0.35 0.1126786043
H  H185  1  0.99115000  0.28061000  0.03132000  0.65 0.2816281128
H  H186  1  0.00885000  0.71939000  0.03132000  0.65 0.2816281128
H  H187  1  0.21939000  0.49115000  0.53132000  0.65 0.2816281128
H  H188  1  0.78061000  0.50885000  0.53132000  0.65 0.2816281128
H  H189  1  0.50885000  0.78061000  0.46868000  0.65 0.2816281128
H  H190  1  0.49115000  0.21939000  0.46868000  0.65 0.2816281128
H  H191  1  0.28061000  0.99115000  0.96868000  0.65 0.2816281128
H  H192  1  0.71939000  0.00885000  0.96868000  0.65 0.2816281128
C  C1  1  0.77240000  0.19420000  0.06817000  1.0 0.6200846467
C  C2  1  0.70480000  0.19890000  0.08864000  1.0 -0.0344824125
C  C3  1  0.21400000  0.04450000  0.12483000  1.0 -0.0521678554
C  C4  1  0.15110000  0.00380000  0.11491000  1.0 0.6200846467
C  C5  1  0.45110000  0.37650000  0.34257000  1.0 0.6317482624
C  C6  1  0.58020000  0.20360000  0.09038000  1.0 -0.1492117663
C  C7  1  0.45650000  0.16050000  0.13784000  1.0 -0.2111165924
C  C8  1  0.70580000  0.19420000  0.12624000  1.0 -0.0911203662
C  C9  1  0.64490000  0.19290000  0.14577000  1.0 -0.1492117663
C  C10  1  0.64220000  0.20410000  0.07057000  1.0 -0.0911203662
C  C11  1  0.41840000  0.27570000  0.30324000  1.0 -0.0975820361
C  C12  1  0.39570000  0.16040000  0.15863000  1.0 0.0820167803
C  C13  1  0.26570000  0.14760000  0.15046000  1.0 -0.1492117663
C  C14  1  0.28120000  0.01600000  0.12062000  1.0 -0.0975820361
C  C15  1  0.20800000  0.11110000  0.14013000  1.0 -0.0911203662
C  C16  1  0.45130000  0.34100000  0.30641000  1.0 -0.0521678554
C  C17  1  0.33280000  0.11990000  0.14639000  1.0 0.0820167803
C  C18  1  0.33890000  0.05340000  0.13095000  1.0 -0.1492117663
C  C19  1  0.58120000  0.19730000  0.12812000  1.0 0.0820167803
C  C20  1  0.48300000  0.37020000  0.27694000  1.0 -0.0911203662
C  C21  1  0.45080000  0.27120000  0.23928000  1.0 0.0820167803
C  C22  1  0.45200000  0.23320000  0.20393000  1.0 0.0820167803
C  C23  1  0.39370000  0.19590000  0.19175000  1.0 -0.2003923411
C  C24  1  0.51480000  0.19660000  0.14948000  1.0 0.0820167803
C  C25  1  0.48290000  0.33570000  0.24303000  1.0 -0.1492117663
C  C26  1  0.41830000  0.24200000  0.26962000  1.0 -0.1492117663
C  C27  1  0.51170000  0.23270000  0.18267000  1.0 -0.2003923411
C  C28  1  0.95809000  0.24466000  0.03553000  1.0 0.5026919278
C  C29  1  0.22760000  0.80580000  0.06817000  1.0 0.6200846467
C  C30  1  0.29520000  0.80110000  0.08864000  1.0 -0.0344824125
C  C31  1  0.78600000  0.95550000  0.12483000  1.0 -0.0521678554
C  C32  1  0.84890000  0.99620000  0.11491000  1.0 0.6200846467
C  C33  1  0.54890000  0.62350000  0.34257000  1.0 0.6317482624
C  C34  1  0.41980000  0.79640000  0.09038000  1.0 -0.1492117663
C  C35  1  0.54350000  0.83950000  0.13784000  1.0 -0.2111165924
C  C36  1  0.29420000  0.80580000  0.12624000  1.0 -0.0911203662
C  C37  1  0.35510000  0.80710000  0.14577000  1.0 -0.1492117663
C  C38  1  0.35780000  0.79590000  0.07057000  1.0 -0.0911203662
C  C39  1  0.58160000  0.72430000  0.30324000  1.0 -0.0975820361
C  C40  1  0.60430000  0.83960000  0.15863000  1.0 0.0820167803
C  C41  1  0.73430000  0.85240000  0.15046000  1.0 -0.1492117663
C  C42  1  0.71880000  0.98400000  0.12062000  1.0 -0.0975820361
C  C43  1  0.79200000  0.88890000  0.14013000  1.0 -0.0911203662
C  C44  1  0.54870000  0.65900000  0.30641000  1.0 -0.0521678554
C  C45  1  0.66720000  0.88010000  0.14639000  1.0 0.0820167803
C  C46  1  0.66110000  0.94660000  0.13095000  1.0 -0.1492117663
C  C47  1  0.41880000  0.80270000  0.12812000  1.0 0.0820167803
C  C48  1  0.51700000  0.62980000  0.27694000  1.0 -0.0911203662
C  C49  1  0.54920000  0.72880000  0.23928000  1.0 0.0820167803
C  C50  1  0.54800000  0.76680000  0.20393000  1.0 0.0820167803
C  C51  1  0.60630000  0.80410000  0.19175000  1.0 -0.2003923411
C  C52  1  0.48520000  0.80340000  0.14948000  1.0 0.0820167803
C  C53  1  0.51710000  0.66430000  0.24303000  1.0 -0.1492117663
C  C54  1  0.58170000  0.75800000  0.26962000  1.0 -0.1492117663
C  C55  1  0.48830000  0.76730000  0.18267000  1.0 -0.2003923411
C  C56  1  0.04191000  0.75534000  0.03553000  1.0 0.5026919278
C  C57  1  0.30580000  0.27240000  0.56817000  1.0 0.6200846467
C  C58  1  0.30110000  0.20480000  0.58864000  1.0 -0.0344824125
C  C59  1  0.45550000  0.71400000  0.62483000  1.0 -0.0521678554
C  C60  1  0.49620000  0.65110000  0.61491000  1.0 0.6200846467
C  C61  1  0.12350000  0.95110000  0.84257000  1.0 0.6317482624
C  C62  1  0.29640000  0.08020000  0.59038000  1.0 -0.1492117663
C  C63  1  0.33950000  0.95650000  0.63784000  1.0 -0.2111165924
C  C64  1  0.30580000  0.20580000  0.62624000  1.0 -0.0911203662
C  C65  1  0.30710000  0.14490000  0.64577000  1.0 -0.1492117663
C  C66  1  0.29590000  0.14220000  0.57057000  1.0 -0.0911203662
C  C67  1  0.22430000  0.91840000  0.80324000  1.0 -0.0975820361
C  C68  1  0.33960000  0.89570000  0.65863000  1.0 0.0820167803
C  C69  1  0.35240000  0.76570000  0.65046000  1.0 -0.1492117663
C  C70  1  0.48400000  0.78120000  0.62062000  1.0 -0.0975820361
C  C71  1  0.38890000  0.70800000  0.64013000  1.0 -0.0911203662
C  C72  1  0.15900000  0.95130000  0.80641000  1.0 -0.0521678554
C  C73  1  0.38010000  0.83280000  0.64639000  1.0 0.0820167803
C  C74  1  0.44660000  0.83890000  0.63095000  1.0 -0.1492117663
C  C75  1  0.30270000  0.08120000  0.62812000  1.0 0.0820167803
C  C76  1  0.12980000  0.98300000  0.77694000  1.0 -0.0911203662
C  C77  1  0.22880000  0.95080000  0.73928000  1.0 0.0820167803
C  C78  1  0.26680000  0.95200000  0.70393000  1.0 0.0820167803
C  C79  1  0.30410000  0.89370000  0.69175000  1.0 -0.2003923411
C  C80  1  0.30340000  0.01480000  0.64948000  1.0 0.0820167803
C  C81  1  0.16430000  0.98290000  0.74303000  1.0 -0.1492117663
C  C82  1  0.25800000  0.91830000  0.76962000  1.0 -0.1492117663
C  C83  1  0.26730000  0.01170000  0.68267000  1.0 -0.2003923411
C  C84  1  0.25534000  0.45809000  0.53553000  1.0 0.5026919278
C  C85  1  0.69420000  0.72760000  0.56817000  1.0 0.6200846467
C  C86  1  0.69890000  0.79520000  0.58864000  1.0 -0.0352517147
C  C87  1  0.54450000  0.28600000  0.62483000  1.0 -0.0521678554
C  C88  1  0.50380000  0.34890000  0.61491000  1.0 0.6200846467
C  C89  1  0.87650000  0.04890000  0.84257000  1.0 0.6317482624
C  C90  1  0.70360000  0.91980000  0.59038000  1.0 -0.1492117663
C  C91  1  0.66050000  0.04350000  0.63784000  1.0 -0.2111165924
C  C92  1  0.69420000  0.79420000  0.62624000  1.0 -0.0911203662
C  C93  1  0.69290000  0.85510000  0.64577000  1.0 -0.1492117663
C  C94  1  0.70410000  0.85780000  0.57057000  1.0 -0.0911203662
C  C95  1  0.77570000  0.08160000  0.80324000  1.0 -0.0975820361
C  C96  1  0.66040000  0.10430000  0.65863000  1.0 0.0820167803
C  C97  1  0.64760000  0.23430000  0.65046000  1.0 -0.1492117663
C  C98  1  0.51600000  0.21880000  0.62062000  1.0 -0.0975820361
C  C99  1  0.61110000  0.29200000  0.64013000  1.0 -0.0911203662
C  C100  1  0.84100000  0.04870000  0.80641000  1.0 -0.0521678554
C  C101  1  0.61990000  0.16720000  0.64639000  1.0 0.0820167803
C  C102  1  0.55340000  0.16110000  0.63095000  1.0 -0.1492117663
C  C103  1  0.69730000  0.91880000  0.62812000  1.0 0.0820167803
C  C104  1  0.87020000  0.01700000  0.77694000  1.0 -0.0911203662
C  C105  1  0.77120000  0.04920000  0.73928000  1.0 0.0820167803
C  C106  1  0.73320000  0.04800000  0.70393000  1.0 0.0820167803
C  C107  1  0.69590000  0.10630000  0.69175000  1.0 -0.2003923411
C  C108  1  0.69660000  0.98520000  0.64948000  1.0 0.0820167803
C  C109  1  0.83570000  0.01710000  0.74303000  1.0 -0.1492117663
C  C110  1  0.74200000  0.08170000  0.76962000  1.0 -0.1492117663
C  C111  1  0.73270000  0.98830000  0.68267000  1.0 -0.2003923411
C  C112  1  0.74466000  0.54191000  0.53553000  1.0 0.5026919278
C  C113  1  0.72760000  0.69420000  0.43183000  1.0 0.6200846467
C  C114  1  0.79520000  0.69890000  0.41136000  1.0 -0.0352517147
C  C115  1  0.28600000  0.54450000  0.37517000  1.0 -0.0521678554
C  C116  1  0.34890000  0.50380000  0.38509000  1.0 0.6200846467
C  C117  1  0.04890000  0.87650000  0.15743000  1.0 0.6317482624
C  C118  1  0.91980000  0.70360000  0.40962000  1.0 -0.1492117663
C  C119  1  0.04350000  0.66050000  0.36216000  1.0 -0.2111165924
C  C120  1  0.79420000  0.69420000  0.37376000  1.0 -0.0911203662
C  C121  1  0.85510000  0.69290000  0.35423000  1.0 -0.1492117663
C  C122  1  0.85780000  0.70410000  0.42943000  1.0 -0.0911203662
C  C123  1  0.08160000  0.77570000  0.19676000  1.0 -0.0975820361
C  C124  1  0.10430000  0.66040000  0.34137000  1.0 0.0820167803
C  C125  1  0.23430000  0.64760000  0.34954000  1.0 -0.1492117663
C  C126  1  0.21880000  0.51600000  0.37938000  1.0 -0.0975820361
C  C127  1  0.29200000  0.61110000  0.35987000  1.0 -0.0911203662
C  C128  1  0.04870000  0.84100000  0.19359000  1.0 -0.0521678554
C  C129  1  0.16720000  0.61990000  0.35361000  1.0 0.0820167803
C  C130  1  0.16110000  0.55340000  0.36905000  1.0 -0.1492117663
C  C131  1  0.91880000  0.69730000  0.37188000  1.0 0.0820167803
C  C132  1  0.01700000  0.87020000  0.22306000  1.0 -0.0911203662
C  C133  1  0.04920000  0.77120000  0.26072000  1.0 0.0820167803
C  C134  1  0.04800000  0.73320000  0.29607000  1.0 0.0820167803
C  C135  1  0.10630000  0.69590000  0.30825000  1.0 -0.2003923411
C  C136  1  0.98520000  0.69660000  0.35052000  1.0 0.0820167803
C  C137  1  0.01710000  0.83570000  0.25697000  1.0 -0.1492117663
C  C138  1  0.08170000  0.74200000  0.23038000  1.0 -0.1492117663
C  C139  1  0.98830000  0.73270000  0.31733000  1.0 -0.2003923411
C  C140  1  0.54191000  0.74466000  0.46447000  1.0 0.5026919278
C  C141  1  0.27240000  0.30580000  0.43183000  1.0 0.6200846467
C  C142  1  0.20480000  0.30110000  0.41136000  1.0 -0.0344824125
C  C143  1  0.71400000  0.45550000  0.37517000  1.0 -0.0521678554
C  C144  1  0.65110000  0.49620000  0.38509000  1.0 0.6200846467
C  C145  1  0.95110000  0.12350000  0.15743000  1.0 0.6317482624
C  C146  1  0.08020000  0.29640000  0.40962000  1.0 -0.1492117663
C  C147  1  0.95650000  0.33950000  0.36216000  1.0 -0.2111165924
C  C148  1  0.20580000  0.30580000  0.37376000  1.0 -0.0911203662
C  C149  1  0.14490000  0.30710000  0.35423000  1.0 -0.1492117663
C  C150  1  0.14220000  0.29590000  0.42943000  1.0 -0.0911203662
C  C151  1  0.91840000  0.22430000  0.19676000  1.0 -0.0975820361
C  C152  1  0.89570000  0.33960000  0.34137000  1.0 0.0820167803
C  C153  1  0.76570000  0.35240000  0.34954000  1.0 -0.1492117663
C  C154  1  0.78120000  0.48400000  0.37938000  1.0 -0.0975820361
C  C155  1  0.70800000  0.38890000  0.35987000  1.0 -0.0911203662
C  C156  1  0.95130000  0.15900000  0.19359000  1.0 -0.0521678554
C  C157  1  0.83280000  0.38010000  0.35361000  1.0 0.0820167803
C  C158  1  0.83890000  0.44660000  0.36905000  1.0 -0.1492117663
C  C159  1  0.08120000  0.30270000  0.37188000  1.0 0.0820167803
C  C160  1  0.98300000  0.12980000  0.22306000  1.0 -0.0911203662
C  C161  1  0.95080000  0.22880000  0.26072000  1.0 0.0820167803
C  C162  1  0.95200000  0.26680000  0.29607000  1.0 0.0820167803
C  C163  1  0.89370000  0.30410000  0.30825000  1.0 -0.2003923411
C  C164  1  0.01480000  0.30340000  0.35052000  1.0 0.0820167803
C  C165  1  0.98290000  0.16430000  0.25697000  1.0 -0.1492117663
C  C166  1  0.91830000  0.25800000  0.23038000  1.0 -0.1492117663
C  C167  1  0.01170000  0.26730000  0.31733000  1.0 -0.2003923411
C  C168  1  0.45809000  0.25534000  0.46447000  1.0 0.5026919278
C  C169  1  0.19420000  0.77240000  0.93183000  1.0 0.6200846467
C  C170  1  0.19890000  0.70480000  0.91136000  1.0 -0.0344824125
C  C171  1  0.04450000  0.21400000  0.87517000  1.0 -0.0521678554
C  C172  1  0.00380000  0.15110000  0.88509000  1.0 0.6200846467
C  C173  1  0.37650000  0.45110000  0.65743000  1.0 0.6317482624
C  C174  1  0.20360000  0.58020000  0.90962000  1.0 -0.1492117663
C  C175  1  0.16050000  0.45650000  0.86216000  1.0 -0.2111165924
C  C176  1  0.19420000  0.70580000  0.87376000  1.0 -0.0911203662
C  C177  1  0.19290000  0.64490000  0.85423000  1.0 -0.1492117663
C  C178  1  0.20410000  0.64220000  0.92943000  1.0 -0.0911203662
C  C179  1  0.27570000  0.41840000  0.69676000  1.0 -0.0975820361
C  C180  1  0.16040000  0.39570000  0.84137000  1.0 0.0820167803
C  C181  1  0.14760000  0.26570000  0.84954000  1.0 -0.1492117663
C  C182  1  0.01600000  0.28120000  0.87938000  1.0 -0.0975820361
C  C183  1  0.11110000  0.20800000  0.85987000  1.0 -0.0911203662
C  C184  1  0.34100000  0.45130000  0.69359000  1.0 -0.0521678554
C  C185  1  0.11990000  0.33280000  0.85361000  1.0 0.0820167803
C  C186  1  0.05340000  0.33890000  0.86905000  1.0 -0.1492117663
C  C187  1  0.19730000  0.58120000  0.87188000  1.0 0.0820167803
C  C188  1  0.37020000  0.48300000  0.72306000  1.0 -0.0911203662
C  C189  1  0.27120000  0.45080000  0.76072000  1.0 0.0820167803
C  C190  1  0.23320000  0.45200000  0.79607000  1.0 0.0820167803
C  C191  1  0.19590000  0.39370000  0.80825000  1.0 -0.2003923411
C  C192  1  0.19660000  0.51480000  0.85052000  1.0 0.0820167803
C  C193  1  0.33570000  0.48290000  0.75697000  1.0 -0.1492117663
C  C194  1  0.24200000  0.41830000  0.73038000  1.0 -0.1492117663
C  C195  1  0.23270000  0.51170000  0.81733000  1.0 -0.2003923411
C  C196  1  0.24466000  0.95809000  0.96447000  1.0 0.5026919278
C  C197  1  0.80580000  0.22760000  0.93183000  1.0 0.6200846467
C  C198  1  0.80110000  0.29520000  0.91136000  1.0 -0.0344824125
C  C199  1  0.95550000  0.78600000  0.87517000  1.0 -0.0521678554
C  C200  1  0.99620000  0.84890000  0.88509000  1.0 0.6200846467
C  C201  1  0.62350000  0.54890000  0.65743000  1.0 0.6317482624
C  C202  1  0.79640000  0.41980000  0.90962000  1.0 -0.1492117663
C  C203  1  0.83950000  0.54350000  0.86216000  1.0 -0.2111165924
C  C204  1  0.80580000  0.29420000  0.87376000  1.0 -0.0911203662
C  C205  1  0.80710000  0.35510000  0.85423000  1.0 -0.1492117663
C  C206  1  0.79590000  0.35780000  0.92943000  1.0 -0.0911203662
C  C207  1  0.72430000  0.58160000  0.69676000  1.0 -0.0975820361
C  C208  1  0.83960000  0.60430000  0.84137000  1.0 0.0820167803
C  C209  1  0.85240000  0.73430000  0.84954000  1.0 -0.1492117663
C  C210  1  0.98400000  0.71880000  0.87938000  1.0 -0.0975820361
C  C211  1  0.88890000  0.79200000  0.85987000  1.0 -0.0911203662
C  C212  1  0.65900000  0.54870000  0.69359000  1.0 -0.0521678554
C  C213  1  0.88010000  0.66720000  0.85361000  1.0 0.0820167803
C  C214  1  0.94660000  0.66110000  0.86905000  1.0 -0.1492117663
C  C215  1  0.80270000  0.41880000  0.87188000  1.0 0.0820167803
C  C216  1  0.62980000  0.51700000  0.72306000  1.0 -0.0911203662
C  C217  1  0.72880000  0.54920000  0.76072000  1.0 0.0820167803
C  C218  1  0.76680000  0.54800000  0.79607000  1.0 0.0820167803
C  C219  1  0.80410000  0.60630000  0.80825000  1.0 -0.2003923411
C  C220  1  0.80340000  0.48520000  0.85052000  1.0 0.0820167803
C  C221  1  0.66430000  0.51710000  0.75697000  1.0 -0.1492117663
C  C222  1  0.75800000  0.58170000  0.73038000  1.0 -0.1492117663
C  C223  1  0.76730000  0.48830000  0.81733000  1.0 -0.2003923411
C  C224  1  0.75534000  0.04191000  0.96447000  1.0 0.5026919278
C  C225  1  0.91160000  0.35120000  0.06800000  0.17 -0.2003923411
C  C226  1  0.08840000  0.64880000  0.06800000  0.17 -0.2003923411
C  C227  1  0.14880000  0.41160000  0.56800000  0.17 -0.2003923411
C  C228  1  0.85120000  0.58840000  0.56800000  0.17 -0.2003923411
C  C229  1  0.58840000  0.85120000  0.43200000  0.17 -0.2003923411
C  C230  1  0.41160000  0.14880000  0.43200000  0.17 -0.2003923411
C  C231  1  0.35120000  0.91160000  0.93200000  0.17 -0.2003923411
C  C232  1  0.64880000  0.08840000  0.93200000  0.17 -0.2003923411
C  C233  1  0.04040000  0.25630000  0.97460000  0.35 -0.2198616256
C  C234  1  0.95960000  0.74370000  0.97460000  0.35 -0.2198616256
C  C235  1  0.24370000  0.54040000  0.47460000  0.35 -0.2198616256
C  C236  1  0.75630000  0.45960000  0.47460000  0.35 -0.2198616256
C  C237  1  0.45960000  0.75630000  0.52540000  0.35 -0.2198616256
C  C238  1  0.54040000  0.24370000  0.52540000  0.35 -0.2198616256
C  C239  1  0.25630000  0.04040000  0.02540000  0.35 -0.2198616256
C  C240  1  0.74370000  0.95960000  0.02540000  0.35 -0.2198616256
O  O1  1  0.97672000  0.06510000  0.08234000  1.0 -0.9924859542
O  O2  1  0.82720000  0.18822000  0.08662000  1.0 -0.5727059435
O  O3  1  0.87582000  0.10438000  0.03580000  1.0 -0.9765516188
O  O4  1  0.77003000  0.19602000  0.03356000  1.0 -0.564223763
O  O5  1  0.09260000  0.03466000  0.11978000  1.0 -0.594839361
O  O6  1  0.47863000  0.43645000  0.34403000  1.0 -0.5833707382
O  O7  1  0.42378000  0.34490000  0.36901000  1.0 -0.5727059435
O  O8  1  0.96301000  0.19945000  0.06614000  1.0 -0.6444172826
O  O9  1  0.90280000  0.23354000  0.01228000  1.0 -0.6444172826
O  O10  1  0.15920000  0.94390000  0.10224000  1.0 -0.5833707382
O  O11  1  0.02328000  0.93490000  0.08234000  1.0 -0.9924859542
O  O12  1  0.17280000  0.81178000  0.08662000  1.0 -0.5727059435
O  O13  1  0.12418000  0.89562000  0.03580000  1.0 -0.9765516188
O  O14  1  0.22997000  0.80398000  0.03356000  1.0 -0.564223763
O  O15  1  0.90740000  0.96534000  0.11978000  1.0 -0.594839361
O  O16  1  0.52137000  0.56355000  0.34403000  1.0 -0.5833707382
O  O17  1  0.57622000  0.65510000  0.36901000  1.0 -0.5727059435
O  O18  1  0.03699000  0.80055000  0.06614000  1.0 -0.6444172826
O  O19  1  0.09720000  0.76646000  0.01228000  1.0 -0.6444172826
O  O20  1  0.84080000  0.05610000  0.10224000  1.0 -0.5833707382
O  O21  1  0.43490000  0.47672000  0.58234000  1.0 -0.9924859542
O  O22  1  0.31178000  0.32720000  0.58662000  1.0 -0.5727059435
O  O23  1  0.39562000  0.37582000  0.53580000  1.0 -0.9765516188
O  O24  1  0.30398000  0.27003000  0.53356000  1.0 -0.564223763
O  O25  1  0.46534000  0.59260000  0.61978000  1.0 -0.594839361
O  O26  1  0.06355000  0.97863000  0.84403000  1.0 -0.5833707382
O  O27  1  0.15510000  0.92378000  0.86901000  1.0 -0.5727059435
O  O28  1  0.30055000  0.46301000  0.56614000  1.0 -0.6444172826
O  O29  1  0.26646000  0.40280000  0.51228000  1.0 -0.6444172826
O  O30  1  0.55610000  0.65920000  0.60224000  1.0 -0.5833707382
O  O31  1  0.56510000  0.52328000  0.58234000  1.0 -0.9924859542
O  O32  1  0.68822000  0.67280000  0.58662000  1.0 -0.5727059435
O  O33  1  0.60438000  0.62418000  0.53580000  1.0 -0.9765516188
O  O34  1  0.69602000  0.72997000  0.53356000  1.0 -0.564223763
O  O35  1  0.53466000  0.40740000  0.61978000  1.0 -0.594839361
O  O36  1  0.93645000  0.02137000  0.84403000  1.0 -0.5833707382
O  O37  1  0.84490000  0.07622000  0.86901000  1.0 -0.5727059435
O  O38  1  0.69945000  0.53699000  0.56614000  1.0 -0.6444172826
O  O39  1  0.73354000  0.59720000  0.51228000  1.0 -0.6444172826
O  O40  1  0.44390000  0.34080000  0.60224000  1.0 -0.5833707382
O  O41  1  0.52328000  0.56510000  0.41766000  1.0 -0.9924859542
O  O42  1  0.67280000  0.68822000  0.41338000  1.0 -0.5727059435
O  O43  1  0.62418000  0.60438000  0.46420000  1.0 -0.9765516188
O  O44  1  0.72997000  0.69602000  0.46644000  1.0 -0.564223763
O  O45  1  0.40740000  0.53466000  0.38022000  1.0 -0.594839361
O  O46  1  0.02137000  0.93645000  0.15597000  1.0 -0.5833707382
O  O47  1  0.07622000  0.84490000  0.13099000  1.0 -0.5727059435
O  O48  1  0.53699000  0.69945000  0.43386000  1.0 -0.6444172826
O  O49  1  0.59720000  0.73354000  0.48772000  1.0 -0.6444172826
O  O50  1  0.34080000  0.44390000  0.39776000  1.0 -0.5833707382
O  O51  1  0.47672000  0.43490000  0.41766000  1.0 -0.9924859542
O  O52  1  0.32720000  0.31178000  0.41338000  1.0 -0.5727059435
O  O53  1  0.37582000  0.39562000  0.46420000  1.0 -0.9765516188
O  O54  1  0.27003000  0.30398000  0.46644000  1.0 -0.564223763
O  O55  1  0.59260000  0.46534000  0.38022000  1.0 -0.594839361
O  O56  1  0.97863000  0.06355000  0.15597000  1.0 -0.5833707382
O  O57  1  0.92378000  0.15510000  0.13099000  1.0 -0.5727059435
O  O58  1  0.46301000  0.30055000  0.43386000  1.0 -0.6444172826
O  O59  1  0.40280000  0.26646000  0.48772000  1.0 -0.6444172826
O  O60  1  0.65920000  0.55610000  0.39776000  1.0 -0.5833707382
O  O61  1  0.06510000  0.97672000  0.91766000  1.0 -0.9952587452
O  O62  1  0.18822000  0.82720000  0.91338000  1.0 -0.5727059435
O  O63  1  0.10438000  0.87582000  0.96420000  1.0 -0.9765516188
O  O64  1  0.19602000  0.77003000  0.96644000  1.0 -0.564223763
O  O65  1  0.03466000  0.09260000  0.88022000  1.0 -0.594839361
O  O66  1  0.43645000  0.47863000  0.65597000  1.0 -0.5833707382
O  O67  1  0.34490000  0.42378000  0.63099000  1.0 -0.5727059435
O  O68  1  0.19945000  0.96301000  0.93386000  1.0 -0.6444172826
O  O69  1  0.23354000  0.90280000  0.98772000  1.0 -0.6444172826
O  O70  1  0.94390000  0.15920000  0.89776000  1.0 -0.5833707382
O  O71  1  0.93490000  0.02328000  0.91766000  1.0 -0.9924859542
O  O72  1  0.81178000  0.17280000  0.91338000  1.0 -0.5727059435
O  O73  1  0.89562000  0.12418000  0.96420000  1.0 -0.9765516188
O  O74  1  0.80398000  0.22997000  0.96644000  1.0 -0.564223763
O  O75  1  0.96534000  0.90740000  0.88022000  1.0 -0.594839361
O  O76  1  0.56355000  0.52137000  0.65597000  1.0 -0.5833707382
O  O77  1  0.65510000  0.57622000  0.63099000  1.0 -0.5727059435
O  O78  1  0.80055000  0.03699000  0.93386000  1.0 -0.6444172826
O  O79  1  0.76646000  0.09720000  0.98772000  1.0 -0.6444172826
O  O80  1  0.05610000  0.84080000  0.89776000  1.0 -0.5833707382
O  O81  1  0.03120000  0.23600000  0.01200000  0.35 -0.2198616256
O  O82  1  0.96830000  0.32150000  0.04670000  0.35 -0.2289810967
O  O83  1  0.96880000  0.76400000  0.01200000  0.35 -0.2198616256
O  O84  1  0.03170000  0.67850000  0.04670000  0.35 -0.2289810967
O  O85  1  0.26400000  0.53120000  0.51200000  0.35 -0.2111165924
O  O86  1  0.17850000  0.46830000  0.54670000  0.35 -0.2289810967
O  O87  1  0.73600000  0.46880000  0.51200000  0.35 -0.2198616256
O  O88  1  0.82150000  0.53170000  0.54670000  0.35 -0.2289810967
O  O89  1  0.46880000  0.73600000  0.48800000  0.35 -0.2198616256
O  O90  1  0.53170000  0.82150000  0.45330000  0.35 -0.2289810967
O  O91  1  0.53120000  0.26400000  0.48800000  0.35 -0.2111165924
O  O92  1  0.46830000  0.17850000  0.45330000  0.35 -0.2289810967
O  O93  1  0.23600000  0.03120000  0.98800000  0.35 -0.2111165924
O  O94  1  0.32150000  0.96830000  0.95330000  0.35 -0.2289810967
O  O95  1  0.76400000  0.96880000  0.98800000  0.35 -0.2198616256
O  O96  1  0.67850000  0.03170000  0.95330000  0.35 -0.2289810967
