# DDEC6 charges by PACMAN v1.1 (https://github.com/mtap-research/PACMAN-charge/)
data_cm6b02817_si_005_ion_pacman
_symmetry_space_group_name_H-M   'P 1'
_cell_length_a   21.87200000
_cell_length_b   21.87200000
_cell_length_c   21.87200000
_cell_angle_alpha   90.00000000
_cell_angle_beta   90.00000000
_cell_angle_gamma   90.00000000
_symmetry_Int_Tables_number   1
_chemical_formula_structural   Fe24H72C192N24Cl8.08O128
_chemical_formula_sum   'Fe24 H72 C192 N24 Cl8.08 O128'
_cell_volume   10463.22324685
_cell_formula_units_Z   1
loop_
 _symmetry_equiv_pos_site_id
 _symmetry_equiv_pos_as_xyz
  1  'x, y, z'
loop_
 _atom_site_type_symbol
 _atom_site_label
 _atom_site_symmetry_multiplicity
 _atom_site_fract_x
 _atom_site_fract_y
 _atom_site_fract_z
 _atom_site_occupancy
 _atom_site_charge
Fe  Fe1  1  0.26092000  0.67949000  0.80347000  1.0 1.2785518183
Fe  Fe2  1  0.73908000  0.32051000  0.80347000  1.0 1.2785518183
Fe  Fe3  1  0.73908000  0.67949000  0.19653000  1.0 1.2785518183
Fe  Fe4  1  0.26092000  0.32051000  0.19653000  1.0 1.2785518183
Fe  Fe5  1  0.80347000  0.26092000  0.67949000  1.0 1.2785518183
Fe  Fe6  1  0.80347000  0.73908000  0.32051000  1.0 1.2785518183
Fe  Fe7  1  0.19653000  0.73908000  0.67949000  1.0 1.2785518183
Fe  Fe8  1  0.19653000  0.26092000  0.32051000  1.0 1.2785518183
Fe  Fe9  1  0.67949000  0.80347000  0.26092000  1.0 1.2785518183
Fe  Fe10  1  0.32051000  0.80347000  0.73908000  1.0 1.2785518183
Fe  Fe11  1  0.67949000  0.19653000  0.73908000  1.0 1.2785518183
Fe  Fe12  1  0.32051000  0.19653000  0.26092000  1.0 1.2785518183
Fe  Fe13  1  0.17949000  0.76092000  0.30347000  1.0 1.2785518183
Fe  Fe14  1  0.82051000  0.23908000  0.30347000  1.0 1.2785518183
Fe  Fe15  1  0.17949000  0.23908000  0.69653000  1.0 1.2785518183
Fe  Fe16  1  0.82051000  0.76092000  0.69653000  1.0 1.2785518183
Fe  Fe17  1  0.76092000  0.30347000  0.17949000  1.0 1.2785518183
Fe  Fe18  1  0.23908000  0.30347000  0.82051000  1.0 1.2785518183
Fe  Fe19  1  0.23908000  0.69653000  0.17949000  1.0 1.2785518183
Fe  Fe20  1  0.76092000  0.69653000  0.82051000  1.0 1.2785518183
Fe  Fe21  1  0.30347000  0.17949000  0.76092000  1.0 1.2785518183
Fe  Fe22  1  0.30347000  0.82051000  0.23908000  1.0 1.2785518183
Fe  Fe23  1  0.69653000  0.17949000  0.23908000  1.0 1.2785518183
Fe  Fe24  1  0.69653000  0.82051000  0.76092000  1.0 1.2785518183
H  H1  1  0.42520000  0.58300000  0.79500000  1.0 0.141956274
H  H2  1  0.57480000  0.41700000  0.79500000  1.0 0.141956274
H  H3  1  0.57480000  0.58300000  0.20500000  1.0 0.141956274
H  H4  1  0.42520000  0.41700000  0.20500000  1.0 0.141956274
H  H5  1  0.79500000  0.42520000  0.58300000  1.0 0.141956274
H  H6  1  0.79500000  0.57480000  0.41700000  1.0 0.141956274
H  H7  1  0.20500000  0.57480000  0.58300000  1.0 0.141956274
H  H8  1  0.20500000  0.42520000  0.41700000  1.0 0.141956274
H  H9  1  0.58300000  0.79500000  0.42520000  1.0 0.141956274
H  H10  1  0.41700000  0.79500000  0.57480000  1.0 0.141956274
H  H11  1  0.58300000  0.20500000  0.57480000  1.0 0.141956274
H  H12  1  0.41700000  0.20500000  0.42520000  1.0 0.141956274
H  H13  1  0.08300000  0.92520000  0.29500000  1.0 0.141956274
H  H14  1  0.91700000  0.07480000  0.29500000  1.0 0.141956274
H  H15  1  0.08300000  0.07480000  0.70500000  1.0 0.141956274
H  H16  1  0.91700000  0.92520000  0.70500000  1.0 0.141956274
H  H17  1  0.92520000  0.29500000  0.08300000  1.0 0.141956274
H  H18  1  0.07480000  0.29500000  0.91700000  1.0 0.141956274
H  H19  1  0.07480000  0.70500000  0.08300000  1.0 0.141956274
H  H20  1  0.92520000  0.70500000  0.91700000  1.0 0.141956274
H  H21  1  0.29500000  0.08300000  0.92520000  1.0 0.141956274
H  H22  1  0.29500000  0.91700000  0.07480000  1.0 0.141956274
H  H23  1  0.70500000  0.08300000  0.07480000  1.0 0.141956274
H  H24  1  0.70500000  0.91700000  0.92520000  1.0 0.141956274
H  H25  1  0.60940000  0.59300000  0.80870000  1.0 0.141956274
H  H26  1  0.39060000  0.40700000  0.80870000  1.0 0.141956274
H  H27  1  0.39060000  0.59300000  0.19130000  1.0 0.141956274
H  H28  1  0.60940000  0.40700000  0.19130000  1.0 0.141956274
H  H29  1  0.80870000  0.60940000  0.59300000  1.0 0.141956274
H  H30  1  0.80870000  0.39060000  0.40700000  1.0 0.141956274
H  H31  1  0.19130000  0.39060000  0.59300000  1.0 0.141956274
H  H32  1  0.19130000  0.60940000  0.40700000  1.0 0.141956274
H  H33  1  0.59300000  0.80870000  0.60940000  1.0 0.141956274
H  H34  1  0.40700000  0.80870000  0.39060000  1.0 0.141956274
H  H35  1  0.59300000  0.19130000  0.39060000  1.0 0.141956274
H  H36  1  0.40700000  0.19130000  0.60940000  1.0 0.141956274
H  H37  1  0.09300000  0.10940000  0.30870000  1.0 0.141956274
H  H38  1  0.90700000  0.89060000  0.30870000  1.0 0.141956274
H  H39  1  0.09300000  0.89060000  0.69130000  1.0 0.141956274
H  H40  1  0.90700000  0.10940000  0.69130000  1.0 0.141956274
H  H41  1  0.10940000  0.30870000  0.09300000  1.0 0.141956274
H  H42  1  0.89060000  0.30870000  0.90700000  1.0 0.141956274
H  H43  1  0.89060000  0.69130000  0.09300000  1.0 0.141956274
H  H44  1  0.10940000  0.69130000  0.90700000  1.0 0.141956274
H  H45  1  0.30870000  0.09300000  0.10940000  1.0 0.141956274
H  H46  1  0.30870000  0.90700000  0.89060000  1.0 0.141956274
H  H47  1  0.69130000  0.09300000  0.89060000  1.0 0.141956274
H  H48  1  0.69130000  0.90700000  0.10940000  1.0 0.141956274
H  H49  1  0.50860000  0.74460000  0.77460000  1.0 0.141956274
H  H50  1  0.49140000  0.25540000  0.77460000  1.0 0.141956274
H  H51  1  0.49140000  0.74460000  0.22540000  1.0 0.141956274
H  H52  1  0.50860000  0.25540000  0.22540000  1.0 0.141956274
H  H53  1  0.77460000  0.50860000  0.74460000  1.0 0.141956274
H  H54  1  0.77460000  0.49140000  0.25540000  1.0 0.141956274
H  H55  1  0.22540000  0.49140000  0.74460000  1.0 0.141956274
H  H56  1  0.22540000  0.50860000  0.25540000  1.0 0.141956274
H  H57  1  0.74460000  0.77460000  0.50860000  1.0 0.141956274
H  H58  1  0.25540000  0.77460000  0.49140000  1.0 0.141956274
H  H59  1  0.74460000  0.22540000  0.49140000  1.0 0.141956274
H  H60  1  0.25540000  0.22540000  0.50860000  1.0 0.141956274
H  H61  1  0.24460000  0.00860000  0.27460000  1.0 0.141956274
H  H62  1  0.75540000  0.99140000  0.27460000  1.0 0.141956274
H  H63  1  0.24460000  0.99140000  0.72540000  1.0 0.141956274
H  H64  1  0.75540000  0.00860000  0.72540000  1.0 0.141956274
H  H65  1  0.00860000  0.27460000  0.24460000  1.0 0.141956274
H  H66  1  0.99140000  0.27460000  0.75540000  1.0 0.141956274
H  H67  1  0.99140000  0.72540000  0.24460000  1.0 0.141956274
H  H68  1  0.00860000  0.72540000  0.75540000  1.0 0.141956274
H  H69  1  0.27460000  0.24460000  0.00860000  1.0 0.141956274
H  H70  1  0.27460000  0.75540000  0.99140000  1.0 0.141956274
H  H71  1  0.72540000  0.24460000  0.99140000  1.0 0.141956274
H  H72  1  0.72540000  0.75540000  0.00860000  1.0 0.141956274
C  C1  1  0.39560000  0.69680000  0.77620000  1.0 0.5998087577
C  C2  1  0.60440000  0.30320000  0.77620000  1.0 0.5998087577
C  C3  1  0.60440000  0.69680000  0.22380000  1.0 0.5998087577
C  C4  1  0.39560000  0.30320000  0.22380000  1.0 0.5998087577
C  C5  1  0.77620000  0.39560000  0.69680000  1.0 0.5998087577
C  C6  1  0.77620000  0.60440000  0.30320000  1.0 0.5998087577
C  C7  1  0.22380000  0.60440000  0.69680000  1.0 0.5998087577
C  C8  1  0.22380000  0.39560000  0.30320000  1.0 0.5998087577
C  C9  1  0.69680000  0.77620000  0.39560000  1.0 0.5998087577
C  C10  1  0.30320000  0.77620000  0.60440000  1.0 0.5998087577
C  C11  1  0.69680000  0.22380000  0.60440000  1.0 0.5998087577
C  C12  1  0.30320000  0.22380000  0.39560000  1.0 0.5998087577
C  C13  1  0.19680000  0.89560000  0.27620000  1.0 0.5998087577
C  C14  1  0.80320000  0.10440000  0.27620000  1.0 0.5998087577
C  C15  1  0.19680000  0.10440000  0.72380000  1.0 0.5998087577
C  C16  1  0.80320000  0.89560000  0.72380000  1.0 0.5998087577
C  C17  1  0.89560000  0.27620000  0.19680000  1.0 0.5998087577
C  C18  1  0.10440000  0.27620000  0.80320000  1.0 0.5998087577
C  C19  1  0.10440000  0.72380000  0.19680000  1.0 0.5998087577
C  C20  1  0.89560000  0.72380000  0.80320000  1.0 0.5998087577
C  C21  1  0.27620000  0.19680000  0.89560000  1.0 0.5998087577
C  C22  1  0.27620000  0.80320000  0.10440000  1.0 0.5998087577
C  C23  1  0.72380000  0.19680000  0.10440000  1.0 0.5998087577
C  C24  1  0.72380000  0.80320000  0.89560000  1.0 0.5998087577
C  C25  1  0.45740000  0.66920000  0.78480000  1.0 -0.0247468301
C  C26  1  0.54260000  0.33080000  0.78480000  1.0 -0.0247468301
C  C27  1  0.54260000  0.66920000  0.21520000  1.0 -0.0247468301
C  C28  1  0.45740000  0.33080000  0.21520000  1.0 -0.0247468301
C  C29  1  0.78480000  0.45740000  0.66920000  1.0 -0.0247468301
C  C30  1  0.78480000  0.54260000  0.33080000  1.0 -0.0247468301
C  C31  1  0.21520000  0.54260000  0.66920000  1.0 -0.0247468301
C  C32  1  0.21520000  0.45740000  0.33080000  1.0 -0.0247468301
C  C33  1  0.66920000  0.78480000  0.45740000  1.0 -0.0247468301
C  C34  1  0.33080000  0.78480000  0.54260000  1.0 -0.0247468301
C  C35  1  0.66920000  0.21520000  0.54260000  1.0 -0.0247468301
C  C36  1  0.33080000  0.21520000  0.45740000  1.0 -0.0247468301
C  C37  1  0.16920000  0.95740000  0.28480000  1.0 -0.0247468301
C  C38  1  0.83080000  0.04260000  0.28480000  1.0 -0.0247468301
C  C39  1  0.16920000  0.04260000  0.71520000  1.0 -0.0247468301
C  C40  1  0.83080000  0.95740000  0.71520000  1.0 -0.0247468301
C  C41  1  0.95740000  0.28480000  0.16920000  1.0 -0.0247468301
C  C42  1  0.04260000  0.28480000  0.83080000  1.0 -0.0247468301
C  C43  1  0.04260000  0.71520000  0.16920000  1.0 -0.0247468301
C  C44  1  0.95740000  0.71520000  0.83080000  1.0 -0.0247468301
C  C45  1  0.28480000  0.16920000  0.95740000  1.0 -0.0247468301
C  C46  1  0.28480000  0.83080000  0.04260000  1.0 -0.0247468301
C  C47  1  0.71520000  0.16920000  0.04260000  1.0 -0.0247468301
C  C48  1  0.71520000  0.83080000  0.95740000  1.0 -0.0247468301
C  C49  1  0.46120000  0.60650000  0.79440000  1.0 -0.1260065422
C  C50  1  0.53880000  0.39350000  0.79440000  1.0 -0.1260065422
C  C51  1  0.53880000  0.60650000  0.20560000  1.0 -0.1260065422
C  C52  1  0.46120000  0.39350000  0.20560000  1.0 -0.1260065422
C  C53  1  0.79440000  0.46120000  0.60650000  1.0 -0.1260065422
C  C54  1  0.79440000  0.53880000  0.39350000  1.0 -0.1260065422
C  C55  1  0.20560000  0.53880000  0.60650000  1.0 -0.1260065422
C  C56  1  0.20560000  0.46120000  0.39350000  1.0 -0.1260065422
C  C57  1  0.60650000  0.79440000  0.46120000  1.0 -0.1260065422
C  C58  1  0.39350000  0.79440000  0.53880000  1.0 -0.1260065422
C  C59  1  0.60650000  0.20560000  0.53880000  1.0 -0.1260065422
C  C60  1  0.39350000  0.20560000  0.46120000  1.0 -0.1260065422
C  C61  1  0.10650000  0.96120000  0.29440000  1.0 -0.1260065422
C  C62  1  0.89350000  0.03880000  0.29440000  1.0 -0.1260065422
C  C63  1  0.10650000  0.03880000  0.70560000  1.0 -0.1260065422
C  C64  1  0.89350000  0.96120000  0.70560000  1.0 -0.1260065422
C  C65  1  0.96120000  0.29440000  0.10650000  1.0 -0.1260065422
C  C66  1  0.03880000  0.29440000  0.89350000  1.0 -0.1260065422
C  C67  1  0.03880000  0.70560000  0.10650000  1.0 -0.1260065422
C  C68  1  0.96120000  0.70560000  0.89350000  1.0 -0.1260065422
C  C69  1  0.29440000  0.10650000  0.96120000  1.0 -0.1260065422
C  C70  1  0.29440000  0.89350000  0.03880000  1.0 -0.1260065422
C  C71  1  0.70560000  0.10650000  0.03880000  1.0 -0.1260065422
C  C72  1  0.70560000  0.89350000  0.96120000  1.0 -0.1260065422
C  C73  1  0.51460000  0.57940000  0.80270000  1.0 0.1111204661
C  C74  1  0.48540000  0.42060000  0.80270000  1.0 0.1111204661
C  C75  1  0.48540000  0.57940000  0.19730000  1.0 0.1111204661
C  C76  1  0.51460000  0.42060000  0.19730000  1.0 0.1111204661
C  C77  1  0.80270000  0.51460000  0.57940000  1.0 0.1111204661
C  C78  1  0.80270000  0.48540000  0.42060000  1.0 0.1111204661
C  C79  1  0.19730000  0.48540000  0.57940000  1.0 0.1111204661
C  C80  1  0.19730000  0.51460000  0.42060000  1.0 0.1111204661
C  C81  1  0.57940000  0.80270000  0.51460000  1.0 0.1111204661
C  C82  1  0.42060000  0.80270000  0.48540000  1.0 0.1111204661
C  C83  1  0.57940000  0.19730000  0.48540000  1.0 0.1111204661
C  C84  1  0.42060000  0.19730000  0.51460000  1.0 0.1111204661
C  C85  1  0.07940000  0.01460000  0.30270000  1.0 0.1111204661
C  C86  1  0.92060000  0.98540000  0.30270000  1.0 0.1111204661
C  C87  1  0.07940000  0.98540000  0.69730000  1.0 0.1111204661
C  C88  1  0.92060000  0.01460000  0.69730000  1.0 0.1111204661
C  C89  1  0.01460000  0.30270000  0.07940000  1.0 0.1111204661
C  C90  1  0.98540000  0.30270000  0.92060000  1.0 0.1111204661
C  C91  1  0.98540000  0.69730000  0.07940000  1.0 0.1111204661
C  C92  1  0.01460000  0.69730000  0.92060000  1.0 0.1111204661
C  C93  1  0.30270000  0.07940000  0.01460000  1.0 0.1111204661
C  C94  1  0.30270000  0.92060000  0.98540000  1.0 0.1111204661
C  C95  1  0.69730000  0.07940000  0.98540000  1.0 0.1111204661
C  C96  1  0.69730000  0.92060000  0.01460000  1.0 0.1111204661
C  C97  1  0.57170000  0.61280000  0.80280000  1.0 -0.107023342
C  C98  1  0.42830000  0.38720000  0.80280000  1.0 -0.107023342
C  C99  1  0.42830000  0.61280000  0.19720000  1.0 -0.107023342
C  C100  1  0.57170000  0.38720000  0.19720000  1.0 -0.107023342
C  C101  1  0.80280000  0.57170000  0.61280000  1.0 -0.107023342
C  C102  1  0.80280000  0.42830000  0.38720000  1.0 -0.107023342
C  C103  1  0.19720000  0.42830000  0.61280000  1.0 -0.107023342
C  C104  1  0.19720000  0.57170000  0.38720000  1.0 -0.107023342
C  C105  1  0.61280000  0.80280000  0.57170000  1.0 -0.107023342
C  C106  1  0.38720000  0.80280000  0.42830000  1.0 -0.107023342
C  C107  1  0.61280000  0.19720000  0.42830000  1.0 -0.107023342
C  C108  1  0.38720000  0.19720000  0.57170000  1.0 -0.107023342
C  C109  1  0.11280000  0.07170000  0.30280000  1.0 -0.107023342
C  C110  1  0.88720000  0.92830000  0.30280000  1.0 -0.107023342
C  C111  1  0.11280000  0.92830000  0.69720000  1.0 -0.107023342
C  C112  1  0.88720000  0.07170000  0.69720000  1.0 -0.107023342
C  C113  1  0.07170000  0.30280000  0.11280000  1.0 -0.107023342
C  C114  1  0.92830000  0.30280000  0.88720000  1.0 -0.107023342
C  C115  1  0.92830000  0.69720000  0.11280000  1.0 -0.107023342
C  C116  1  0.07170000  0.69720000  0.88720000  1.0 -0.107023342
C  C117  1  0.30280000  0.11280000  0.07170000  1.0 -0.107023342
C  C118  1  0.30280000  0.88720000  0.92830000  1.0 -0.107023342
C  C119  1  0.69720000  0.11280000  0.92830000  1.0 -0.107023342
C  C120  1  0.69720000  0.88720000  0.07170000  1.0 -0.107023342
C  C121  1  0.51040000  0.70250000  0.78310000  1.0 -0.062055338
C  C122  1  0.48960000  0.29750000  0.78310000  1.0 -0.062055338
C  C123  1  0.48960000  0.70250000  0.21690000  1.0 -0.062055338
C  C124  1  0.51040000  0.29750000  0.21690000  1.0 -0.062055338
C  C125  1  0.78310000  0.51040000  0.70250000  1.0 -0.062055338
C  C126  1  0.78310000  0.48960000  0.29750000  1.0 -0.062055338
C  C127  1  0.21690000  0.48960000  0.70250000  1.0 -0.062055338
C  C128  1  0.21690000  0.51040000  0.29750000  1.0 -0.062055338
C  C129  1  0.70250000  0.78310000  0.51040000  1.0 -0.062055338
C  C130  1  0.29750000  0.78310000  0.48960000  1.0 -0.062055338
C  C131  1  0.70250000  0.21690000  0.48960000  1.0 -0.062055338
C  C132  1  0.29750000  0.21690000  0.51040000  1.0 -0.062055338
C  C133  1  0.20250000  0.01040000  0.28310000  1.0 -0.062055338
C  C134  1  0.79750000  0.98960000  0.28310000  1.0 -0.062055338
C  C135  1  0.20250000  0.98960000  0.71690000  1.0 -0.062055338
C  C136  1  0.79750000  0.01040000  0.71690000  1.0 -0.062055338
C  C137  1  0.01040000  0.28310000  0.20250000  1.0 -0.062055338
C  C138  1  0.98960000  0.28310000  0.79750000  1.0 -0.062055338
C  C139  1  0.98960000  0.71690000  0.20250000  1.0 -0.062055338
C  C140  1  0.01040000  0.71690000  0.79750000  1.0 -0.062055338
C  C141  1  0.28310000  0.20250000  0.01040000  1.0 -0.062055338
C  C142  1  0.28310000  0.79750000  0.98960000  1.0 -0.062055338
C  C143  1  0.71690000  0.20250000  0.98960000  1.0 -0.062055338
C  C144  1  0.71690000  0.79750000  0.01040000  1.0 -0.062055338
C  C145  1  0.56800000  0.67480000  0.79380000  1.0 -0.062055338
C  C146  1  0.43200000  0.32520000  0.79380000  1.0 -0.062055338
C  C147  1  0.43200000  0.67480000  0.20620000  1.0 -0.062055338
C  C148  1  0.56800000  0.32520000  0.20620000  1.0 -0.062055338
C  C149  1  0.79380000  0.56800000  0.67480000  1.0 -0.062055338
C  C150  1  0.79380000  0.43200000  0.32520000  1.0 -0.062055338
C  C151  1  0.20620000  0.43200000  0.67480000  1.0 -0.062055338
C  C152  1  0.20620000  0.56800000  0.32520000  1.0 -0.062055338
C  C153  1  0.67480000  0.79380000  0.56800000  1.0 -0.062055338
C  C154  1  0.32520000  0.79380000  0.43200000  1.0 -0.062055338
C  C155  1  0.67480000  0.20620000  0.43200000  1.0 -0.062055338
C  C156  1  0.32520000  0.20620000  0.56800000  1.0 -0.062055338
C  C157  1  0.17480000  0.06800000  0.29380000  1.0 -0.062055338
C  C158  1  0.82520000  0.93200000  0.29380000  1.0 -0.062055338
C  C159  1  0.17480000  0.93200000  0.70620000  1.0 -0.062055338
C  C160  1  0.82520000  0.06800000  0.70620000  1.0 -0.062055338
C  C161  1  0.06800000  0.29380000  0.17480000  1.0 -0.062055338
C  C162  1  0.93200000  0.29380000  0.82520000  1.0 -0.062055338
C  C163  1  0.93200000  0.70620000  0.17480000  1.0 -0.062055338
C  C164  1  0.06800000  0.70620000  0.82520000  1.0 -0.062055338
C  C165  1  0.29380000  0.17480000  0.06800000  1.0 -0.062055338
C  C166  1  0.29380000  0.82520000  0.93200000  1.0 -0.062055338
C  C167  1  0.70620000  0.17480000  0.93200000  1.0 -0.062055338
C  C168  1  0.70620000  0.82520000  0.06800000  1.0 -0.062055338
C  C169  1  0.12580000  0.70610000  0.79240000  1.0 0.5998087577
C  C170  1  0.87420000  0.29390000  0.79240000  1.0 0.5998087577
C  C171  1  0.87420000  0.70610000  0.20760000  1.0 0.5998087577
C  C172  1  0.12580000  0.29390000  0.20760000  1.0 0.5998087577
C  C173  1  0.79240000  0.12580000  0.70610000  1.0 0.5998087577
C  C174  1  0.79240000  0.87420000  0.29390000  1.0 0.5998087577
C  C175  1  0.20760000  0.87420000  0.70610000  1.0 0.5998087577
C  C176  1  0.20760000  0.12580000  0.29390000  1.0 0.5998087577
C  C177  1  0.70610000  0.79240000  0.12580000  1.0 0.5998087577
C  C178  1  0.29390000  0.79240000  0.87420000  1.0 0.5998087577
C  C179  1  0.70610000  0.20760000  0.87420000  1.0 0.5998087577
C  C180  1  0.29390000  0.20760000  0.12580000  1.0 0.5998087577
C  C181  1  0.20610000  0.62580000  0.29240000  1.0 0.5998087577
C  C182  1  0.79390000  0.37420000  0.29240000  1.0 0.5998087577
C  C183  1  0.20610000  0.37420000  0.70760000  1.0 0.5998087577
C  C184  1  0.79390000  0.62580000  0.70760000  1.0 0.5998087577
C  C185  1  0.62580000  0.29240000  0.20610000  1.0 0.5998087577
C  C186  1  0.37420000  0.29240000  0.79390000  1.0 0.5998087577
C  C187  1  0.37420000  0.70760000  0.20610000  1.0 0.5998087577
C  C188  1  0.62580000  0.70760000  0.79390000  1.0 0.5998087577
C  C189  1  0.29240000  0.20610000  0.62580000  1.0 0.5998087577
C  C190  1  0.29240000  0.79390000  0.37420000  1.0 0.5998087577
C  C191  1  0.70760000  0.20610000  0.37420000  1.0 0.5998087577
C  C192  1  0.70760000  0.79390000  0.62580000  1.0 0.5998087577
N  N1  1  0.52410000  0.51260000  0.80490000  1.0 -0.07158815
N  N2  1  0.47590000  0.48740000  0.80490000  1.0 -0.07158815
N  N3  1  0.47590000  0.51260000  0.19510000  1.0 -0.07158815
N  N4  1  0.52410000  0.48740000  0.19510000  1.0 -0.07158815
N  N5  1  0.80490000  0.52410000  0.51260000  1.0 -0.07158815
N  N6  1  0.80490000  0.47590000  0.48740000  1.0 -0.07158815
N  N7  1  0.19510000  0.47590000  0.51260000  1.0 -0.07158815
N  N8  1  0.19510000  0.52410000  0.48740000  1.0 -0.07158815
N  N9  1  0.51260000  0.80490000  0.52410000  1.0 -0.07158815
N  N10  1  0.48740000  0.80490000  0.47590000  1.0 -0.07158815
N  N11  1  0.51260000  0.19510000  0.47590000  1.0 -0.07158815
N  N12  1  0.48740000  0.19510000  0.52410000  1.0 -0.07158815
N  N13  1  0.01260000  0.02410000  0.30490000  1.0 -0.07158815
N  N14  1  0.98740000  0.97590000  0.30490000  1.0 -0.07158815
N  N15  1  0.01260000  0.97590000  0.69510000  1.0 -0.07158815
N  N16  1  0.98740000  0.02410000  0.69510000  1.0 -0.07158815
N  N17  1  0.02410000  0.30490000  0.01260000  1.0 -0.07158815
N  N18  1  0.97590000  0.30490000  0.98740000  1.0 -0.07158815
N  N19  1  0.97590000  0.69510000  0.01260000  1.0 -0.07158815
N  N20  1  0.02410000  0.69510000  0.98740000  1.0 -0.07158815
N  N21  1  0.30490000  0.01260000  0.02410000  1.0 -0.07158815
N  N22  1  0.30490000  0.98740000  0.97590000  1.0 -0.07158815
N  N23  1  0.69510000  0.01260000  0.97590000  1.0 -0.07158815
N  N24  1  0.69510000  0.98740000  0.02410000  1.0 -0.07158815
Cl  Cl17  1  0.98330000  0.87690000  0.82780000  0.16 -0.34321459
Cl  Cl18  1  0.98330000  0.12310000  0.17220000  0.16 -0.34321459
Cl  Cl19  1  0.01670000  0.87690000  0.17220000  0.16 -0.34321459
Cl  Cl20  1  0.01670000  0.12310000  0.82780000  0.16 -0.34321459
Cl  Cl21  1  0.82780000  0.98330000  0.87690000  0.16 -0.34321459
Cl  Cl22  1  0.17220000  0.98330000  0.12310000  0.16 -0.34321459
Cl  Cl23  1  0.17220000  0.01670000  0.87690000  0.16 -0.34321459
Cl  Cl24  1  0.82780000  0.01670000  0.12310000  0.16 -0.34321459
Cl  Cl25  1  0.87690000  0.82780000  0.98330000  0.16 -0.34321459
Cl  Cl26  1  0.12310000  0.17220000  0.98330000  0.16 -0.34321459
Cl  Cl27  1  0.87690000  0.17220000  0.01670000  0.16 -0.34321459
Cl  Cl28  1  0.12310000  0.82780000  0.01670000  0.16 -0.34321459
Cl  Cl29  1  0.37690000  0.48330000  0.32780000  0.16 -0.34321459
Cl  Cl30  1  0.62310000  0.48330000  0.67220000  0.16 -0.34321459
Cl  Cl31  1  0.37690000  0.51670000  0.67220000  0.16 -0.34321459
Cl  Cl32  1  0.62310000  0.51670000  0.32780000  0.16 -0.34321459
Cl  Cl33  1  0.48330000  0.32780000  0.37690000  0.16 -0.34321459
Cl  Cl34  1  0.48330000  0.67220000  0.62310000  0.16 -0.34321459
Cl  Cl35  1  0.51670000  0.67220000  0.37690000  0.16 -0.34321459
Cl  Cl36  1  0.51670000  0.32780000  0.62310000  0.16 -0.34321459
Cl  Cl37  1  0.32780000  0.37690000  0.48330000  0.16 -0.34321459
Cl  Cl38  1  0.67220000  0.62310000  0.48330000  0.16 -0.34321459
Cl  Cl39  1  0.67220000  0.37690000  0.51670000  0.16 -0.34321459
Cl  Cl40  1  0.32780000  0.62310000  0.51670000  0.16 -0.34321459
Cl  Cl9  1  0.87500000  0.87500000  0.87500000  0.2 0.4210694744
Cl  Cl10  1  0.12500000  0.12500000  0.87500000  0.2 0.4210694744
Cl  Cl11  1  0.87500000  0.12500000  0.12500000  0.2 0.4210694744
Cl  Cl12  1  0.12500000  0.87500000  0.12500000  0.2 0.4210694744
Cl  Cl13  1  0.37500000  0.37500000  0.37500000  0.2 0.4210694744
Cl  Cl14  1  0.62500000  0.62500000  0.37500000  0.2 0.4210694744
Cl  Cl15  1  0.62500000  0.37500000  0.62500000  0.2 0.4210694744
Cl  Cl16  1  0.37500000  0.62500000  0.62500000  0.2 0.4210694744
Cl  Cl1  1  0.63990000  0.63990000  0.63990000  0.33 -0.1978849959
Cl  Cl2  1  0.36010000  0.36010000  0.63990000  0.33 -0.1978849959
Cl  Cl3  1  0.63990000  0.36010000  0.36010000  0.33 -0.1978849959
Cl  Cl4  1  0.36010000  0.63990000  0.36010000  0.33 -0.1978849959
Cl  Cl5  1  0.13990000  0.13990000  0.13990000  0.33 -0.1978849959
Cl  Cl6  1  0.86010000  0.86010000  0.13990000  0.33 -0.1978849959
Cl  Cl7  1  0.86010000  0.13990000  0.86010000  0.33 -0.1978849959
Cl  Cl8  1  0.13990000  0.86010000  0.86010000  0.33 -0.1978849959
O  O1  1  0.26010000  0.73990000  0.73990000  1.0 -0.8296709195
O  O2  1  0.73990000  0.26010000  0.73990000  1.0 -0.8296709195
O  O3  1  0.73990000  0.73990000  0.26010000  1.0 -0.8296709195
O  O4  1  0.26010000  0.26010000  0.26010000  1.0 -0.8296709195
O  O5  1  0.23990000  0.76010000  0.23990000  1.0 -0.8296709195
O  O6  1  0.76010000  0.23990000  0.23990000  1.0 -0.8296709195
O  O7  1  0.23990000  0.23990000  0.76010000  1.0 -0.8296709195
O  O8  1  0.76010000  0.76010000  0.76010000  1.0 -0.8296709195
O  O9  1  0.34980000  0.66540000  0.79560000  1.0 -0.522169822
O  O10  1  0.65020000  0.33460000  0.79560000  1.0 -0.522169822
O  O11  1  0.65020000  0.66540000  0.20440000  1.0 -0.522169822
O  O12  1  0.34980000  0.33460000  0.20440000  1.0 -0.522169822
O  O13  1  0.79560000  0.34980000  0.66540000  1.0 -0.522169822
O  O14  1  0.79560000  0.65020000  0.33460000  1.0 -0.522169822
O  O15  1  0.20440000  0.65020000  0.66540000  1.0 -0.522169822
O  O16  1  0.20440000  0.34980000  0.33460000  1.0 -0.522169822
O  O17  1  0.66540000  0.79560000  0.34980000  1.0 -0.522169822
O  O18  1  0.33460000  0.79560000  0.65020000  1.0 -0.522169822
O  O19  1  0.66540000  0.20440000  0.65020000  1.0 -0.522169822
O  O20  1  0.33460000  0.20440000  0.34980000  1.0 -0.522169822
O  O21  1  0.16540000  0.84980000  0.29560000  1.0 -0.522169822
O  O22  1  0.83460000  0.15020000  0.29560000  1.0 -0.522169822
O  O23  1  0.16540000  0.15020000  0.70440000  1.0 -0.522169822
O  O24  1  0.83460000  0.84980000  0.70440000  1.0 -0.522169822
O  O25  1  0.84980000  0.29560000  0.16540000  1.0 -0.522169822
O  O26  1  0.15020000  0.29560000  0.83460000  1.0 -0.522169822
O  O27  1  0.15020000  0.70440000  0.16540000  1.0 -0.522169822
O  O28  1  0.84980000  0.70440000  0.83460000  1.0 -0.522169822
O  O29  1  0.29560000  0.16540000  0.84980000  1.0 -0.522169822
O  O30  1  0.29560000  0.83460000  0.15020000  1.0 -0.522169822
O  O31  1  0.70440000  0.16540000  0.15020000  1.0 -0.522169822
O  O32  1  0.70440000  0.83460000  0.84980000  1.0 -0.522169822
O  O33  1  0.39270000  0.74990000  0.75470000  1.0 -0.522169822
O  O34  1  0.60730000  0.25010000  0.75470000  1.0 -0.522169822
O  O35  1  0.60730000  0.74990000  0.24530000  1.0 -0.522169822
O  O36  1  0.39270000  0.25010000  0.24530000  1.0 -0.522169822
O  O37  1  0.75470000  0.39270000  0.74990000  1.0 -0.522169822
O  O38  1  0.75470000  0.60730000  0.25010000  1.0 -0.522169822
O  O39  1  0.24530000  0.60730000  0.74990000  1.0 -0.522169822
O  O40  1  0.24530000  0.39270000  0.25010000  1.0 -0.522169822
O  O41  1  0.74990000  0.75470000  0.39270000  1.0 -0.522169822
O  O42  1  0.25010000  0.75470000  0.60730000  1.0 -0.522169822
O  O43  1  0.74990000  0.24530000  0.60730000  1.0 -0.522169822
O  O44  1  0.25010000  0.24530000  0.39270000  1.0 -0.522169822
O  O45  1  0.24990000  0.89270000  0.25470000  1.0 -0.522169822
O  O46  1  0.75010000  0.10730000  0.25470000  1.0 -0.522169822
O  O47  1  0.24990000  0.10730000  0.74530000  1.0 -0.522169822
O  O48  1  0.75010000  0.89270000  0.74530000  1.0 -0.522169822
O  O49  1  0.89270000  0.25470000  0.24990000  1.0 -0.522169822
O  O50  1  0.10730000  0.25470000  0.75010000  1.0 -0.522169822
O  O51  1  0.10730000  0.74530000  0.24990000  1.0 -0.522169822
O  O52  1  0.89270000  0.74530000  0.75010000  1.0 -0.522169822
O  O53  1  0.25470000  0.24990000  0.89270000  1.0 -0.522169822
O  O54  1  0.25470000  0.75010000  0.10730000  1.0 -0.522169822
O  O55  1  0.74530000  0.24990000  0.10730000  1.0 -0.522169822
O  O56  1  0.74530000  0.75010000  0.89270000  1.0 -0.522169822
O  O57  1  0.27410000  0.73660000  0.87380000  1.0 -0.522169822
O  O58  1  0.72590000  0.26340000  0.87380000  1.0 -0.522169822
O  O59  1  0.72590000  0.73660000  0.12620000  1.0 -0.522169822
O  O60  1  0.27410000  0.26340000  0.12620000  1.0 -0.522169822
O  O61  1  0.87380000  0.27410000  0.73660000  1.0 -0.522169822
O  O62  1  0.87380000  0.72590000  0.26340000  1.0 -0.522169822
O  O63  1  0.12620000  0.72590000  0.73660000  1.0 -0.522169822
O  O64  1  0.12620000  0.27410000  0.26340000  1.0 -0.522169822
O  O65  1  0.73660000  0.87380000  0.27410000  1.0 -0.522169822
O  O66  1  0.26340000  0.87380000  0.72590000  1.0 -0.522169822
O  O67  1  0.73660000  0.12620000  0.72590000  1.0 -0.522169822
O  O68  1  0.26340000  0.12620000  0.27410000  1.0 -0.522169822
O  O69  1  0.23660000  0.77410000  0.37380000  1.0 -0.522169822
O  O70  1  0.76340000  0.22590000  0.37380000  1.0 -0.522169822
O  O71  1  0.23660000  0.22590000  0.62620000  1.0 -0.522169822
O  O72  1  0.76340000  0.77410000  0.62620000  1.0 -0.522169822
O  O73  1  0.77410000  0.37380000  0.23660000  1.0 -0.522169822
O  O74  1  0.22590000  0.37380000  0.76340000  1.0 -0.522169822
O  O75  1  0.22590000  0.62620000  0.23660000  1.0 -0.522169822
O  O76  1  0.77410000  0.62620000  0.76340000  1.0 -0.522169822
O  O77  1  0.37380000  0.23660000  0.77410000  1.0 -0.522169822
O  O78  1  0.37380000  0.76340000  0.22590000  1.0 -0.522169822
O  O79  1  0.62620000  0.23660000  0.22590000  1.0 -0.522169822
O  O80  1  0.62620000  0.76340000  0.77410000  1.0 -0.522169822
O  O81  1  0.17120000  0.68570000  0.81910000  1.0 -0.5256934549
O  O82  1  0.82880000  0.31430000  0.81910000  1.0 -0.5256934549
O  O83  1  0.82880000  0.68570000  0.18090000  1.0 -0.5256934549
O  O84  1  0.17120000  0.31430000  0.18090000  1.0 -0.5256934549
O  O85  1  0.81910000  0.17120000  0.68570000  1.0 -0.5256934549
O  O86  1  0.81910000  0.82880000  0.31430000  1.0 -0.5256934549
O  O87  1  0.18090000  0.82880000  0.68570000  1.0 -0.5256934549
O  O88  1  0.18090000  0.17120000  0.31430000  1.0 -0.5256934549
O  O89  1  0.68570000  0.81910000  0.17120000  1.0 -0.5256934549
O  O90  1  0.31430000  0.81910000  0.82880000  1.0 -0.5256934549
O  O91  1  0.68570000  0.18090000  0.82880000  1.0 -0.5256934549
O  O92  1  0.31430000  0.18090000  0.17120000  1.0 -0.5256934549
O  O93  1  0.18570000  0.67120000  0.31910000  1.0 -0.5256934549
O  O94  1  0.81430000  0.32880000  0.31910000  1.0 -0.5256934549
O  O95  1  0.18570000  0.32880000  0.68090000  1.0 -0.5256934549
O  O96  1  0.81430000  0.67120000  0.68090000  1.0 -0.5256934549
O  O97  1  0.67120000  0.31910000  0.18570000  1.0 -0.5256934549
O  O98  1  0.32880000  0.31910000  0.81430000  1.0 -0.5256934549
O  O99  1  0.32880000  0.68090000  0.18570000  1.0 -0.5256934549
O  O100  1  0.67120000  0.68090000  0.81430000  1.0 -0.5256934549
O  O101  1  0.31910000  0.18570000  0.67120000  1.0 -0.5256934549
O  O102  1  0.31910000  0.81430000  0.32880000  1.0 -0.5256934549
O  O103  1  0.68090000  0.18570000  0.32880000  1.0 -0.5256934549
O  O104  1  0.68090000  0.81430000  0.67120000  1.0 -0.5256934549
O  O105  1  0.26180000  0.61340000  0.87270000  1.0 0.0741278737
O  O106  1  0.73820000  0.38660000  0.87270000  1.0 0.0763620243
O  O107  1  0.73820000  0.61340000  0.12730000  1.0 0.0763620243
O  O108  1  0.26180000  0.38660000  0.12730000  1.0 0.0763620243
O  O109  1  0.87270000  0.26180000  0.61340000  1.0 0.0763620243
O  O110  1  0.87270000  0.73820000  0.38660000  1.0 0.0763620243
O  O111  1  0.12730000  0.73820000  0.61340000  1.0 0.0763620243
O  O112  1  0.12730000  0.26180000  0.38660000  1.0 0.0763620243
O  O113  1  0.61340000  0.87270000  0.26180000  1.0 0.0763620243
O  O114  1  0.38660000  0.87270000  0.73820000  1.0 0.0741278737
O  O115  1  0.61340000  0.12730000  0.73820000  1.0 0.0763620243
O  O116  1  0.38660000  0.12730000  0.26180000  1.0 0.0763620243
O  O117  1  0.11340000  0.76180000  0.37270000  1.0 0.0763620243
O  O118  1  0.88660000  0.23820000  0.37270000  1.0 0.0763620243
O  O119  1  0.11340000  0.23820000  0.62730000  1.0 0.0741278737
O  O120  1  0.88660000  0.76180000  0.62730000  1.0 0.0763620243
O  O121  1  0.76180000  0.37270000  0.11340000  1.0 0.0763620243
O  O122  1  0.23820000  0.37270000  0.88660000  1.0 0.0741278737
O  O123  1  0.23820000  0.62730000  0.11340000  1.0 0.0763620243
O  O124  1  0.76180000  0.62730000  0.88660000  1.0 0.0763620243
O  O125  1  0.37270000  0.11340000  0.76180000  1.0 0.0741278737
O  O126  1  0.37270000  0.88660000  0.23820000  1.0 0.0763620243
O  O127  1  0.62730000  0.11340000  0.23820000  1.0 0.0763620243
O  O128  1  0.62730000  0.88660000  0.76180000  1.0 0.0763620243
