# DDEC6 charges by PACMAN v1.1 (https://github.com/mtap-research/PACMAN-charge/)
data_cg100357q_si_002_FSR_pacman
_symmetry_space_group_name_H-M   'P 1'
_cell_length_a   10.74480000
_cell_length_b   36.86800000
_cell_length_c   60.43500000
_cell_angle_alpha   90.00000000
_cell_angle_beta   90.00000000
_cell_angle_gamma   90.00000000
_symmetry_Int_Tables_number   1
_chemical_formula_structural   ZnH18C26NO4
_chemical_formula_sum   'Zn32 H576 C832 N32 O128'
_cell_volume   23940.67777358
_cell_formula_units_Z   32
loop_
 _symmetry_equiv_pos_site_id
 _symmetry_equiv_pos_as_xyz
  1  'x, y, z'
loop_
 _atom_site_type_symbol
 _atom_site_label
 _atom_site_symmetry_multiplicity
 _atom_site_fract_x
 _atom_site_fract_y
 _atom_site_fract_z
 _atom_site_occupancy
 _atom_site_charge
Zn  Zn1  1  0.21740000  0.21208000  0.00633000  1.0 0.7460952928
Zn  Zn2  1  0.53260000  0.53792000  0.00633000  1.0 0.7460952928
Zn  Zn3  1  0.53260000  0.21208000  0.74367000  1.0 0.7460952928
Zn  Zn4  1  0.21740000  0.53792000  0.74367000  1.0 0.7460952928
Zn  Zn5  1  0.21740000  0.71208000  0.50633000  1.0 0.7460952928
Zn  Zn6  1  0.53260000  0.03792000  0.50633000  1.0 0.7460952928
Zn  Zn7  1  0.53260000  0.71208000  0.24367000  1.0 0.7460952928
Zn  Zn8  1  0.21740000  0.03792000  0.24367000  1.0 0.7460952928
Zn  Zn9  1  0.71740000  0.21208000  0.50633000  1.0 0.7460952928
Zn  Zn10  1  0.03260000  0.53792000  0.50633000  1.0 0.7460952928
Zn  Zn11  1  0.03260000  0.21208000  0.24367000  1.0 0.7460952928
Zn  Zn12  1  0.71740000  0.53792000  0.24367000  1.0 0.7460952928
Zn  Zn13  1  0.71740000  0.71208000  0.00633000  1.0 0.7460952928
Zn  Zn14  1  0.03260000  0.03792000  0.00633000  1.0 0.7460952928
Zn  Zn15  1  0.03260000  0.71208000  0.74367000  1.0 0.7460952928
Zn  Zn16  1  0.71740000  0.03792000  0.74367000  1.0 0.7460952928
Zn  Zn17  1  0.78260000  0.78792000  0.99367000  1.0 0.7460952928
Zn  Zn18  1  0.46740000  0.46208000  0.99367000  1.0 0.7460952928
Zn  Zn19  1  0.46740000  0.78792000  0.25633000  1.0 0.7460952928
Zn  Zn20  1  0.78260000  0.46208000  0.25633000  1.0 0.7460952928
Zn  Zn21  1  0.78260000  0.28792000  0.49367000  1.0 0.7460952928
Zn  Zn22  1  0.46740000  0.96208000  0.49367000  1.0 0.7460952928
Zn  Zn23  1  0.46740000  0.28792000  0.75633000  1.0 0.7460952928
Zn  Zn24  1  0.78260000  0.96208000  0.75633000  1.0 0.7460952928
Zn  Zn25  1  0.28260000  0.78792000  0.49367000  1.0 0.7460952928
Zn  Zn26  1  0.96740000  0.46208000  0.49367000  1.0 0.7460952928
Zn  Zn27  1  0.96740000  0.78792000  0.75633000  1.0 0.7460952928
Zn  Zn28  1  0.28260000  0.46208000  0.75633000  1.0 0.7460952928
Zn  Zn29  1  0.28260000  0.28792000  0.99367000  1.0 0.7460952928
Zn  Zn30  1  0.96740000  0.96208000  0.99367000  1.0 0.7460952928
Zn  Zn31  1  0.96740000  0.28792000  0.25633000  1.0 0.7460952928
Zn  Zn32  1  0.28260000  0.96208000  0.25633000  1.0 0.7460952928
H  H1  1  0.92680000  0.31820000  0.96260000  1.0 0.1281879431
H  H2  1  0.82320000  0.43180000  0.96260000  1.0 0.1281879431
H  H3  1  0.82320000  0.31820000  0.78740000  1.0 0.1281879431
H  H4  1  0.92680000  0.43180000  0.78740000  1.0 0.1281879431
H  H5  1  0.92680000  0.81820000  0.46260000  1.0 0.1281879431
H  H6  1  0.82320000  0.93180000  0.46260000  1.0 0.1281879431
H  H7  1  0.82320000  0.81820000  0.28740000  1.0 0.1281879431
H  H8  1  0.92680000  0.93180000  0.28740000  1.0 0.1281879431
H  H9  1  0.42680000  0.31820000  0.46260000  1.0 0.1281879431
H  H10  1  0.32320000  0.43180000  0.46260000  1.0 0.1281879431
H  H11  1  0.32320000  0.31820000  0.28740000  1.0 0.1281879431
H  H12  1  0.42680000  0.43180000  0.28740000  1.0 0.1281879431
H  H13  1  0.42680000  0.81820000  0.96260000  1.0 0.1281879431
H  H14  1  0.32320000  0.93180000  0.96260000  1.0 0.1281879431
H  H15  1  0.32320000  0.81820000  0.78740000  1.0 0.1281879431
H  H16  1  0.42680000  0.93180000  0.78740000  1.0 0.1281879431
H  H17  1  0.07320000  0.68180000  0.03740000  1.0 0.1281879431
H  H18  1  0.17680000  0.56820000  0.03740000  1.0 0.1281879431
H  H19  1  0.17680000  0.68180000  0.21260000  1.0 0.1281879431
H  H20  1  0.07320000  0.56820000  0.21260000  1.0 0.1281879431
H  H21  1  0.07320000  0.18180000  0.53740000  1.0 0.1281879431
H  H22  1  0.17680000  0.06820000  0.53740000  1.0 0.1281879431
H  H23  1  0.17680000  0.18180000  0.71260000  1.0 0.1281879431
H  H24  1  0.07320000  0.06820000  0.71260000  1.0 0.1281879431
H  H25  1  0.57320000  0.68180000  0.53740000  1.0 0.1281879431
H  H26  1  0.67680000  0.56820000  0.53740000  1.0 0.1281879431
H  H27  1  0.67680000  0.68180000  0.71260000  1.0 0.1281879431
H  H28  1  0.57320000  0.56820000  0.71260000  1.0 0.1281879431
H  H29  1  0.57320000  0.18180000  0.03740000  1.0 0.1281879431
H  H30  1  0.67680000  0.06820000  0.03740000  1.0 0.1281879431
H  H31  1  0.67680000  0.18180000  0.21260000  1.0 0.1281879431
H  H32  1  0.57320000  0.06820000  0.21260000  1.0 0.1281879431
H  H33  1  0.58090000  0.27780000  0.95370000  1.0 0.1194192329
H  H34  1  0.16910000  0.47220000  0.95370000  1.0 0.1194192329
H  H35  1  0.16910000  0.27780000  0.79630000  1.0 0.1194192329
H  H36  1  0.58090000  0.47220000  0.79630000  1.0 0.1194192329
H  H37  1  0.58090000  0.77780000  0.45370000  1.0 0.1194192329
H  H38  1  0.16910000  0.97220000  0.45370000  1.0 0.1194192329
H  H39  1  0.16910000  0.77780000  0.29630000  1.0 0.1194192329
H  H40  1  0.58090000  0.97220000  0.29630000  1.0 0.1194192329
H  H41  1  0.08090000  0.27780000  0.45370000  1.0 0.1194192329
H  H42  1  0.66910000  0.47220000  0.45370000  1.0 0.1194192329
H  H43  1  0.66910000  0.27780000  0.29630000  1.0 0.1194192329
H  H44  1  0.08090000  0.47220000  0.29630000  1.0 0.1194192329
H  H45  1  0.08090000  0.77780000  0.95370000  1.0 0.1194192329
H  H46  1  0.66910000  0.97220000  0.95370000  1.0 0.1194192329
H  H47  1  0.66910000  0.77780000  0.79630000  1.0 0.1194192329
H  H48  1  0.08090000  0.97220000  0.79630000  1.0 0.1194192329
H  H49  1  0.41910000  0.72220000  0.04630000  1.0 0.1194192329
H  H50  1  0.83090000  0.52780000  0.04630000  1.0 0.1194192329
H  H51  1  0.83090000  0.72220000  0.20370000  1.0 0.1194192329
H  H52  1  0.41910000  0.52780000  0.20370000  1.0 0.1194192329
H  H53  1  0.41910000  0.22220000  0.54630000  1.0 0.1194192329
H  H54  1  0.83090000  0.02780000  0.54630000  1.0 0.1194192329
H  H55  1  0.83090000  0.22220000  0.70370000  1.0 0.1194192329
H  H56  1  0.41910000  0.02780000  0.70370000  1.0 0.1194192329
H  H57  1  0.91910000  0.72220000  0.54630000  1.0 0.1194192329
H  H58  1  0.33090000  0.52780000  0.54630000  1.0 0.1194192329
H  H59  1  0.33090000  0.72220000  0.70370000  1.0 0.1194192329
H  H60  1  0.91910000  0.52780000  0.70370000  1.0 0.1194192329
H  H61  1  0.91910000  0.22220000  0.04630000  1.0 0.1194192329
H  H62  1  0.33090000  0.02780000  0.04630000  1.0 0.1194192329
H  H63  1  0.33090000  0.22220000  0.20370000  1.0 0.1194192329
H  H64  1  0.91910000  0.02780000  0.20370000  1.0 0.1194192329
H  H65  1  0.64340000  0.22360000  0.96870000  1.0 0.1194192329
H  H66  1  0.10660000  0.52640000  0.96870000  1.0 0.1194192329
H  H67  1  0.10660000  0.22360000  0.78130000  1.0 0.1194192329
H  H68  1  0.64340000  0.52640000  0.78130000  1.0 0.1194192329
H  H69  1  0.64340000  0.72360000  0.46870000  1.0 0.1194192329
H  H70  1  0.10660000  0.02640000  0.46870000  1.0 0.1194192329
H  H71  1  0.10660000  0.72360000  0.28130000  1.0 0.1194192329
H  H72  1  0.64340000  0.02640000  0.28130000  1.0 0.1194192329
H  H73  1  0.14340000  0.22360000  0.46870000  1.0 0.1194192329
H  H74  1  0.60660000  0.52640000  0.46870000  1.0 0.1194192329
H  H75  1  0.60660000  0.22360000  0.28130000  1.0 0.1194192329
H  H76  1  0.14340000  0.52640000  0.28130000  1.0 0.1194192329
H  H77  1  0.14340000  0.72360000  0.96870000  1.0 0.1194192329
H  H78  1  0.60660000  0.02640000  0.96870000  1.0 0.1194192329
H  H79  1  0.60660000  0.72360000  0.78130000  1.0 0.1194192329
H  H80  1  0.14340000  0.02640000  0.78130000  1.0 0.1194192329
H  H81  1  0.35660000  0.77640000  0.03130000  1.0 0.1194192329
H  H82  1  0.89340000  0.47360000  0.03130000  1.0 0.1194192329
H  H83  1  0.89340000  0.77640000  0.21870000  1.0 0.1194192329
H  H84  1  0.35660000  0.47360000  0.21870000  1.0 0.1194192329
H  H85  1  0.35660000  0.27640000  0.53130000  1.0 0.1194192329
H  H86  1  0.89340000  0.97360000  0.53130000  1.0 0.1194192329
H  H87  1  0.89340000  0.27640000  0.71870000  1.0 0.1194192329
H  H88  1  0.35660000  0.97360000  0.71870000  1.0 0.1194192329
H  H89  1  0.85660000  0.77640000  0.53130000  1.0 0.1194192329
H  H90  1  0.39340000  0.47360000  0.53130000  1.0 0.1194192329
H  H91  1  0.39340000  0.77640000  0.71870000  1.0 0.1194192329
H  H92  1  0.85660000  0.47360000  0.71870000  1.0 0.1194192329
H  H93  1  0.85660000  0.27640000  0.03130000  1.0 0.1194192329
H  H94  1  0.39340000  0.97360000  0.03130000  1.0 0.1194192329
H  H95  1  0.39340000  0.27640000  0.21870000  1.0 0.1194192329
H  H96  1  0.85660000  0.97360000  0.21870000  1.0 0.1194192329
H  H97  1  0.84320000  0.21650000  0.98330000  1.0 0.1126714008
H  H98  1  0.90680000  0.53350000  0.98330000  1.0 0.1126714008
H  H99  1  0.90680000  0.21650000  0.76670000  1.0 0.1126714008
H  H100  1  0.84320000  0.53350000  0.76670000  1.0 0.1126714008
H  H101  1  0.84320000  0.71650000  0.48330000  1.0 0.1126714008
H  H102  1  0.90680000  0.03350000  0.48330000  1.0 0.1126714008
H  H103  1  0.90680000  0.71650000  0.26670000  1.0 0.1126714008
H  H104  1  0.84320000  0.03350000  0.26670000  1.0 0.1126714008
H  H105  1  0.34320000  0.21650000  0.48330000  1.0 0.1126714008
H  H106  1  0.40680000  0.53350000  0.48330000  1.0 0.1126714008
H  H107  1  0.40680000  0.21650000  0.26670000  1.0 0.1126714008
H  H108  1  0.34320000  0.53350000  0.26670000  1.0 0.1126714008
H  H109  1  0.34320000  0.71650000  0.98330000  1.0 0.1126714008
H  H110  1  0.40680000  0.03350000  0.98330000  1.0 0.1126714008
H  H111  1  0.40680000  0.71650000  0.76670000  1.0 0.1126714008
H  H112  1  0.34320000  0.03350000  0.76670000  1.0 0.1126714008
H  H113  1  0.15680000  0.78350000  0.01670000  1.0 0.1126714008
H  H114  1  0.09320000  0.46650000  0.01670000  1.0 0.1126714008
H  H115  1  0.09320000  0.78350000  0.23330000  1.0 0.1126714008
H  H116  1  0.15680000  0.46650000  0.23330000  1.0 0.1126714008
H  H117  1  0.15680000  0.28350000  0.51670000  1.0 0.1126714008
H  H118  1  0.09320000  0.96650000  0.51670000  1.0 0.1126714008
H  H119  1  0.09320000  0.28350000  0.73330000  1.0 0.1126714008
H  H120  1  0.15680000  0.96650000  0.73330000  1.0 0.1126714008
H  H121  1  0.65680000  0.78350000  0.51670000  1.0 0.1126714008
H  H122  1  0.59320000  0.46650000  0.51670000  1.0 0.1126714008
H  H123  1  0.59320000  0.78350000  0.73330000  1.0 0.1126714008
H  H124  1  0.65680000  0.46650000  0.73330000  1.0 0.1126714008
H  H125  1  0.65680000  0.28350000  0.01670000  1.0 0.1126714008
H  H126  1  0.59320000  0.96650000  0.01670000  1.0 0.1126714008
H  H127  1  0.59320000  0.28350000  0.23330000  1.0 0.1126714008
H  H128  1  0.65680000  0.96650000  0.23330000  1.0 0.1126714008
H  H385  1  0.41850000  0.48320000  0.82440000  1.0 0.1281879431
H  H386  1  0.33150000  0.26680000  0.82440000  1.0 0.1281879431
H  H387  1  0.33150000  0.48320000  0.92560000  1.0 0.1281879431
H  H388  1  0.41850000  0.26680000  0.92560000  1.0 0.1281879431
H  H389  1  0.41850000  0.98320000  0.32440000  1.0 0.1281879431
H  H390  1  0.33150000  0.76680000  0.32440000  1.0 0.1281879431
H  H391  1  0.33150000  0.98320000  0.42560000  1.0 0.1281879431
H  H392  1  0.41850000  0.76680000  0.42560000  1.0 0.1281879431
H  H393  1  0.91850000  0.48320000  0.32440000  1.0 0.1281879431
H  H394  1  0.83150000  0.26680000  0.32440000  1.0 0.1281879431
H  H395  1  0.83150000  0.48320000  0.42560000  1.0 0.1281879431
H  H396  1  0.91850000  0.26680000  0.42560000  1.0 0.1281879431
H  H397  1  0.91850000  0.98320000  0.82440000  1.0 0.1281879431
H  H398  1  0.83150000  0.76680000  0.82440000  1.0 0.1281879431
H  H399  1  0.83150000  0.98320000  0.92560000  1.0 0.1281879431
H  H400  1  0.91850000  0.76680000  0.92560000  1.0 0.1281879431
H  H401  1  0.58150000  0.51680000  0.17560000  1.0 0.1281879431
H  H402  1  0.66850000  0.73320000  0.17560000  1.0 0.1281879431
H  H403  1  0.66850000  0.51680000  0.07440000  1.0 0.1281879431
H  H404  1  0.58150000  0.73320000  0.07440000  1.0 0.1281879431
H  H405  1  0.58150000  0.01680000  0.67560000  1.0 0.1281879431
H  H406  1  0.66850000  0.23320000  0.67560000  1.0 0.1281879431
H  H407  1  0.66850000  0.01680000  0.57440000  1.0 0.1281879431
H  H408  1  0.58150000  0.23320000  0.57440000  1.0 0.1281879431
H  H409  1  0.08150000  0.51680000  0.67560000  1.0 0.1281879431
H  H410  1  0.16850000  0.73320000  0.67560000  1.0 0.1281879431
H  H411  1  0.16850000  0.51680000  0.57440000  1.0 0.1281879431
H  H412  1  0.08150000  0.73320000  0.57440000  1.0 0.1281879431
H  H413  1  0.08150000  0.01680000  0.17560000  1.0 0.1281879431
H  H414  1  0.16850000  0.23320000  0.17560000  1.0 0.1281879431
H  H415  1  0.16850000  0.01680000  0.07440000  1.0 0.1281879431
H  H416  1  0.08150000  0.23320000  0.07440000  1.0 0.1281879431
H  H417  1  0.36590000  0.58500000  0.80210000  1.0 0.1281879431
H  H418  1  0.38410000  0.16500000  0.80210000  1.0 0.1281879431
H  H419  1  0.38410000  0.58500000  0.94790000  1.0 0.1281879431
H  H420  1  0.36590000  0.16500000  0.94790000  1.0 0.1281879431
H  H421  1  0.36590000  0.08500000  0.30210000  1.0 0.1281879431
H  H422  1  0.38410000  0.66500000  0.30210000  1.0 0.1281879431
H  H423  1  0.38410000  0.08500000  0.44790000  1.0 0.1281879431
H  H424  1  0.36590000  0.66500000  0.44790000  1.0 0.1281879431
H  H425  1  0.86590000  0.58500000  0.30210000  1.0 0.1281879431
H  H426  1  0.88410000  0.16500000  0.30210000  1.0 0.1281879431
H  H427  1  0.88410000  0.58500000  0.44790000  1.0 0.1281879431
H  H428  1  0.86590000  0.16500000  0.44790000  1.0 0.1281879431
H  H429  1  0.86590000  0.08500000  0.80210000  1.0 0.1281879431
H  H430  1  0.88410000  0.66500000  0.80210000  1.0 0.1281879431
H  H431  1  0.88410000  0.08500000  0.94790000  1.0 0.1281879431
H  H432  1  0.86590000  0.66500000  0.94790000  1.0 0.1281879431
H  H433  1  0.63410000  0.41500000  0.19790000  1.0 0.1281879431
H  H434  1  0.61590000  0.83500000  0.19790000  1.0 0.1281879431
H  H435  1  0.61590000  0.41500000  0.05210000  1.0 0.1281879431
H  H436  1  0.63410000  0.83500000  0.05210000  1.0 0.1281879431
H  H437  1  0.63410000  0.91500000  0.69790000  1.0 0.1281879431
H  H438  1  0.61590000  0.33500000  0.69790000  1.0 0.1281879431
H  H439  1  0.61590000  0.91500000  0.55210000  1.0 0.1281879431
H  H440  1  0.63410000  0.33500000  0.55210000  1.0 0.1281879431
H  H441  1  0.13410000  0.41500000  0.69790000  1.0 0.1281879431
H  H442  1  0.11590000  0.83500000  0.69790000  1.0 0.1281879431
H  H443  1  0.11590000  0.41500000  0.55210000  1.0 0.1281879431
H  H444  1  0.13410000  0.83500000  0.55210000  1.0 0.1281879431
H  H445  1  0.13410000  0.91500000  0.19790000  1.0 0.1281879431
H  H446  1  0.11590000  0.33500000  0.19790000  1.0 0.1281879431
H  H447  1  0.11590000  0.91500000  0.05210000  1.0 0.1281879431
H  H448  1  0.13410000  0.33500000  0.05210000  1.0 0.1281879431
H  H449  1  0.45150000  0.60740000  0.83470000  1.0 0.1194192329
H  H450  1  0.29850000  0.14260000  0.83470000  1.0 0.1194192329
H  H451  1  0.29850000  0.60740000  0.91530000  1.0 0.1194192329
H  H452  1  0.45150000  0.14260000  0.91530000  1.0 0.1194192329
H  H453  1  0.45150000  0.10740000  0.33470000  1.0 0.1194192329
H  H454  1  0.29850000  0.64260000  0.33470000  1.0 0.1194192329
H  H455  1  0.29850000  0.10740000  0.41530000  1.0 0.1194192329
H  H456  1  0.45150000  0.64260000  0.41530000  1.0 0.1194192329
H  H457  1  0.95150000  0.60740000  0.33470000  1.0 0.1194192329
H  H458  1  0.79850000  0.14260000  0.33470000  1.0 0.1194192329
H  H459  1  0.79850000  0.60740000  0.41530000  1.0 0.1194192329
H  H460  1  0.95150000  0.14260000  0.41530000  1.0 0.1194192329
H  H461  1  0.95150000  0.10740000  0.83470000  1.0 0.1194192329
H  H462  1  0.79850000  0.64260000  0.83470000  1.0 0.1194192329
H  H463  1  0.79850000  0.10740000  0.91530000  1.0 0.1194192329
H  H464  1  0.95150000  0.64260000  0.91530000  1.0 0.1194192329
H  H465  1  0.54850000  0.39260000  0.16530000  1.0 0.1194192329
H  H466  1  0.70150000  0.85740000  0.16530000  1.0 0.1194192329
H  H467  1  0.70150000  0.39260000  0.08470000  1.0 0.1194192329
H  H468  1  0.54850000  0.85740000  0.08470000  1.0 0.1194192329
H  H469  1  0.54850000  0.89260000  0.66530000  1.0 0.1194192329
H  H470  1  0.70150000  0.35740000  0.66530000  1.0 0.1194192329
H  H471  1  0.70150000  0.89260000  0.58470000  1.0 0.1194192329
H  H472  1  0.54850000  0.35740000  0.58470000  1.0 0.1194192329
H  H473  1  0.04850000  0.39260000  0.66530000  1.0 0.1194192329
H  H474  1  0.20150000  0.85740000  0.66530000  1.0 0.1194192329
H  H475  1  0.20150000  0.39260000  0.58470000  1.0 0.1194192329
H  H476  1  0.04850000  0.85740000  0.58470000  1.0 0.1194192329
H  H477  1  0.04850000  0.89260000  0.16530000  1.0 0.1194192329
H  H478  1  0.20150000  0.35740000  0.16530000  1.0 0.1194192329
H  H479  1  0.20150000  0.89260000  0.08470000  1.0 0.1194192329
H  H480  1  0.04850000  0.35740000  0.08470000  1.0 0.1194192329
H  H481  1  0.51140000  0.56860000  0.86250000  1.0 0.1194192329
H  H482  1  0.23860000  0.18140000  0.86250000  1.0 0.1194192329
H  H483  1  0.23860000  0.56860000  0.88750000  1.0 0.1194192329
H  H484  1  0.51140000  0.18140000  0.88750000  1.0 0.1194192329
H  H485  1  0.51140000  0.06860000  0.36250000  1.0 0.1194192329
H  H486  1  0.23860000  0.68140000  0.36250000  1.0 0.1194192329
H  H487  1  0.23860000  0.06860000  0.38750000  1.0 0.1194192329
H  H488  1  0.51140000  0.68140000  0.38750000  1.0 0.1194192329
H  H489  1  0.01140000  0.56860000  0.36250000  1.0 0.1194192329
H  H490  1  0.73860000  0.18140000  0.36250000  1.0 0.1194192329
H  H491  1  0.73860000  0.56860000  0.38750000  1.0 0.1194192329
H  H492  1  0.01140000  0.18140000  0.38750000  1.0 0.1194192329
H  H493  1  0.01140000  0.06860000  0.86250000  1.0 0.1194192329
H  H494  1  0.73860000  0.68140000  0.86250000  1.0 0.1194192329
H  H495  1  0.73860000  0.06860000  0.88750000  1.0 0.1194192329
H  H496  1  0.01140000  0.68140000  0.88750000  1.0 0.1194192329
H  H497  1  0.48860000  0.43140000  0.13750000  1.0 0.1194192329
H  H498  1  0.76140000  0.81860000  0.13750000  1.0 0.1194192329
H  H499  1  0.76140000  0.43140000  0.11250000  1.0 0.1194192329
H  H500  1  0.48860000  0.81860000  0.11250000  1.0 0.1194192329
H  H501  1  0.48860000  0.93140000  0.63750000  1.0 0.1194192329
H  H502  1  0.76140000  0.31860000  0.63750000  1.0 0.1194192329
H  H503  1  0.76140000  0.93140000  0.61250000  1.0 0.1194192329
H  H504  1  0.48860000  0.31860000  0.61250000  1.0 0.1194192329
H  H505  1  0.98860000  0.43140000  0.63750000  1.0 0.1194192329
H  H506  1  0.26140000  0.81860000  0.63750000  1.0 0.1194192329
H  H507  1  0.26140000  0.43140000  0.61250000  1.0 0.1194192329
H  H508  1  0.98860000  0.81860000  0.61250000  1.0 0.1194192329
H  H509  1  0.98860000  0.93140000  0.13750000  1.0 0.1194192329
H  H510  1  0.26140000  0.31860000  0.13750000  1.0 0.1194192329
H  H511  1  0.26140000  0.93140000  0.11250000  1.0 0.1194192329
H  H512  1  0.98860000  0.31860000  0.11250000  1.0 0.1194192329
H  H129  1  0.82280000  0.41030000  0.91610000  0.5 0.1194192329
H  H130  1  0.92720000  0.33970000  0.91610000  0.5 0.1194192329
H  H131  1  0.92720000  0.41030000  0.83390000  0.5 0.1194192329
H  H132  1  0.82280000  0.33970000  0.83390000  0.5 0.1194192329
H  H133  1  0.82280000  0.91030000  0.41610000  0.5 0.1194192329
H  H134  1  0.92720000  0.83970000  0.41610000  0.5 0.1194192329
H  H135  1  0.92720000  0.91030000  0.33390000  0.5 0.1194192329
H  H136  1  0.82280000  0.83970000  0.33390000  0.5 0.1194192329
H  H137  1  0.32280000  0.41030000  0.41610000  0.5 0.1194192329
H  H138  1  0.42720000  0.33970000  0.41610000  0.5 0.1194192329
H  H139  1  0.42720000  0.41030000  0.33390000  0.5 0.1194192329
H  H140  1  0.32280000  0.33970000  0.33390000  0.5 0.1194192329
H  H141  1  0.32280000  0.91030000  0.91610000  0.5 0.1194192329
H  H142  1  0.42720000  0.83970000  0.91610000  0.5 0.1194192329
H  H143  1  0.42720000  0.91030000  0.83390000  0.5 0.1194192329
H  H144  1  0.32280000  0.83970000  0.83390000  0.5 0.1194192329
H  H145  1  0.17720000  0.58970000  0.08390000  0.5 0.1194192329
H  H146  1  0.07280000  0.66030000  0.08390000  0.5 0.1194192329
H  H147  1  0.07280000  0.58970000  0.16610000  0.5 0.1194192329
H  H148  1  0.17720000  0.66030000  0.16610000  0.5 0.1194192329
H  H149  1  0.17720000  0.08970000  0.58390000  0.5 0.1194192329
H  H150  1  0.07280000  0.16030000  0.58390000  0.5 0.1194192329
H  H151  1  0.07280000  0.08970000  0.66610000  0.5 0.1194192329
H  H152  1  0.17720000  0.16030000  0.66610000  0.5 0.1194192329
H  H153  1  0.67720000  0.58970000  0.58390000  0.5 0.1194192329
H  H154  1  0.57280000  0.66030000  0.58390000  0.5 0.1194192329
H  H155  1  0.57280000  0.58970000  0.66610000  0.5 0.1194192329
H  H156  1  0.67720000  0.66030000  0.66610000  0.5 0.1194192329
H  H157  1  0.67720000  0.08970000  0.08390000  0.5 0.1194192329
H  H158  1  0.57280000  0.16030000  0.08390000  0.5 0.1194192329
H  H159  1  0.57280000  0.08970000  0.16610000  0.5 0.1194192329
H  H160  1  0.67720000  0.16030000  0.16610000  0.5 0.1194192329
H  H161  1  0.76940000  0.45380000  0.89120000  0.5 0.1194192329
H  H162  1  0.98060000  0.29620000  0.89120000  0.5 0.1194192329
H  H163  1  0.98060000  0.45380000  0.85880000  0.5 0.1194192329
H  H164  1  0.76940000  0.29620000  0.85880000  0.5 0.1194192329
H  H165  1  0.76940000  0.95380000  0.39120000  0.5 0.1194192329
H  H166  1  0.98060000  0.79620000  0.39120000  0.5 0.1194192329
H  H167  1  0.98060000  0.95380000  0.35880000  0.5 0.1194192329
H  H168  1  0.76940000  0.79620000  0.35880000  0.5 0.1194192329
H  H169  1  0.26940000  0.45380000  0.39120000  0.5 0.1194192329
H  H170  1  0.48060000  0.29620000  0.39120000  0.5 0.1194192329
H  H171  1  0.48060000  0.45380000  0.35880000  0.5 0.1194192329
H  H172  1  0.26940000  0.29620000  0.35880000  0.5 0.1194192329
H  H173  1  0.26940000  0.95380000  0.89120000  0.5 0.1194192329
H  H174  1  0.48060000  0.79620000  0.89120000  0.5 0.1194192329
H  H175  1  0.48060000  0.95380000  0.85880000  0.5 0.1194192329
H  H176  1  0.26940000  0.79620000  0.85880000  0.5 0.1194192329
H  H177  1  0.23060000  0.54620000  0.10880000  0.5 0.1194192329
H  H178  1  0.01940000  0.70380000  0.10880000  0.5 0.1194192329
H  H179  1  0.01940000  0.54620000  0.14120000  0.5 0.1194192329
H  H180  1  0.23060000  0.70380000  0.14120000  0.5 0.1194192329
H  H181  1  0.23060000  0.04620000  0.60880000  0.5 0.1194192329
H  H182  1  0.01940000  0.20380000  0.60880000  0.5 0.1194192329
H  H183  1  0.01940000  0.04620000  0.64120000  0.5 0.1194192329
H  H184  1  0.23060000  0.20380000  0.64120000  0.5 0.1194192329
H  H185  1  0.73060000  0.54620000  0.60880000  0.5 0.1194192329
H  H186  1  0.51940000  0.70380000  0.60880000  0.5 0.1194192329
H  H187  1  0.51940000  0.54620000  0.64120000  0.5 0.1194192329
H  H188  1  0.73060000  0.70380000  0.64120000  0.5 0.1194192329
H  H189  1  0.73060000  0.04620000  0.10880000  0.5 0.1194192329
H  H190  1  0.51940000  0.20380000  0.10880000  0.5 0.1194192329
H  H191  1  0.51940000  0.04620000  0.14120000  0.5 0.1194192329
H  H192  1  0.73060000  0.20380000  0.14120000  0.5 0.1194192329
H  H193  1  0.40870000  0.42890000  0.89610000  0.5 0.0995219156
H  H194  1  0.34130000  0.32110000  0.89610000  0.5 0.0995219156
H  H195  1  0.34130000  0.42890000  0.85390000  0.5 0.0995219156
H  H196  1  0.40870000  0.32110000  0.85390000  0.5 0.0995219156
H  H197  1  0.40870000  0.92890000  0.39610000  0.5 0.0995219156
H  H198  1  0.34130000  0.82110000  0.39610000  0.5 0.0995219156
H  H199  1  0.34130000  0.92890000  0.35390000  0.5 0.0995219156
H  H200  1  0.40870000  0.82110000  0.35390000  0.5 0.0995219156
H  H201  1  0.90870000  0.42890000  0.39610000  0.5 0.0995219156
H  H202  1  0.84130000  0.32110000  0.39610000  0.5 0.0995219156
H  H203  1  0.84130000  0.42890000  0.35390000  0.5 0.0995219156
H  H204  1  0.90870000  0.32110000  0.35390000  0.5 0.0995219156
H  H205  1  0.90870000  0.92890000  0.89610000  0.5 0.0995219156
H  H206  1  0.84130000  0.82110000  0.89610000  0.5 0.0995219156
H  H207  1  0.84130000  0.92890000  0.85390000  0.5 0.0995219156
H  H208  1  0.90870000  0.82110000  0.85390000  0.5 0.0995219156
H  H209  1  0.59130000  0.57110000  0.10390000  0.5 0.0995219156
H  H210  1  0.65870000  0.67890000  0.10390000  0.5 0.0995219156
H  H211  1  0.65870000  0.57110000  0.14610000  0.5 0.0995219156
H  H212  1  0.59130000  0.67890000  0.14610000  0.5 0.0995219156
H  H213  1  0.59130000  0.07110000  0.60390000  0.5 0.0995219156
H  H214  1  0.65870000  0.17890000  0.60390000  0.5 0.0995219156
H  H215  1  0.65870000  0.07110000  0.64610000  0.5 0.0995219156
H  H216  1  0.59130000  0.17890000  0.64610000  0.5 0.0995219156
H  H217  1  0.09130000  0.57110000  0.60390000  0.5 0.0995219156
H  H218  1  0.15870000  0.67890000  0.60390000  0.5 0.0995219156
H  H219  1  0.15870000  0.57110000  0.64610000  0.5 0.0995219156
H  H220  1  0.09130000  0.67890000  0.64610000  0.5 0.0995219156
H  H221  1  0.09130000  0.07110000  0.10390000  0.5 0.0995219156
H  H222  1  0.15870000  0.17890000  0.10390000  0.5 0.0995219156
H  H223  1  0.15870000  0.07110000  0.14610000  0.5 0.0995219156
H  H224  1  0.09130000  0.17890000  0.14610000  0.5 0.0995219156
H  H225  1  0.46000000  0.38110000  0.92110000  0.5 0.0873998031
H  H226  1  0.29000000  0.36890000  0.92110000  0.5 0.0873998031
H  H227  1  0.29000000  0.38110000  0.82890000  0.5 0.0873998031
H  H228  1  0.46000000  0.36890000  0.82890000  0.5 0.0873998031
H  H229  1  0.46000000  0.88110000  0.42110000  0.5 0.0873998031
H  H230  1  0.29000000  0.86890000  0.42110000  0.5 0.0873998031
H  H231  1  0.29000000  0.88110000  0.32890000  0.5 0.0873998031
H  H232  1  0.46000000  0.86890000  0.32890000  0.5 0.0873998031
H  H233  1  0.96000000  0.38110000  0.42110000  0.5 0.0873998031
H  H234  1  0.79000000  0.36890000  0.42110000  0.5 0.0873998031
H  H235  1  0.79000000  0.38110000  0.32890000  0.5 0.0873998031
H  H236  1  0.96000000  0.36890000  0.32890000  0.5 0.0873998031
H  H237  1  0.96000000  0.88110000  0.92110000  0.5 0.0873998031
H  H238  1  0.79000000  0.86890000  0.92110000  0.5 0.0873998031
H  H239  1  0.79000000  0.88110000  0.82890000  0.5 0.0873998031
H  H240  1  0.96000000  0.86890000  0.82890000  0.5 0.0873998031
H  H241  1  0.54000000  0.61890000  0.07890000  0.5 0.0873998031
H  H242  1  0.71000000  0.63110000  0.07890000  0.5 0.0873998031
H  H243  1  0.71000000  0.61890000  0.17110000  0.5 0.0873998031
H  H244  1  0.54000000  0.63110000  0.17110000  0.5 0.0873998031
H  H245  1  0.54000000  0.11890000  0.57890000  0.5 0.0873998031
H  H246  1  0.71000000  0.13110000  0.57890000  0.5 0.0873998031
H  H247  1  0.71000000  0.11890000  0.67110000  0.5 0.0873998031
H  H248  1  0.54000000  0.13110000  0.67110000  0.5 0.0873998031
H  H249  1  0.04000000  0.61890000  0.57890000  0.5 0.0873998031
H  H250  1  0.21000000  0.63110000  0.57890000  0.5 0.0873998031
H  H251  1  0.21000000  0.61890000  0.67110000  0.5 0.0873998031
H  H252  1  0.04000000  0.63110000  0.67110000  0.5 0.0873998031
H  H253  1  0.04000000  0.11890000  0.07890000  0.5 0.0873998031
H  H254  1  0.21000000  0.13110000  0.07890000  0.5 0.0873998031
H  H255  1  0.21000000  0.11890000  0.17110000  0.5 0.0873998031
H  H256  1  0.04000000  0.13110000  0.17110000  0.5 0.0873998031
H  H257  1  0.63690000  0.43160000  0.94280000  0.5 0.1126714008
H  H258  1  0.11310000  0.31840000  0.94280000  0.5 0.1126714008
H  H259  1  0.11310000  0.43160000  0.80720000  0.5 0.1126714008
H  H260  1  0.63690000  0.31840000  0.80720000  0.5 0.1126714008
H  H261  1  0.63690000  0.93160000  0.44280000  0.5 0.1126714008
H  H262  1  0.11310000  0.81840000  0.44280000  0.5 0.1126714008
H  H263  1  0.11310000  0.93160000  0.30720000  0.5 0.1126714008
H  H264  1  0.63690000  0.81840000  0.30720000  0.5 0.1126714008
H  H265  1  0.13690000  0.43160000  0.44280000  0.5 0.1126714008
H  H266  1  0.61310000  0.31840000  0.44280000  0.5 0.1126714008
H  H267  1  0.61310000  0.43160000  0.30720000  0.5 0.1126714008
H  H268  1  0.13690000  0.31840000  0.30720000  0.5 0.1126714008
H  H269  1  0.13690000  0.93160000  0.94280000  0.5 0.1126714008
H  H270  1  0.61310000  0.81840000  0.94280000  0.5 0.1126714008
H  H271  1  0.61310000  0.93160000  0.80720000  0.5 0.1126714008
H  H272  1  0.13690000  0.81840000  0.80720000  0.5 0.1126714008
H  H273  1  0.36310000  0.56840000  0.05720000  0.5 0.1126714008
H  H274  1  0.88690000  0.68160000  0.05720000  0.5 0.1126714008
H  H275  1  0.88690000  0.56840000  0.19280000  0.5 0.1126714008
H  H276  1  0.36310000  0.68160000  0.19280000  0.5 0.1126714008
H  H277  1  0.36310000  0.06840000  0.55720000  0.5 0.1126714008
H  H278  1  0.88690000  0.18160000  0.55720000  0.5 0.1126714008
H  H279  1  0.88690000  0.06840000  0.69280000  0.5 0.1126714008
H  H280  1  0.36310000  0.18160000  0.69280000  0.5 0.1126714008
H  H281  1  0.86310000  0.56840000  0.55720000  0.5 0.1126714008
H  H282  1  0.38690000  0.68160000  0.55720000  0.5 0.1126714008
H  H283  1  0.38690000  0.56840000  0.69280000  0.5 0.1126714008
H  H284  1  0.86310000  0.68160000  0.69280000  0.5 0.1126714008
H  H285  1  0.86310000  0.06840000  0.05720000  0.5 0.1126714008
H  H286  1  0.38690000  0.18160000  0.05720000  0.5 0.1126714008
H  H287  1  0.38690000  0.06840000  0.19280000  0.5 0.1126714008
H  H288  1  0.86310000  0.18160000  0.19280000  0.5 0.1126714008
H  H289  1  0.58780000  0.47800000  0.91840000  0.5 0.1126714008
H  H290  1  0.16220000  0.27200000  0.91840000  0.5 0.1126714008
H  H291  1  0.16220000  0.47800000  0.83160000  0.5 0.1126714008
H  H292  1  0.58780000  0.27200000  0.83160000  0.5 0.1126714008
H  H293  1  0.58780000  0.97800000  0.41840000  0.5 0.1126714008
H  H294  1  0.16220000  0.77200000  0.41840000  0.5 0.1126714008
H  H295  1  0.16220000  0.97800000  0.33160000  0.5 0.1126714008
H  H296  1  0.58780000  0.77200000  0.33160000  0.5 0.1126714008
H  H297  1  0.08780000  0.47800000  0.41840000  0.5 0.1126714008
H  H298  1  0.66220000  0.27200000  0.41840000  0.5 0.1126714008
H  H299  1  0.66220000  0.47800000  0.33160000  0.5 0.1126714008
H  H300  1  0.08780000  0.27200000  0.33160000  0.5 0.1126714008
H  H301  1  0.08780000  0.97800000  0.91840000  0.5 0.1126714008
H  H302  1  0.66220000  0.77200000  0.91840000  0.5 0.1126714008
H  H303  1  0.66220000  0.97800000  0.83160000  0.5 0.1126714008
H  H304  1  0.08780000  0.77200000  0.83160000  0.5 0.1126714008
H  H305  1  0.41220000  0.52200000  0.08160000  0.5 0.1126714008
H  H306  1  0.83780000  0.72800000  0.08160000  0.5 0.1126714008
H  H307  1  0.83780000  0.52200000  0.16840000  0.5 0.1126714008
H  H308  1  0.41220000  0.72800000  0.16840000  0.5 0.1126714008
H  H309  1  0.41220000  0.02200000  0.58160000  0.5 0.1126714008
H  H310  1  0.83780000  0.22800000  0.58160000  0.5 0.1126714008
H  H311  1  0.83780000  0.02200000  0.66840000  0.5 0.1126714008
H  H312  1  0.41220000  0.22800000  0.66840000  0.5 0.1126714008
H  H313  1  0.91220000  0.52200000  0.58160000  0.5 0.1126714008
H  H314  1  0.33780000  0.72800000  0.58160000  0.5 0.1126714008
H  H315  1  0.33780000  0.52200000  0.66840000  0.5 0.1126714008
H  H316  1  0.91220000  0.72800000  0.66840000  0.5 0.1126714008
H  H317  1  0.91220000  0.02200000  0.08160000  0.5 0.1126714008
H  H318  1  0.33780000  0.22800000  0.08160000  0.5 0.1126714008
H  H319  1  0.33780000  0.02200000  0.16840000  0.5 0.1126714008
H  H320  1  0.91220000  0.22800000  0.16840000  0.5 0.1126714008
H  H321  1  0.56700000  0.40320000  0.87000000  0.5 0.0729453594
H  H322  1  0.18300000  0.34680000  0.87000000  0.5 0.0729453594
H  H323  1  0.18300000  0.40320000  0.88000000  0.5 0.0729453594
H  H324  1  0.56700000  0.34680000  0.88000000  0.5 0.0729453594
H  H325  1  0.56700000  0.90320000  0.37000000  0.5 0.0729453594
H  H326  1  0.18300000  0.84680000  0.37000000  0.5 0.0729453594
H  H327  1  0.18300000  0.90320000  0.38000000  0.5 0.0729453594
H  H328  1  0.56700000  0.84680000  0.38000000  0.5 0.0729453594
H  H329  1  0.06700000  0.40320000  0.37000000  0.5 0.0729453594
H  H330  1  0.68300000  0.34680000  0.37000000  0.5 0.0729453594
H  H331  1  0.68300000  0.40320000  0.38000000  0.5 0.0729453594
H  H332  1  0.06700000  0.34680000  0.38000000  0.5 0.0729453594
H  H333  1  0.06700000  0.90320000  0.87000000  0.5 0.0729453594
H  H334  1  0.68300000  0.84680000  0.87000000  0.5 0.0729453594
H  H335  1  0.68300000  0.90320000  0.88000000  0.5 0.0729453594
H  H336  1  0.06700000  0.84680000  0.88000000  0.5 0.0729453594
H  H337  1  0.43300000  0.59680000  0.13000000  0.5 0.0729453594
H  H338  1  0.81700000  0.65320000  0.13000000  0.5 0.0729453594
H  H339  1  0.81700000  0.59680000  0.12000000  0.5 0.0729453594
H  H340  1  0.43300000  0.65320000  0.12000000  0.5 0.0729453594
H  H341  1  0.43300000  0.09680000  0.63000000  0.5 0.0729453594
H  H342  1  0.81700000  0.15320000  0.63000000  0.5 0.0729453594
H  H343  1  0.81700000  0.09680000  0.62000000  0.5 0.0729453594
H  H344  1  0.43300000  0.15320000  0.62000000  0.5 0.0729453594
H  H345  1  0.93300000  0.59680000  0.63000000  0.5 0.0729453594
H  H346  1  0.31700000  0.65320000  0.63000000  0.5 0.0729453594
H  H347  1  0.31700000  0.59680000  0.62000000  0.5 0.0729453594
H  H348  1  0.93300000  0.65320000  0.62000000  0.5 0.0729453594
H  H349  1  0.93300000  0.09680000  0.13000000  0.5 0.0729453594
H  H350  1  0.31700000  0.15320000  0.13000000  0.5 0.0729453594
H  H351  1  0.31700000  0.09680000  0.12000000  0.5 0.0729453594
H  H352  1  0.93300000  0.15320000  0.12000000  0.5 0.0729453594
H  H353  1  0.61210000  0.35900000  0.89390000  0.5 0.0873998031
H  H354  1  0.13790000  0.39100000  0.89390000  0.5 0.0873998031
H  H355  1  0.13790000  0.35900000  0.85610000  0.5 0.0873998031
H  H356  1  0.61210000  0.39100000  0.85610000  0.5 0.0873998031
H  H357  1  0.61210000  0.85900000  0.39390000  0.5 0.0873998031
H  H358  1  0.13790000  0.89100000  0.39390000  0.5 0.0873998031
H  H359  1  0.13790000  0.85900000  0.35610000  0.5 0.0873998031
H  H360  1  0.61210000  0.89100000  0.35610000  0.5 0.0873998031
H  H361  1  0.11210000  0.35900000  0.39390000  0.5 0.0873998031
H  H362  1  0.63790000  0.39100000  0.39390000  0.5 0.0873998031
H  H363  1  0.63790000  0.35900000  0.35610000  0.5 0.0873998031
H  H364  1  0.11210000  0.39100000  0.35610000  0.5 0.0873998031
H  H365  1  0.11210000  0.85900000  0.89390000  0.5 0.0873998031
H  H366  1  0.63790000  0.89100000  0.89390000  0.5 0.0873998031
H  H367  1  0.63790000  0.85900000  0.85610000  0.5 0.0873998031
H  H368  1  0.11210000  0.89100000  0.85610000  0.5 0.0873998031
H  H369  1  0.38790000  0.64100000  0.10610000  0.5 0.0873998031
H  H370  1  0.86210000  0.60900000  0.10610000  0.5 0.0873998031
H  H371  1  0.86210000  0.64100000  0.14390000  0.5 0.0873998031
H  H372  1  0.38790000  0.60900000  0.14390000  0.5 0.0873998031
H  H373  1  0.38790000  0.14100000  0.60610000  0.5 0.0873998031
H  H374  1  0.86210000  0.10900000  0.60610000  0.5 0.0873998031
H  H375  1  0.86210000  0.14100000  0.64390000  0.5 0.0873998031
H  H376  1  0.38790000  0.10900000  0.64390000  0.5 0.0873998031
H  H377  1  0.88790000  0.64100000  0.60610000  0.5 0.0873998031
H  H378  1  0.36210000  0.60900000  0.60610000  0.5 0.0873998031
H  H379  1  0.36210000  0.64100000  0.64390000  0.5 0.0873998031
H  H380  1  0.88790000  0.60900000  0.64390000  0.5 0.0873998031
H  H381  1  0.88790000  0.14100000  0.10610000  0.5 0.0873998031
H  H382  1  0.36210000  0.10900000  0.10610000  0.5 0.0873998031
H  H383  1  0.36210000  0.14100000  0.14390000  0.5 0.0873998031
H  H384  1  0.88790000  0.10900000  0.14390000  0.5 0.0873998031
H  H513  1  0.02310000  0.16890000  0.02920000  0.5 0.0995219156
H  H514  1  0.72690000  0.58110000  0.02920000  0.5 0.0995219156
H  H515  1  0.72690000  0.16890000  0.72080000  0.5 0.0995219156
H  H516  1  0.02310000  0.58110000  0.72080000  0.5 0.0995219156
H  H517  1  0.02310000  0.66890000  0.52920000  0.5 0.0995219156
H  H518  1  0.72690000  0.08110000  0.52920000  0.5 0.0995219156
H  H519  1  0.72690000  0.66890000  0.22080000  0.5 0.0995219156
H  H520  1  0.02310000  0.08110000  0.22080000  0.5 0.0995219156
H  H521  1  0.52310000  0.16890000  0.52920000  0.5 0.0995219156
H  H522  1  0.22690000  0.58110000  0.52920000  0.5 0.0995219156
H  H523  1  0.22690000  0.16890000  0.22080000  0.5 0.0995219156
H  H524  1  0.52310000  0.58110000  0.22080000  0.5 0.0995219156
H  H525  1  0.52310000  0.66890000  0.02920000  0.5 0.0995219156
H  H526  1  0.22690000  0.08110000  0.02920000  0.5 0.0995219156
H  H527  1  0.22690000  0.66890000  0.72080000  0.5 0.0995219156
H  H528  1  0.52310000  0.08110000  0.72080000  0.5 0.0995219156
H  H529  1  0.97690000  0.83110000  0.97080000  0.5 0.0995219156
H  H530  1  0.27310000  0.41890000  0.97080000  0.5 0.0995219156
H  H531  1  0.27310000  0.83110000  0.27920000  0.5 0.0995219156
H  H532  1  0.97690000  0.41890000  0.27920000  0.5 0.0995219156
H  H533  1  0.97690000  0.33110000  0.47080000  0.5 0.0995219156
H  H534  1  0.27310000  0.91890000  0.47080000  0.5 0.0995219156
H  H535  1  0.27310000  0.33110000  0.77920000  0.5 0.0995219156
H  H536  1  0.97690000  0.91890000  0.77920000  0.5 0.0995219156
H  H537  1  0.47690000  0.83110000  0.47080000  0.5 0.0995219156
H  H538  1  0.77310000  0.41890000  0.47080000  0.5 0.0995219156
H  H539  1  0.77310000  0.83110000  0.77920000  0.5 0.0995219156
H  H540  1  0.47690000  0.41890000  0.77920000  0.5 0.0995219156
H  H541  1  0.47690000  0.33110000  0.97080000  0.5 0.0995219156
H  H542  1  0.77310000  0.91890000  0.97080000  0.5 0.0995219156
H  H543  1  0.77310000  0.33110000  0.27920000  0.5 0.0995219156
H  H544  1  0.47690000  0.91890000  0.27920000  0.5 0.0995219156
H  H545  1  0.14040000  0.14910000  0.04030000  0.5 0.0798261736
H  H546  1  0.60960000  0.60090000  0.04030000  0.5 0.0798261736
H  H547  1  0.60960000  0.14910000  0.70970000  0.5 0.0798261736
H  H548  1  0.14040000  0.60090000  0.70970000  0.5 0.0798261736
H  H549  1  0.14040000  0.64910000  0.54030000  0.5 0.0729453594
H  H550  1  0.60960000  0.10090000  0.54030000  0.5 0.0798261736
H  H551  1  0.60960000  0.64910000  0.20970000  0.5 0.0729453594
H  H552  1  0.14040000  0.10090000  0.20970000  0.5 0.0798261736
H  H553  1  0.64040000  0.14910000  0.54030000  0.5 0.0798261736
H  H554  1  0.10960000  0.60090000  0.54030000  0.5 0.0729453594
H  H555  1  0.10960000  0.14910000  0.20970000  0.5 0.0729453594
H  H556  1  0.64040000  0.60090000  0.20970000  0.5 0.0798261736
H  H557  1  0.64040000  0.64910000  0.04030000  0.5 0.0798261736
H  H558  1  0.10960000  0.10090000  0.04030000  0.5 0.0798261736
H  H559  1  0.10960000  0.64910000  0.70970000  0.5 0.0798261736
H  H560  1  0.64040000  0.10090000  0.70970000  0.5 0.0798261736
H  H561  1  0.85960000  0.85090000  0.95970000  0.5 0.0729453594
H  H562  1  0.39040000  0.39910000  0.95970000  0.5 0.0729453594
H  H563  1  0.39040000  0.85090000  0.29030000  0.5 0.0729453594
H  H564  1  0.85960000  0.39910000  0.29030000  0.5 0.0729453594
H  H565  1  0.85960000  0.35090000  0.45970000  0.5 0.0798261736
H  H566  1  0.39040000  0.89910000  0.45970000  0.5 0.0729453594
H  H567  1  0.39040000  0.35090000  0.79030000  0.5 0.0798261736
H  H568  1  0.85960000  0.89910000  0.79030000  0.5 0.0798261736
H  H569  1  0.35960000  0.85090000  0.45970000  0.5 0.0729453594
H  H570  1  0.89040000  0.39910000  0.45970000  0.5 0.0798261736
H  H571  1  0.89040000  0.85090000  0.79030000  0.5 0.0798261736
H  H572  1  0.35960000  0.39910000  0.79030000  0.5 0.0798261736
H  H573  1  0.35960000  0.35090000  0.95970000  0.5 0.0729453594
H  H574  1  0.89040000  0.89910000  0.95970000  0.5 0.0798261736
H  H575  1  0.89040000  0.35090000  0.29030000  0.5 0.0798261736
H  H576  1  0.35960000  0.89910000  0.29030000  0.5 0.0729453594
H  H577  1  0.01920000  0.09890000  0.03780000  0.5 0.0729453594
H  H578  1  0.73080000  0.65110000  0.03780000  0.5 0.0729453594
H  H579  1  0.73080000  0.09890000  0.71220000  0.5 0.0729453594
H  H580  1  0.01920000  0.65110000  0.71220000  0.5 0.0729453594
H  H581  1  0.01920000  0.59890000  0.53780000  0.5 0.0729453594
H  H582  1  0.73080000  0.15110000  0.53780000  0.5 0.0729453594
H  H583  1  0.73080000  0.59890000  0.21220000  0.5 0.0729453594
H  H584  1  0.01920000  0.15110000  0.21220000  0.5 0.0729453594
H  H585  1  0.51920000  0.09890000  0.53780000  0.5 0.0729453594
H  H586  1  0.23080000  0.65110000  0.53780000  0.5 0.0729453594
H  H587  1  0.23080000  0.09890000  0.21220000  0.5 0.0729453594
H  H588  1  0.51920000  0.65110000  0.21220000  0.5 0.0729453594
H  H589  1  0.51920000  0.59890000  0.03780000  0.5 0.0729453594
H  H590  1  0.23080000  0.15110000  0.03780000  0.5 0.0729453594
H  H591  1  0.23080000  0.59890000  0.71220000  0.5 0.0729453594
H  H592  1  0.51920000  0.15110000  0.71220000  0.5 0.0729453594
H  H593  1  0.98080000  0.90110000  0.96220000  0.5 0.0729453594
H  H594  1  0.26920000  0.34890000  0.96220000  0.5 0.0729453594
H  H595  1  0.26920000  0.90110000  0.28780000  0.5 0.0729453594
H  H596  1  0.98080000  0.34890000  0.28780000  0.5 0.0729453594
H  H597  1  0.98080000  0.40110000  0.46220000  0.5 0.0729453594
H  H598  1  0.26920000  0.84890000  0.46220000  0.5 0.0729453594
H  H599  1  0.26920000  0.40110000  0.78780000  0.5 0.0729453594
H  H600  1  0.98080000  0.84890000  0.78780000  0.5 0.0729453594
H  H601  1  0.48080000  0.90110000  0.46220000  0.5 0.0729453594
H  H602  1  0.76920000  0.34890000  0.46220000  0.5 0.0729453594
H  H603  1  0.76920000  0.90110000  0.78780000  0.5 0.0729453594
H  H604  1  0.48080000  0.34890000  0.78780000  0.5 0.0729453594
H  H605  1  0.48080000  0.40110000  0.96220000  0.5 0.0729453594
H  H606  1  0.76920000  0.84890000  0.96220000  0.5 0.0729453594
H  H607  1  0.76920000  0.40110000  0.28780000  0.5 0.0729453594
H  H608  1  0.48080000  0.84890000  0.28780000  0.5 0.0729453594
H  H609  1  0.93540000  0.11590000  0.01840000  0.5 0.1126714008
H  H610  1  0.81460000  0.63410000  0.01840000  0.5 0.1126714008
H  H611  1  0.81460000  0.11590000  0.73160000  0.5 0.1126714008
H  H612  1  0.93540000  0.63410000  0.73160000  0.5 0.1126714008
H  H613  1  0.93540000  0.61590000  0.51840000  0.5 0.1126714008
H  H614  1  0.81460000  0.13410000  0.51840000  0.5 0.1126714008
H  H615  1  0.81460000  0.61590000  0.23160000  0.5 0.1126714008
H  H616  1  0.93540000  0.13410000  0.23160000  0.5 0.1126714008
H  H617  1  0.43540000  0.11590000  0.51840000  0.5 0.1126714008
H  H618  1  0.31460000  0.63410000  0.51840000  0.5 0.1126714008
H  H619  1  0.31460000  0.11590000  0.23160000  0.5 0.1126714008
H  H620  1  0.43540000  0.63410000  0.23160000  0.5 0.1126714008
H  H621  1  0.43540000  0.61590000  0.01840000  0.5 0.1126714008
H  H622  1  0.31460000  0.13410000  0.01840000  0.5 0.1126714008
H  H623  1  0.31460000  0.61590000  0.73160000  0.5 0.1126714008
H  H624  1  0.43540000  0.13410000  0.73160000  0.5 0.1126714008
H  H625  1  0.06460000  0.88410000  0.98160000  0.5 0.1126714008
H  H626  1  0.18540000  0.36590000  0.98160000  0.5 0.1126714008
H  H627  1  0.18540000  0.88410000  0.26840000  0.5 0.1126714008
H  H628  1  0.06460000  0.36590000  0.26840000  0.5 0.1126714008
H  H629  1  0.06460000  0.38410000  0.48160000  0.5 0.1126714008
H  H630  1  0.18540000  0.86590000  0.48160000  0.5 0.1126714008
H  H631  1  0.18540000  0.38410000  0.76840000  0.5 0.1126714008
H  H632  1  0.06460000  0.86590000  0.76840000  0.5 0.1126714008
H  H633  1  0.56460000  0.88410000  0.48160000  0.5 0.1126714008
H  H634  1  0.68540000  0.36590000  0.48160000  0.5 0.1126714008
H  H635  1  0.68540000  0.88410000  0.76840000  0.5 0.1126714008
H  H636  1  0.56460000  0.36590000  0.76840000  0.5 0.1126714008
H  H637  1  0.56460000  0.38410000  0.98160000  0.5 0.1126714008
H  H638  1  0.68540000  0.86590000  0.98160000  0.5 0.1126714008
H  H639  1  0.68540000  0.38410000  0.26840000  0.5 0.1126714008
H  H640  1  0.56460000  0.86590000  0.26840000  0.5 0.1126714008
H  H641  1  0.32710000  0.14330000  0.01750000  0.5 0.0995219156
H  H642  1  0.42290000  0.60670000  0.01750000  0.5 0.0995219156
H  H643  1  0.42290000  0.14330000  0.73250000  0.5 0.0995219156
H  H644  1  0.32710000  0.60670000  0.73250000  0.5 0.0995219156
H  H645  1  0.32710000  0.64330000  0.51750000  0.5 0.0995219156
H  H646  1  0.42290000  0.10670000  0.51750000  0.5 0.0995219156
H  H647  1  0.42290000  0.64330000  0.23250000  0.5 0.0995219156
H  H648  1  0.32710000  0.10670000  0.23250000  0.5 0.0995219156
H  H649  1  0.82710000  0.14330000  0.51750000  0.5 0.0995219156
H  H650  1  0.92290000  0.60670000  0.51750000  0.5 0.0995219156
H  H651  1  0.92290000  0.14330000  0.23250000  0.5 0.0995219156
H  H652  1  0.82710000  0.60670000  0.23250000  0.5 0.0995219156
H  H653  1  0.82710000  0.64330000  0.01750000  0.5 0.0995219156
H  H654  1  0.92290000  0.10670000  0.01750000  0.5 0.0995219156
H  H655  1  0.92290000  0.64330000  0.73250000  0.5 0.0995219156
H  H656  1  0.82710000  0.10670000  0.73250000  0.5 0.0995219156
H  H657  1  0.67290000  0.85670000  0.98250000  0.5 0.0995219156
H  H658  1  0.57710000  0.39330000  0.98250000  0.5 0.0995219156
H  H659  1  0.57710000  0.85670000  0.26750000  0.5 0.0995219156
H  H660  1  0.67290000  0.39330000  0.26750000  0.5 0.0995219156
H  H661  1  0.67290000  0.35670000  0.48250000  0.5 0.0995219156
H  H662  1  0.57710000  0.89330000  0.48250000  0.5 0.0995219156
H  H663  1  0.57710000  0.35670000  0.76750000  0.5 0.0995219156
H  H664  1  0.67290000  0.89330000  0.76750000  0.5 0.0995219156
H  H665  1  0.17290000  0.85670000  0.48250000  0.5 0.0995219156
H  H666  1  0.07710000  0.39330000  0.48250000  0.5 0.0995219156
H  H667  1  0.07710000  0.85670000  0.76750000  0.5 0.0995219156
H  H668  1  0.17290000  0.39330000  0.76750000  0.5 0.0995219156
H  H669  1  0.17290000  0.35670000  0.98250000  0.5 0.0995219156
H  H670  1  0.07710000  0.89330000  0.98250000  0.5 0.0995219156
H  H671  1  0.07710000  0.35670000  0.26750000  0.5 0.0995219156
H  H672  1  0.17290000  0.89330000  0.26750000  0.5 0.0995219156
H  H673  1  0.29960000  0.13590000  0.99180000  0.5 0.0729453594
H  H674  1  0.45040000  0.61410000  0.99180000  0.5 0.0729453594
H  H675  1  0.45040000  0.13590000  0.75820000  0.5 0.0729453594
H  H676  1  0.29960000  0.61410000  0.75820000  0.5 0.0729453594
H  H677  1  0.29960000  0.63590000  0.49180000  0.5 0.0729453594
H  H678  1  0.45040000  0.11410000  0.49180000  0.5 0.0729453594
H  H679  1  0.45040000  0.63590000  0.25820000  0.5 0.0729453594
H  H680  1  0.29960000  0.11410000  0.25820000  0.5 0.0729453594
H  H681  1  0.79960000  0.13590000  0.49180000  0.5 0.0729453594
H  H682  1  0.95040000  0.61410000  0.49180000  0.5 0.0729453594
H  H683  1  0.95040000  0.13590000  0.25820000  0.5 0.0729453594
H  H684  1  0.79960000  0.61410000  0.25820000  0.5 0.0729453594
H  H685  1  0.79960000  0.63590000  0.99180000  0.5 0.0729453594
H  H686  1  0.95040000  0.11410000  0.99180000  0.5 0.0729453594
H  H687  1  0.95040000  0.63590000  0.75820000  0.5 0.0729453594
H  H688  1  0.79960000  0.11410000  0.75820000  0.5 0.0729453594
H  H689  1  0.70040000  0.86410000  0.00820000  0.5 0.0729453594
H  H690  1  0.54960000  0.38590000  0.00820000  0.5 0.0729453594
H  H691  1  0.54960000  0.86410000  0.24180000  0.5 0.0729453594
H  H692  1  0.70040000  0.38590000  0.24180000  0.5 0.0729453594
H  H693  1  0.70040000  0.36410000  0.50820000  0.5 0.0729453594
H  H694  1  0.54960000  0.88590000  0.50820000  0.5 0.0729453594
H  H695  1  0.54960000  0.36410000  0.74180000  0.5 0.0729453594
H  H696  1  0.70040000  0.88590000  0.74180000  0.5 0.0729453594
H  H697  1  0.20040000  0.86410000  0.50820000  0.5 0.0729453594
H  H698  1  0.04960000  0.38590000  0.50820000  0.5 0.0729453594
H  H699  1  0.04960000  0.86410000  0.74180000  0.5 0.0729453594
H  H700  1  0.20040000  0.38590000  0.74180000  0.5 0.0729453594
H  H701  1  0.20040000  0.36410000  0.00820000  0.5 0.0729453594
H  H702  1  0.04960000  0.88590000  0.00820000  0.5 0.0729453594
H  H703  1  0.04960000  0.36410000  0.24180000  0.5 0.0729453594
H  H704  1  0.20040000  0.88590000  0.24180000  0.5 0.0729453594
H  H705  1  0.26460000  0.07660000  0.00390000  0.5 0.0798261736
H  H706  1  0.48540000  0.67340000  0.00390000  0.5 0.0798261736
H  H707  1  0.48540000  0.07660000  0.74610000  0.5 0.0798261736
H  H708  1  0.26460000  0.67340000  0.74610000  0.5 0.0798261736
H  H709  1  0.26460000  0.57660000  0.50390000  0.5 0.0798261736
H  H710  1  0.48540000  0.17340000  0.50390000  0.5 0.0798261736
H  H711  1  0.48540000  0.57660000  0.24610000  0.5 0.0798261736
H  H712  1  0.26460000  0.17340000  0.24610000  0.5 0.0798261736
H  H713  1  0.76460000  0.07660000  0.50390000  0.5 0.0798261736
H  H714  1  0.98540000  0.67340000  0.50390000  0.5 0.0798261736
H  H715  1  0.98540000  0.07660000  0.24610000  0.5 0.0798261736
H  H716  1  0.76460000  0.67340000  0.24610000  0.5 0.0798261736
H  H717  1  0.76460000  0.57660000  0.00390000  0.5 0.0798261736
H  H718  1  0.98540000  0.17340000  0.00390000  0.5 0.0798261736
H  H719  1  0.98540000  0.57660000  0.74610000  0.5 0.0798261736
H  H720  1  0.76460000  0.17340000  0.74610000  0.5 0.0798261736
H  H721  1  0.73540000  0.92340000  0.99610000  0.5 0.0798261736
H  H722  1  0.51460000  0.32660000  0.99610000  0.5 0.0798261736
H  H723  1  0.51460000  0.92340000  0.25390000  0.5 0.0798261736
H  H724  1  0.73540000  0.32660000  0.25390000  0.5 0.0798261736
H  H725  1  0.73540000  0.42340000  0.49610000  0.5 0.0798261736
H  H726  1  0.51460000  0.82660000  0.49610000  0.5 0.0798261736
H  H727  1  0.51460000  0.42340000  0.75390000  0.5 0.0798261736
H  H728  1  0.73540000  0.82660000  0.75390000  0.5 0.0798261736
H  H729  1  0.23540000  0.92340000  0.49610000  0.5 0.0798261736
H  H730  1  0.01460000  0.32660000  0.49610000  0.5 0.0798261736
H  H731  1  0.01460000  0.92340000  0.75390000  0.5 0.0798261736
H  H732  1  0.23540000  0.32660000  0.75390000  0.5 0.0798261736
H  H733  1  0.23540000  0.42340000  0.99610000  0.5 0.0798261736
H  H734  1  0.01460000  0.82660000  0.99610000  0.5 0.0798261736
H  H735  1  0.01460000  0.42340000  0.25390000  0.5 0.0798261736
H  H736  1  0.23540000  0.82660000  0.25390000  0.5 0.0798261736
H  H737  1  0.23120000  0.08940000  0.02860000  0.5 0.1126714008
H  H738  1  0.51880000  0.66060000  0.02860000  0.5 0.1126714008
H  H739  1  0.51880000  0.08940000  0.72140000  0.5 0.1126714008
H  H740  1  0.23120000  0.66060000  0.72140000  0.5 0.1126714008
H  H741  1  0.23120000  0.58940000  0.52860000  0.5 0.1126714008
H  H742  1  0.51880000  0.16060000  0.52860000  0.5 0.1126714008
H  H743  1  0.51880000  0.58940000  0.22140000  0.5 0.1126714008
H  H744  1  0.23120000  0.16060000  0.22140000  0.5 0.1126714008
H  H745  1  0.73120000  0.08940000  0.52860000  0.5 0.1126714008
H  H746  1  0.01880000  0.66060000  0.52860000  0.5 0.1126714008
H  H747  1  0.01880000  0.08940000  0.22140000  0.5 0.1126714008
H  H748  1  0.73120000  0.66060000  0.22140000  0.5 0.1126714008
H  H749  1  0.73120000  0.58940000  0.02860000  0.5 0.1126714008
H  H750  1  0.01880000  0.16060000  0.02860000  0.5 0.1126714008
H  H751  1  0.01880000  0.58940000  0.72140000  0.5 0.1126714008
H  H752  1  0.73120000  0.16060000  0.72140000  0.5 0.1126714008
H  H753  1  0.76880000  0.91060000  0.97140000  0.5 0.1126714008
H  H754  1  0.48120000  0.33940000  0.97140000  0.5 0.1126714008
H  H755  1  0.48120000  0.91060000  0.27860000  0.5 0.1126714008
H  H756  1  0.76880000  0.33940000  0.27860000  0.5 0.1126714008
H  H757  1  0.76880000  0.41060000  0.47140000  0.5 0.1126714008
H  H758  1  0.48120000  0.83940000  0.47140000  0.5 0.1126714008
H  H759  1  0.48120000  0.41060000  0.77860000  0.5 0.1126714008
H  H760  1  0.76880000  0.83940000  0.77860000  0.5 0.1126714008
H  H761  1  0.26880000  0.91060000  0.47140000  0.5 0.1126714008
H  H762  1  0.98120000  0.33940000  0.47140000  0.5 0.1126714008
H  H763  1  0.98120000  0.91060000  0.77860000  0.5 0.1126714008
H  H764  1  0.26880000  0.33940000  0.77860000  0.5 0.1126714008
H  H765  1  0.26880000  0.41060000  0.97140000  0.5 0.1126714008
H  H766  1  0.98120000  0.83940000  0.97140000  0.5 0.1126714008
H  H767  1  0.98120000  0.41060000  0.27860000  0.5 0.1126714008
H  H768  1  0.26880000  0.83940000  0.27860000  0.5 0.1126714008
H  H769  1  0.11720000  0.16360000  0.97650000  0.5 0.0798261736
H  H770  1  0.63280000  0.58640000  0.97650000  0.5 0.0798261736
H  H771  1  0.63280000  0.16360000  0.77350000  0.5 0.0798261736
H  H772  1  0.11720000  0.58640000  0.77350000  0.5 0.0798261736
H  H773  1  0.11720000  0.66360000  0.47650000  0.5 0.0798261736
H  H774  1  0.63280000  0.08640000  0.47650000  0.5 0.0798261736
H  H775  1  0.63280000  0.66360000  0.27350000  0.5 0.0798261736
H  H776  1  0.11720000  0.08640000  0.27350000  0.5 0.0798261736
H  H777  1  0.61720000  0.16360000  0.47650000  0.5 0.0798261736
H  H778  1  0.13280000  0.58640000  0.47650000  0.5 0.0798261736
H  H779  1  0.13280000  0.16360000  0.27350000  0.5 0.0798261736
H  H780  1  0.61720000  0.58640000  0.27350000  0.5 0.0798261736
H  H781  1  0.61720000  0.66360000  0.97650000  0.5 0.0798261736
H  H782  1  0.13280000  0.08640000  0.97650000  0.5 0.0798261736
H  H783  1  0.13280000  0.66360000  0.77350000  0.5 0.0798261736
H  H784  1  0.61720000  0.08640000  0.77350000  0.5 0.0798261736
H  H785  1  0.88280000  0.83640000  0.02350000  0.5 0.0798261736
H  H786  1  0.36720000  0.41360000  0.02350000  0.5 0.0798261736
H  H787  1  0.36720000  0.83640000  0.22650000  0.5 0.0798261736
H  H788  1  0.88280000  0.41360000  0.22650000  0.5 0.0798261736
H  H789  1  0.88280000  0.33640000  0.52350000  0.5 0.0798261736
H  H790  1  0.36720000  0.91360000  0.52350000  0.5 0.0798261736
H  H791  1  0.36720000  0.33640000  0.72650000  0.5 0.0798261736
H  H792  1  0.88280000  0.91360000  0.72650000  0.5 0.0798261736
H  H793  1  0.38280000  0.83640000  0.52350000  0.5 0.0798261736
H  H794  1  0.86720000  0.41360000  0.52350000  0.5 0.0798261736
H  H795  1  0.86720000  0.83640000  0.72650000  0.5 0.0798261736
H  H796  1  0.38280000  0.41360000  0.72650000  0.5 0.0798261736
H  H797  1  0.38280000  0.33640000  0.02350000  0.5 0.0798261736
H  H798  1  0.86720000  0.91360000  0.02350000  0.5 0.0798261736
H  H799  1  0.86720000  0.33640000  0.22650000  0.5 0.0798261736
H  H800  1  0.38280000  0.91360000  0.22650000  0.5 0.0798261736
H  H801  1  0.99980000  0.16110000  0.99290000  0.5 0.0798261736
H  H802  1  0.75020000  0.58890000  0.99290000  0.5 0.0798261736
H  H803  1  0.75020000  0.16110000  0.75710000  0.5 0.0798261736
H  H804  1  0.99980000  0.58890000  0.75710000  0.5 0.0798261736
H  H805  1  0.99980000  0.66110000  0.49290000  0.5 0.0798261736
H  H806  1  0.75020000  0.08890000  0.49290000  0.5 0.0798261736
H  H807  1  0.75020000  0.66110000  0.25710000  0.5 0.0798261736
H  H808  1  0.99980000  0.08890000  0.25710000  0.5 0.0798261736
H  H809  1  0.49980000  0.16110000  0.49290000  0.5 0.0798261736
H  H810  1  0.25020000  0.58890000  0.49290000  0.5 0.0798261736
H  H811  1  0.25020000  0.16110000  0.25710000  0.5 0.0798261736
H  H812  1  0.49980000  0.58890000  0.25710000  0.5 0.0798261736
H  H813  1  0.49980000  0.66110000  0.99290000  0.5 0.0798261736
H  H814  1  0.25020000  0.08890000  0.99290000  0.5 0.0798261736
H  H815  1  0.25020000  0.66110000  0.75710000  0.5 0.0798261736
H  H816  1  0.49980000  0.08890000  0.75710000  0.5 0.0798261736
H  H817  1  0.00020000  0.83890000  0.00710000  0.5 0.0798261736
H  H818  1  0.24980000  0.41110000  0.00710000  0.5 0.0798261736
H  H819  1  0.24980000  0.83890000  0.24290000  0.5 0.0798261736
H  H820  1  0.00020000  0.41110000  0.24290000  0.5 0.0798261736
H  H821  1  0.00020000  0.33890000  0.50710000  0.5 0.0798261736
H  H822  1  0.24980000  0.91110000  0.50710000  0.5 0.0798261736
H  H823  1  0.24980000  0.33890000  0.74290000  0.5 0.0798261736
H  H824  1  0.00020000  0.91110000  0.74290000  0.5 0.0798261736
H  H825  1  0.50020000  0.83890000  0.50710000  0.5 0.0798261736
H  H826  1  0.74980000  0.41110000  0.50710000  0.5 0.0798261736
H  H827  1  0.74980000  0.83890000  0.74290000  0.5 0.0798261736
H  H828  1  0.50020000  0.41110000  0.74290000  0.5 0.0798261736
H  H829  1  0.50020000  0.33890000  0.00710000  0.5 0.0798261736
H  H830  1  0.74980000  0.91110000  0.00710000  0.5 0.0798261736
H  H831  1  0.74980000  0.33890000  0.24290000  0.5 0.0798261736
H  H832  1  0.50020000  0.91110000  0.24290000  0.5 0.0798261736
H  H833  1  0.00030000  0.10070000  0.97910000  0.5 0.0729453594
H  H834  1  0.74970000  0.64930000  0.97910000  0.5 0.0729453594
H  H835  1  0.74970000  0.10070000  0.77090000  0.5 0.0729453594
H  H836  1  0.00030000  0.64930000  0.77090000  0.5 0.0729453594
H  H837  1  0.00030000  0.60070000  0.47910000  0.5 0.0729453594
H  H838  1  0.74970000  0.14930000  0.47910000  0.5 0.0729453594
H  H839  1  0.74970000  0.60070000  0.27090000  0.5 0.0729453594
H  H840  1  0.00030000  0.14930000  0.27090000  0.5 0.0729453594
H  H841  1  0.50030000  0.10070000  0.47910000  0.5 0.0729453594
H  H842  1  0.24970000  0.64930000  0.47910000  0.5 0.0729453594
H  H843  1  0.24970000  0.10070000  0.27090000  0.5 0.0729453594
H  H844  1  0.50030000  0.64930000  0.27090000  0.5 0.0729453594
H  H845  1  0.50030000  0.60070000  0.97910000  0.5 0.0729453594
H  H846  1  0.24970000  0.14930000  0.97910000  0.5 0.0729453594
H  H847  1  0.24970000  0.60070000  0.77090000  0.5 0.0729453594
H  H848  1  0.50030000  0.14930000  0.77090000  0.5 0.0729453594
H  H849  1  0.99970000  0.89930000  0.02090000  0.5 0.0729453594
H  H850  1  0.25030000  0.35070000  0.02090000  0.5 0.0729453594
H  H851  1  0.25030000  0.89930000  0.22910000  0.5 0.0729453594
H  H852  1  0.99970000  0.35070000  0.22910000  0.5 0.0729453594
H  H853  1  0.99970000  0.39930000  0.52090000  0.5 0.0729453594
H  H854  1  0.25030000  0.85070000  0.52090000  0.5 0.0729453594
H  H855  1  0.25030000  0.39930000  0.72910000  0.5 0.0729453594
H  H856  1  0.99970000  0.85070000  0.72910000  0.5 0.0729453594
H  H857  1  0.49970000  0.89930000  0.52090000  0.5 0.0729453594
H  H858  1  0.75030000  0.35070000  0.52090000  0.5 0.0729453594
H  H859  1  0.75030000  0.89930000  0.72910000  0.5 0.0729453594
H  H860  1  0.49970000  0.35070000  0.72910000  0.5 0.0729453594
H  H861  1  0.49970000  0.39930000  0.02090000  0.5 0.0729453594
H  H862  1  0.75030000  0.85070000  0.02090000  0.5 0.0729453594
H  H863  1  0.75030000  0.39930000  0.22910000  0.5 0.0729453594
H  H864  1  0.49970000  0.85070000  0.22910000  0.5 0.0729453594
H  H865  1  0.14930000  0.09980000  0.97680000  0.5 0.0798261736
H  H866  1  0.60070000  0.65020000  0.97680000  0.5 0.0798261736
H  H867  1  0.60070000  0.09980000  0.77320000  0.5 0.0798261736
H  H868  1  0.14930000  0.65020000  0.77320000  0.5 0.0798261736
H  H869  1  0.14930000  0.59980000  0.47680000  0.5 0.0798261736
H  H870  1  0.60070000  0.15020000  0.47680000  0.5 0.0798261736
H  H871  1  0.60070000  0.59980000  0.27320000  0.5 0.0798261736
H  H872  1  0.14930000  0.15020000  0.27320000  0.5 0.0798261736
H  H873  1  0.64930000  0.09980000  0.47680000  0.5 0.0798261736
H  H874  1  0.10070000  0.65020000  0.47680000  0.5 0.0798261736
H  H875  1  0.10070000  0.09980000  0.27320000  0.5 0.0798261736
H  H876  1  0.64930000  0.65020000  0.27320000  0.5 0.0798261736
H  H877  1  0.64930000  0.59980000  0.97680000  0.5 0.0798261736
H  H878  1  0.10070000  0.15020000  0.97680000  0.5 0.0798261736
H  H879  1  0.10070000  0.59980000  0.77320000  0.5 0.0798261736
H  H880  1  0.64930000  0.15020000  0.77320000  0.5 0.0798261736
H  H881  1  0.85070000  0.90020000  0.02320000  0.5 0.0798261736
H  H882  1  0.39930000  0.34980000  0.02320000  0.5 0.0798261736
H  H883  1  0.39930000  0.90020000  0.22680000  0.5 0.0798261736
H  H884  1  0.85070000  0.34980000  0.22680000  0.5 0.0798261736
H  H885  1  0.85070000  0.40020000  0.52320000  0.5 0.0798261736
H  H886  1  0.39930000  0.84980000  0.52320000  0.5 0.0798261736
H  H887  1  0.39930000  0.40020000  0.72680000  0.5 0.0798261736
H  H888  1  0.85070000  0.84980000  0.72680000  0.5 0.0798261736
H  H889  1  0.35070000  0.90020000  0.52320000  0.5 0.0798261736
H  H890  1  0.89930000  0.34980000  0.52320000  0.5 0.0798261736
H  H891  1  0.89930000  0.90020000  0.72680000  0.5 0.0798261736
H  H892  1  0.35070000  0.34980000  0.72680000  0.5 0.0798261736
H  H893  1  0.35070000  0.40020000  0.02320000  0.5 0.0798261736
H  H894  1  0.89930000  0.84980000  0.02320000  0.5 0.0798261736
H  H895  1  0.89930000  0.40020000  0.22680000  0.5 0.0798261736
H  H896  1  0.35070000  0.84980000  0.22680000  0.5 0.0798261736
C  C1  1  0.03550000  0.26298000  0.98354000  1.0 0.5535868225
C  C2  1  0.71450000  0.48702000  0.98354000  1.0 0.5535868225
C  C3  1  0.71450000  0.26298000  0.76646000  1.0 0.5535868225
C  C4  1  0.03550000  0.48702000  0.76646000  1.0 0.5535868225
C  C5  1  0.03550000  0.76298000  0.48354000  1.0 0.5535868225
C  C6  1  0.71450000  0.98702000  0.48354000  1.0 0.5535868225
C  C7  1  0.71450000  0.76298000  0.26646000  1.0 0.5535868225
C  C8  1  0.03550000  0.98702000  0.26646000  1.0 0.5535868225
C  C9  1  0.53550000  0.26298000  0.48354000  1.0 0.5535868225
C  C10  1  0.21450000  0.48702000  0.48354000  1.0 0.5535868225
C  C11  1  0.21450000  0.26298000  0.26646000  1.0 0.5535868225
C  C12  1  0.53550000  0.48702000  0.26646000  1.0 0.5535868225
C  C13  1  0.53550000  0.76298000  0.98354000  1.0 0.5535868225
C  C14  1  0.21450000  0.98702000  0.98354000  1.0 0.5535868225
C  C15  1  0.21450000  0.76298000  0.76646000  1.0 0.5535868225
C  C16  1  0.53550000  0.98702000  0.76646000  1.0 0.5535868225
C  C17  1  0.96450000  0.73702000  0.01646000  1.0 0.5535868225
C  C18  1  0.28550000  0.51298000  0.01646000  1.0 0.5535868225
C  C19  1  0.28550000  0.73702000  0.23354000  1.0 0.5535868225
C  C20  1  0.96450000  0.51298000  0.23354000  1.0 0.5535868225
C  C21  1  0.96450000  0.23702000  0.51646000  1.0 0.5535868225
C  C22  1  0.28550000  0.01298000  0.51646000  1.0 0.5535868225
C  C23  1  0.28550000  0.23702000  0.73354000  1.0 0.5535868225
C  C24  1  0.96450000  0.01298000  0.73354000  1.0 0.5535868225
C  C25  1  0.46450000  0.73702000  0.51646000  1.0 0.5535868225
C  C26  1  0.78550000  0.51298000  0.51646000  1.0 0.5535868225
C  C27  1  0.78550000  0.73702000  0.73354000  1.0 0.5535868225
C  C28  1  0.46450000  0.51298000  0.73354000  1.0 0.5535868225
C  C29  1  0.46450000  0.23702000  0.01646000  1.0 0.5535868225
C  C30  1  0.78550000  0.01298000  0.01646000  1.0 0.5535868225
C  C31  1  0.78550000  0.23702000  0.23354000  1.0 0.5535868225
C  C32  1  0.46450000  0.01298000  0.23354000  1.0 0.5535868225
C  C33  1  0.90740000  0.26699000  0.97453000  1.0 -0.0261027333
C  C34  1  0.84260000  0.48301000  0.97453000  1.0 -0.0261027333
C  C35  1  0.84260000  0.26699000  0.77547000  1.0 -0.0261027333
C  C36  1  0.90740000  0.48301000  0.77547000  1.0 -0.0261027333
C  C37  1  0.90740000  0.76699000  0.47453000  1.0 -0.0261027333
C  C38  1  0.84260000  0.98301000  0.47453000  1.0 -0.0261027333
C  C39  1  0.84260000  0.76699000  0.27547000  1.0 -0.0261027333
C  C40  1  0.90740000  0.98301000  0.27547000  1.0 -0.0261027333
C  C41  1  0.40740000  0.26699000  0.47453000  1.0 -0.0261027333
C  C42  1  0.34260000  0.48301000  0.47453000  1.0 -0.0261027333
C  C43  1  0.34260000  0.26699000  0.27547000  1.0 -0.0261027333
C  C44  1  0.40740000  0.48301000  0.27547000  1.0 -0.0261027333
C  C45  1  0.40740000  0.76699000  0.97453000  1.0 -0.0261027333
C  C46  1  0.34260000  0.98301000  0.97453000  1.0 -0.0261027333
C  C47  1  0.34260000  0.76699000  0.77547000  1.0 -0.0261027333
C  C48  1  0.40740000  0.98301000  0.77547000  1.0 -0.0261027333
C  C49  1  0.09260000  0.73301000  0.02547000  1.0 -0.0261027333
C  C50  1  0.15740000  0.51699000  0.02547000  1.0 -0.0261027333
C  C51  1  0.15740000  0.73301000  0.22453000  1.0 -0.0261027333
C  C52  1  0.09260000  0.51699000  0.22453000  1.0 -0.0261027333
C  C53  1  0.09260000  0.23301000  0.52547000  1.0 -0.0261027333
C  C54  1  0.15740000  0.01699000  0.52547000  1.0 -0.0261027333
C  C55  1  0.15740000  0.23301000  0.72453000  1.0 -0.0261027333
C  C56  1  0.09260000  0.01699000  0.72453000  1.0 -0.0261027333
C  C57  1  0.59260000  0.73301000  0.52547000  1.0 -0.0261027333
C  C58  1  0.65740000  0.51699000  0.52547000  1.0 -0.0261027333
C  C59  1  0.65740000  0.73301000  0.72453000  1.0 -0.0261027333
C  C60  1  0.59260000  0.51699000  0.72453000  1.0 -0.0261027333
C  C61  1  0.59260000  0.23301000  0.02547000  1.0 -0.0261027333
C  C62  1  0.65740000  0.01699000  0.02547000  1.0 -0.0261027333
C  C63  1  0.65740000  0.23301000  0.22453000  1.0 -0.0261027333
C  C64  1  0.59260000  0.01699000  0.22453000  1.0 -0.0261027333
C  C65  1  0.86900000  0.29884000  0.96427000  1.0 -0.1408308726
C  C66  1  0.88100000  0.45116000  0.96427000  1.0 -0.1408308726
C  C67  1  0.88100000  0.29884000  0.78573000  1.0 -0.1408308726
C  C68  1  0.86900000  0.45116000  0.78573000  1.0 -0.1408308726
C  C69  1  0.86900000  0.79884000  0.46427000  1.0 -0.1408308726
C  C70  1  0.88100000  0.95116000  0.46427000  1.0 -0.1408308726
C  C71  1  0.88100000  0.79884000  0.28573000  1.0 -0.1408308726
C  C72  1  0.86900000  0.95116000  0.28573000  1.0 -0.1408308726
C  C73  1  0.36900000  0.29884000  0.46427000  1.0 -0.1408308726
C  C74  1  0.38100000  0.45116000  0.46427000  1.0 -0.1408308726
C  C75  1  0.38100000  0.29884000  0.28573000  1.0 -0.1408308726
C  C76  1  0.36900000  0.45116000  0.28573000  1.0 -0.1408308726
C  C77  1  0.36900000  0.79884000  0.96427000  1.0 -0.1408308726
C  C78  1  0.38100000  0.95116000  0.96427000  1.0 -0.1408308726
C  C79  1  0.38100000  0.79884000  0.78573000  1.0 -0.1408308726
C  C80  1  0.36900000  0.95116000  0.78573000  1.0 -0.1408308726
C  C81  1  0.13100000  0.70116000  0.03573000  1.0 -0.1408308726
C  C82  1  0.11900000  0.54884000  0.03573000  1.0 -0.1408308726
C  C83  1  0.11900000  0.70116000  0.21427000  1.0 -0.1408308726
C  C84  1  0.13100000  0.54884000  0.21427000  1.0 -0.1408308726
C  C85  1  0.13100000  0.20116000  0.53573000  1.0 -0.1408308726
C  C86  1  0.11900000  0.04884000  0.53573000  1.0 -0.1408308726
C  C87  1  0.11900000  0.20116000  0.71427000  1.0 -0.1408308726
C  C88  1  0.13100000  0.04884000  0.71427000  1.0 -0.1408308726
C  C89  1  0.63100000  0.70116000  0.53573000  1.0 -0.1408308726
C  C90  1  0.61900000  0.54884000  0.53573000  1.0 -0.1408308726
C  C91  1  0.61900000  0.70116000  0.71427000  1.0 -0.1408308726
C  C92  1  0.63100000  0.54884000  0.71427000  1.0 -0.1408308726
C  C93  1  0.63100000  0.20116000  0.03573000  1.0 -0.1408308726
C  C94  1  0.61900000  0.04884000  0.03573000  1.0 -0.1408308726
C  C95  1  0.61900000  0.20116000  0.21427000  1.0 -0.1408308726
C  C96  1  0.63100000  0.04884000  0.21427000  1.0 -0.1408308726
C  C97  1  0.74880000  0.30322000  0.95637000  1.0 0.1194192329
C  C98  1  0.00120000  0.44678000  0.95637000  1.0 0.1194192329
C  C99  1  0.00120000  0.30322000  0.79363000  1.0 0.1194192329
C  C100  1  0.74880000  0.44678000  0.79363000  1.0 0.1194192329
C  C101  1  0.74880000  0.80322000  0.45637000  1.0 0.1194192329
C  C102  1  0.00120000  0.94678000  0.45637000  1.0 0.1194192329
C  C103  1  0.00120000  0.80322000  0.29363000  1.0 0.1194192329
C  C104  1  0.74880000  0.94678000  0.29363000  1.0 0.1194192329
C  C105  1  0.24880000  0.30322000  0.45637000  1.0 0.1194192329
C  C106  1  0.50120000  0.44678000  0.45637000  1.0 0.1194192329
C  C107  1  0.50120000  0.30322000  0.29363000  1.0 0.1194192329
C  C108  1  0.24880000  0.44678000  0.29363000  1.0 0.1194192329
C  C109  1  0.24880000  0.80322000  0.95637000  1.0 0.1194192329
C  C110  1  0.50120000  0.94678000  0.95637000  1.0 0.1194192329
C  C111  1  0.50120000  0.80322000  0.79363000  1.0 0.1194192329
C  C112  1  0.24880000  0.94678000  0.79363000  1.0 0.1194192329
C  C113  1  0.25120000  0.69678000  0.04363000  1.0 0.1194192329
C  C114  1  0.99880000  0.55322000  0.04363000  1.0 0.1126714008
C  C115  1  0.99880000  0.69678000  0.20637000  1.0 0.1194192329
C  C116  1  0.25120000  0.55322000  0.20637000  1.0 0.1194192329
C  C117  1  0.25120000  0.19678000  0.54363000  1.0 0.1194192329
C  C118  1  0.99880000  0.05322000  0.54363000  1.0 0.1126714008
C  C119  1  0.99880000  0.19678000  0.70637000  1.0 0.1194192329
C  C120  1  0.25120000  0.05322000  0.70637000  1.0 0.1194192329
C  C121  1  0.75120000  0.69678000  0.54363000  1.0 0.1194192329
C  C122  1  0.49880000  0.55322000  0.54363000  1.0 0.1194192329
C  C123  1  0.49880000  0.69678000  0.70637000  1.0 0.1194192329
C  C124  1  0.75120000  0.55322000  0.70637000  1.0 0.1194192329
C  C125  1  0.75120000  0.19678000  0.04363000  1.0 0.1126714008
C  C126  1  0.49880000  0.05322000  0.04363000  1.0 0.1126714008
C  C127  1  0.49880000  0.19678000  0.20637000  1.0 0.1194192329
C  C128  1  0.75120000  0.05322000  0.20637000  1.0 0.1126714008
C  C129  1  0.66430000  0.27490000  0.95867000  1.0 -0.1280232912
C  C130  1  0.08570000  0.47510000  0.95867000  1.0 -0.1280232912
C  C131  1  0.08570000  0.27490000  0.79133000  1.0 -0.1280232912
C  C132  1  0.66430000  0.47510000  0.79133000  1.0 -0.1280232912
C  C133  1  0.66430000  0.77490000  0.45867000  1.0 -0.1280232912
C  C134  1  0.08570000  0.97510000  0.45867000  1.0 -0.1280232912
C  C135  1  0.08570000  0.77490000  0.29133000  1.0 -0.1280232912
C  C136  1  0.66430000  0.97510000  0.29133000  1.0 -0.1280232912
C  C137  1  0.16430000  0.27490000  0.45867000  1.0 -0.1280232912
C  C138  1  0.58570000  0.47510000  0.45867000  1.0 -0.1280232912
C  C139  1  0.58570000  0.27490000  0.29133000  1.0 -0.1280232912
C  C140  1  0.16430000  0.47510000  0.29133000  1.0 -0.1280232912
C  C141  1  0.16430000  0.77490000  0.95867000  1.0 -0.1280232912
C  C142  1  0.58570000  0.97510000  0.95867000  1.0 -0.1280232912
C  C143  1  0.58570000  0.77490000  0.79133000  1.0 -0.1280232912
C  C144  1  0.16430000  0.97510000  0.79133000  1.0 -0.1280232912
C  C145  1  0.33570000  0.72510000  0.04133000  1.0 -0.1280232912
C  C146  1  0.91430000  0.52490000  0.04133000  1.0 -0.1280232912
C  C147  1  0.91430000  0.72510000  0.20867000  1.0 -0.1280232912
C  C148  1  0.33570000  0.52490000  0.20867000  1.0 -0.1280232912
C  C149  1  0.33570000  0.22510000  0.54133000  1.0 -0.1280232912
C  C150  1  0.91430000  0.02490000  0.54133000  1.0 -0.1280232912
C  C151  1  0.91430000  0.22510000  0.70867000  1.0 -0.1280232912
C  C152  1  0.33570000  0.02490000  0.70867000  1.0 -0.1280232912
C  C153  1  0.83570000  0.72510000  0.54133000  1.0 -0.1280232912
C  C154  1  0.41430000  0.52490000  0.54133000  1.0 -0.1280232912
C  C155  1  0.41430000  0.72510000  0.70867000  1.0 -0.1280232912
C  C156  1  0.83570000  0.52490000  0.70867000  1.0 -0.1280232912
C  C157  1  0.83570000  0.22510000  0.04133000  1.0 -0.1280232912
C  C158  1  0.41430000  0.02490000  0.04133000  1.0 -0.1280232912
C  C159  1  0.41430000  0.22510000  0.20867000  1.0 -0.1280232912
C  C160  1  0.83570000  0.02490000  0.20867000  1.0 -0.1280232912
C  C161  1  0.70080000  0.24321000  0.96795000  1.0 -0.0801025899
C  C162  1  0.04920000  0.50679000  0.96795000  1.0 -0.0801025899
C  C163  1  0.04920000  0.24321000  0.78205000  1.0 -0.0801025899
C  C164  1  0.70080000  0.50679000  0.78205000  1.0 -0.0801025899
C  C165  1  0.70080000  0.74321000  0.46795000  1.0 -0.0801025899
C  C166  1  0.04920000  0.00679000  0.46795000  1.0 -0.0801025899
C  C167  1  0.04920000  0.74321000  0.28205000  1.0 -0.0801025899
C  C168  1  0.70080000  0.00679000  0.28205000  1.0 -0.0801025899
C  C169  1  0.20080000  0.24321000  0.46795000  1.0 -0.0801025899
C  C170  1  0.54920000  0.50679000  0.46795000  1.0 -0.0801025899
C  C171  1  0.54920000  0.24321000  0.28205000  1.0 -0.0801025899
C  C172  1  0.20080000  0.50679000  0.28205000  1.0 -0.0801025899
C  C173  1  0.20080000  0.74321000  0.96795000  1.0 -0.0801025899
C  C174  1  0.54920000  0.00679000  0.96795000  1.0 -0.0801025899
C  C175  1  0.54920000  0.74321000  0.78205000  1.0 -0.0801025899
C  C176  1  0.20080000  0.00679000  0.78205000  1.0 -0.0801025899
C  C177  1  0.29920000  0.75679000  0.03205000  1.0 -0.0801025899
C  C178  1  0.95080000  0.49321000  0.03205000  1.0 -0.0801025899
C  C179  1  0.95080000  0.75679000  0.21795000  1.0 -0.0801025899
C  C180  1  0.29920000  0.49321000  0.21795000  1.0 -0.0801025899
C  C181  1  0.29920000  0.25679000  0.53205000  1.0 -0.0801025899
C  C182  1  0.95080000  0.99321000  0.53205000  1.0 -0.0801025899
C  C183  1  0.95080000  0.25679000  0.71795000  1.0 -0.0801025899
C  C184  1  0.29920000  0.99321000  0.71795000  1.0 -0.0801025899
C  C185  1  0.79920000  0.75679000  0.53205000  1.0 -0.0801025899
C  C186  1  0.45080000  0.49321000  0.53205000  1.0 -0.0801025899
C  C187  1  0.45080000  0.75679000  0.71795000  1.0 -0.0801025899
C  C188  1  0.79920000  0.49321000  0.71795000  1.0 -0.0801025899
C  C189  1  0.79920000  0.25679000  0.03205000  1.0 -0.0801025899
C  C190  1  0.45080000  0.99321000  0.03205000  1.0 -0.0801025899
C  C191  1  0.45080000  0.25679000  0.21795000  1.0 -0.0801025899
C  C192  1  0.79920000  0.99321000  0.21795000  1.0 -0.0801025899
C  C193  1  0.82040000  0.23862000  0.97635000  1.0 -0.1084819134
C  C194  1  0.92960000  0.51138000  0.97635000  1.0 -0.1084819134
C  C195  1  0.92960000  0.23862000  0.77365000  1.0 -0.1084819134
C  C196  1  0.82040000  0.51138000  0.77365000  1.0 -0.1084819134
C  C197  1  0.82040000  0.73862000  0.47635000  1.0 -0.1084819134
C  C198  1  0.92960000  0.01138000  0.47635000  1.0 -0.1084819134
C  C199  1  0.92960000  0.73862000  0.27365000  1.0 -0.1084819134
C  C200  1  0.82040000  0.01138000  0.27365000  1.0 -0.1084819134
C  C201  1  0.32040000  0.23862000  0.47635000  1.0 -0.1084819134
C  C202  1  0.42960000  0.51138000  0.47635000  1.0 -0.1084819134
C  C203  1  0.42960000  0.23862000  0.27365000  1.0 -0.1084819134
C  C204  1  0.32040000  0.51138000  0.27365000  1.0 -0.1084819134
C  C205  1  0.32040000  0.73862000  0.97635000  1.0 -0.1084819134
C  C206  1  0.42960000  0.01138000  0.97635000  1.0 -0.1084819134
C  C207  1  0.42960000  0.73862000  0.77365000  1.0 -0.1084819134
C  C208  1  0.32040000  0.01138000  0.77365000  1.0 -0.1084819134
C  C209  1  0.17960000  0.76138000  0.02365000  1.0 -0.1084819134
C  C210  1  0.07040000  0.48862000  0.02365000  1.0 -0.1084819134
C  C211  1  0.07040000  0.76138000  0.22635000  1.0 -0.1084819134
C  C212  1  0.17960000  0.48862000  0.22635000  1.0 -0.1084819134
C  C213  1  0.17960000  0.26138000  0.52365000  1.0 -0.1084819134
C  C214  1  0.07040000  0.98862000  0.52365000  1.0 -0.1084819134
C  C215  1  0.07040000  0.26138000  0.72635000  1.0 -0.1084819134
C  C216  1  0.17960000  0.98862000  0.72635000  1.0 -0.1084819134
C  C217  1  0.67960000  0.76138000  0.52365000  1.0 -0.1084819134
C  C218  1  0.57040000  0.48862000  0.52365000  1.0 -0.1084819134
C  C219  1  0.57040000  0.76138000  0.72635000  1.0 -0.1084819134
C  C220  1  0.67960000  0.48862000  0.72635000  1.0 -0.1084819134
C  C221  1  0.67960000  0.26138000  0.02365000  1.0 -0.1084819134
C  C222  1  0.57040000  0.98862000  0.02365000  1.0 -0.1084819134
C  C223  1  0.57040000  0.26138000  0.22635000  1.0 -0.1084819134
C  C224  1  0.67960000  0.98862000  0.22635000  1.0 -0.1084819134
C  C225  1  0.71170000  0.33559000  0.94478000  1.0 -0.2238445743
C  C226  1  0.03830000  0.41441000  0.94478000  1.0 -0.2238445743
C  C227  1  0.03830000  0.33559000  0.80522000  1.0 -0.2238445743
C  C228  1  0.71170000  0.41441000  0.80522000  1.0 -0.2238445743
C  C229  1  0.71170000  0.83559000  0.44478000  1.0 -0.2238445743
C  C230  1  0.03830000  0.91441000  0.44478000  1.0 -0.2238445743
C  C231  1  0.03830000  0.83559000  0.30522000  1.0 -0.2238445743
C  C232  1  0.71170000  0.91441000  0.30522000  1.0 -0.2238445743
C  C233  1  0.21170000  0.33559000  0.44478000  1.0 -0.2238445743
C  C234  1  0.53830000  0.41441000  0.44478000  1.0 -0.2238445743
C  C235  1  0.53830000  0.33559000  0.30522000  1.0 -0.2238445743
C  C236  1  0.21170000  0.41441000  0.30522000  1.0 -0.2238445743
C  C237  1  0.21170000  0.83559000  0.94478000  1.0 -0.2238445743
C  C238  1  0.53830000  0.91441000  0.94478000  1.0 -0.2238445743
C  C239  1  0.53830000  0.83559000  0.80522000  1.0 -0.2238445743
C  C240  1  0.21170000  0.91441000  0.80522000  1.0 -0.2238445743
C  C241  1  0.28830000  0.66441000  0.05522000  1.0 -0.2238445743
C  C242  1  0.96170000  0.58559000  0.05522000  1.0 -0.2238445743
C  C243  1  0.96170000  0.66441000  0.19478000  1.0 -0.2238445743
C  C244  1  0.28830000  0.58559000  0.19478000  1.0 -0.2238445743
C  C245  1  0.28830000  0.16441000  0.55522000  1.0 -0.2238445743
C  C246  1  0.96170000  0.08559000  0.55522000  1.0 -0.2238445743
C  C247  1  0.96170000  0.16441000  0.69478000  1.0 -0.2238445743
C  C248  1  0.28830000  0.08559000  0.69478000  1.0 -0.2238445743
C  C249  1  0.78830000  0.66441000  0.55522000  1.0 -0.2238445743
C  C250  1  0.46170000  0.58559000  0.55522000  1.0 -0.2238445743
C  C251  1  0.46170000  0.66441000  0.69478000  1.0 -0.2238445743
C  C252  1  0.78830000  0.58559000  0.69478000  1.0 -0.2238445743
C  C253  1  0.78830000  0.16441000  0.05522000  1.0 -0.2238445743
C  C254  1  0.46170000  0.08559000  0.05522000  1.0 -0.2238445743
C  C255  1  0.46170000  0.16441000  0.19478000  1.0 -0.2238445743
C  C256  1  0.78830000  0.08559000  0.19478000  1.0 -0.2238445743
C  C257  1  0.68240000  0.36115000  0.93431000  1.0 -0.2388867266
C  C258  1  0.06760000  0.38885000  0.93431000  1.0 -0.2388867266
C  C259  1  0.06760000  0.36115000  0.81569000  1.0 -0.2388867266
C  C260  1  0.68240000  0.38885000  0.81569000  1.0 -0.2388867266
C  C261  1  0.68240000  0.86115000  0.43431000  1.0 -0.2388867266
C  C262  1  0.06760000  0.88885000  0.43431000  1.0 -0.2388867266
C  C263  1  0.06760000  0.86115000  0.31569000  1.0 -0.2388867266
C  C264  1  0.68240000  0.88885000  0.31569000  1.0 -0.2388867266
C  C265  1  0.18240000  0.36115000  0.43431000  1.0 -0.2388867266
C  C266  1  0.56760000  0.38885000  0.43431000  1.0 -0.2388867266
C  C267  1  0.56760000  0.36115000  0.31569000  1.0 -0.2388867266
C  C268  1  0.18240000  0.38885000  0.31569000  1.0 -0.2388867266
C  C269  1  0.18240000  0.86115000  0.93431000  1.0 -0.2388867266
C  C270  1  0.56760000  0.88885000  0.93431000  1.0 -0.2388867266
C  C271  1  0.56760000  0.86115000  0.81569000  1.0 -0.2388867266
C  C272  1  0.18240000  0.88885000  0.81569000  1.0 -0.2388867266
C  C273  1  0.31760000  0.63885000  0.06569000  1.0 -0.2388867266
C  C274  1  0.93240000  0.61115000  0.06569000  1.0 -0.2388867266
C  C275  1  0.93240000  0.63885000  0.18431000  1.0 -0.2388867266
C  C276  1  0.31760000  0.61115000  0.18431000  1.0 -0.2388867266
C  C277  1  0.31760000  0.13885000  0.56569000  1.0 -0.2388867266
C  C278  1  0.93240000  0.11115000  0.56569000  1.0 -0.2388867266
C  C279  1  0.93240000  0.13885000  0.68431000  1.0 -0.2388867266
C  C280  1  0.31760000  0.11115000  0.68431000  1.0 -0.2388867266
C  C281  1  0.81760000  0.63885000  0.56569000  1.0 -0.2388867266
C  C282  1  0.43240000  0.61115000  0.56569000  1.0 -0.2388867266
C  C283  1  0.43240000  0.63885000  0.68431000  1.0 -0.2388867266
C  C284  1  0.81760000  0.61115000  0.68431000  1.0 -0.2388867266
C  C285  1  0.81760000  0.13885000  0.06569000  1.0 -0.2388867266
C  C286  1  0.43240000  0.11115000  0.06569000  1.0 -0.2388867266
C  C287  1  0.43240000  0.13885000  0.18431000  1.0 -0.2388867266
C  C288  1  0.81760000  0.11115000  0.18431000  1.0 -0.2388867266
C  C609  1  0.55100000  0.47447000  0.87562000  1.0 -0.1280232912
C  C610  1  0.19900000  0.27553000  0.87562000  1.0 -0.1280232912
C  C611  1  0.19900000  0.47447000  0.87438000  1.0 -0.1280232912
C  C612  1  0.55100000  0.27553000  0.87438000  1.0 -0.1280232912
C  C613  1  0.55100000  0.97447000  0.37562000  1.0 -0.1280232912
C  C614  1  0.19900000  0.77553000  0.37562000  1.0 -0.1280232912
C  C615  1  0.19900000  0.97447000  0.37438000  1.0 -0.1280232912
C  C616  1  0.55100000  0.77553000  0.37438000  1.0 -0.1280232912
C  C617  1  0.05100000  0.47447000  0.37562000  1.0 -0.1280232912
C  C618  1  0.69900000  0.27553000  0.37562000  1.0 -0.1280232912
C  C619  1  0.69900000  0.47447000  0.37438000  1.0 -0.1280232912
C  C620  1  0.05100000  0.27553000  0.37438000  1.0 -0.1280232912
C  C621  1  0.05100000  0.97447000  0.87562000  1.0 -0.1280232912
C  C622  1  0.69900000  0.77553000  0.87562000  1.0 -0.1280232912
C  C623  1  0.69900000  0.97447000  0.87438000  1.0 -0.1280232912
C  C624  1  0.05100000  0.77553000  0.87438000  1.0 -0.1280232912
C  C625  1  0.44900000  0.52553000  0.12438000  1.0 -0.1280232912
C  C626  1  0.80100000  0.72447000  0.12438000  1.0 -0.1280232912
C  C627  1  0.80100000  0.52553000  0.12562000  1.0 -0.1280232912
C  C628  1  0.44900000  0.72447000  0.12562000  1.0 -0.1280232912
C  C629  1  0.44900000  0.02553000  0.62438000  1.0 -0.1280232912
C  C630  1  0.80100000  0.22447000  0.62438000  1.0 -0.1280232912
C  C631  1  0.80100000  0.02553000  0.62562000  1.0 -0.1280232912
C  C632  1  0.44900000  0.22447000  0.62562000  1.0 -0.1280232912
C  C633  1  0.94900000  0.52553000  0.62438000  1.0 -0.1280232912
C  C634  1  0.30100000  0.72447000  0.62438000  1.0 -0.1280232912
C  C635  1  0.30100000  0.52553000  0.62562000  1.0 -0.1280232912
C  C636  1  0.94900000  0.72447000  0.62562000  1.0 -0.1280232912
C  C637  1  0.94900000  0.02553000  0.12438000  1.0 -0.1280232912
C  C638  1  0.30100000  0.22447000  0.12438000  1.0 -0.1280232912
C  C639  1  0.30100000  0.02553000  0.12562000  1.0 -0.1280232912
C  C640  1  0.94900000  0.22447000  0.12562000  1.0 -0.1280232912
C  C641  1  0.51710000  0.49630000  0.86252000  1.0 -0.1280232912
C  C642  1  0.23290000  0.25370000  0.86252000  1.0 -0.1280232912
C  C643  1  0.23290000  0.49630000  0.88748000  1.0 -0.1280232912
C  C644  1  0.51710000  0.25370000  0.88748000  1.0 -0.1280232912
C  C645  1  0.51710000  0.99630000  0.36252000  1.0 -0.1280232912
C  C646  1  0.23290000  0.75370000  0.36252000  1.0 -0.1280232912
C  C647  1  0.23290000  0.99630000  0.38748000  1.0 -0.1280232912
C  C648  1  0.51710000  0.75370000  0.38748000  1.0 -0.1280232912
C  C649  1  0.01710000  0.49630000  0.36252000  1.0 -0.1280232912
C  C650  1  0.73290000  0.25370000  0.36252000  1.0 -0.1280232912
C  C651  1  0.73290000  0.49630000  0.38748000  1.0 -0.1280232912
C  C652  1  0.01710000  0.25370000  0.38748000  1.0 -0.1280232912
C  C653  1  0.01710000  0.99630000  0.86252000  1.0 -0.1280232912
C  C654  1  0.73290000  0.75370000  0.86252000  1.0 -0.1280232912
C  C655  1  0.73290000  0.99630000  0.88748000  1.0 -0.1280232912
C  C656  1  0.01710000  0.75370000  0.88748000  1.0 -0.1280232912
C  C657  1  0.48290000  0.50370000  0.13748000  1.0 -0.1280232912
C  C658  1  0.76710000  0.74630000  0.13748000  1.0 -0.1280232912
C  C659  1  0.76710000  0.50370000  0.11252000  1.0 -0.1280232912
C  C660  1  0.48290000  0.74630000  0.11252000  1.0 -0.1280232912
C  C661  1  0.48290000  0.00370000  0.63748000  1.0 -0.1280232912
C  C662  1  0.76710000  0.24630000  0.63748000  1.0 -0.1280232912
C  C663  1  0.76710000  0.00370000  0.61252000  1.0 -0.1280232912
C  C664  1  0.48290000  0.24630000  0.61252000  1.0 -0.1280232912
C  C665  1  0.98290000  0.50370000  0.63748000  1.0 -0.1280232912
C  C666  1  0.26710000  0.74630000  0.63748000  1.0 -0.1280232912
C  C667  1  0.26710000  0.50370000  0.61252000  1.0 -0.1280232912
C  C668  1  0.98290000  0.74630000  0.61252000  1.0 -0.1280232912
C  C669  1  0.98290000  0.00370000  0.13748000  1.0 -0.1280232912
C  C670  1  0.26710000  0.24630000  0.13748000  1.0 -0.1280232912
C  C671  1  0.26710000  0.00370000  0.11252000  1.0 -0.1280232912
C  C672  1  0.98290000  0.24630000  0.11252000  1.0 -0.1280232912
C  C673  1  0.47670000  0.52215000  0.84626000  1.0 0.1355930595
C  C674  1  0.27330000  0.22785000  0.84626000  1.0 0.1355930595
C  C675  1  0.27330000  0.52215000  0.90374000  1.0 0.1355930595
C  C676  1  0.47670000  0.22785000  0.90374000  1.0 0.1355930595
C  C677  1  0.47670000  0.02215000  0.34626000  1.0 0.1355930595
C  C678  1  0.27330000  0.72785000  0.34626000  1.0 0.1355930595
C  C679  1  0.27330000  0.02215000  0.40374000  1.0 0.1355930595
C  C680  1  0.47670000  0.72785000  0.40374000  1.0 0.1355930595
C  C681  1  0.97670000  0.52215000  0.34626000  1.0 0.1355930595
C  C682  1  0.77330000  0.22785000  0.34626000  1.0 0.1355930595
C  C683  1  0.77330000  0.52215000  0.40374000  1.0 0.1355930595
C  C684  1  0.97670000  0.22785000  0.40374000  1.0 0.1355930595
C  C685  1  0.97670000  0.02215000  0.84626000  1.0 0.1355930595
C  C686  1  0.77330000  0.72785000  0.84626000  1.0 0.1355930595
C  C687  1  0.77330000  0.02215000  0.90374000  1.0 0.1355930595
C  C688  1  0.97670000  0.72785000  0.90374000  1.0 0.1355930595
C  C689  1  0.52330000  0.47785000  0.15374000  1.0 0.1355930595
C  C690  1  0.72670000  0.77215000  0.15374000  1.0 0.1355930595
C  C691  1  0.72670000  0.47785000  0.09626000  1.0 0.1355930595
C  C692  1  0.52330000  0.77215000  0.09626000  1.0 0.1355930595
C  C693  1  0.52330000  0.97785000  0.65374000  1.0 0.1355930595
C  C694  1  0.72670000  0.27215000  0.65374000  1.0 0.1355930595
C  C695  1  0.72670000  0.97785000  0.59626000  1.0 0.1355930595
C  C696  1  0.52330000  0.27215000  0.59626000  1.0 0.1355930595
C  C697  1  0.02330000  0.47785000  0.65374000  1.0 0.1355930595
C  C698  1  0.22670000  0.77215000  0.65374000  1.0 0.1355930595
C  C699  1  0.22670000  0.47785000  0.59626000  1.0 0.1355930595
C  C700  1  0.02330000  0.77215000  0.59626000  1.0 0.1355930595
C  C701  1  0.02330000  0.97785000  0.15374000  1.0 0.1355930595
C  C702  1  0.22670000  0.27215000  0.15374000  1.0 0.1355930595
C  C703  1  0.22670000  0.97785000  0.09626000  1.0 0.1355930595
C  C704  1  0.02330000  0.27215000  0.09626000  1.0 0.1355930595
C  C705  1  0.42490000  0.50871000  0.82643000  1.0 -0.1608099206
C  C706  1  0.32510000  0.24129000  0.82643000  1.0 -0.1608099206
C  C707  1  0.32510000  0.50871000  0.92357000  1.0 -0.1608099206
C  C708  1  0.42490000  0.24129000  0.92357000  1.0 -0.1608099206
C  C709  1  0.42490000  0.00871000  0.32643000  1.0 -0.1608099206
C  C710  1  0.32510000  0.74129000  0.32643000  1.0 -0.1608099206
C  C711  1  0.32510000  0.00871000  0.42357000  1.0 -0.1608099206
C  C712  1  0.42490000  0.74129000  0.42357000  1.0 -0.1608099206
C  C713  1  0.92490000  0.50871000  0.32643000  1.0 -0.1608099206
C  C714  1  0.82510000  0.24129000  0.32643000  1.0 -0.1608099206
C  C715  1  0.82510000  0.50871000  0.42357000  1.0 -0.1608099206
C  C716  1  0.92490000  0.24129000  0.42357000  1.0 -0.1608099206
C  C717  1  0.92490000  0.00871000  0.82643000  1.0 -0.1608099206
C  C718  1  0.82510000  0.74129000  0.82643000  1.0 -0.1608099206
C  C719  1  0.82510000  0.00871000  0.92357000  1.0 -0.1608099206
C  C720  1  0.92490000  0.74129000  0.92357000  1.0 -0.1608099206
C  C721  1  0.57510000  0.49129000  0.17357000  1.0 -0.1608099206
C  C722  1  0.67490000  0.75871000  0.17357000  1.0 -0.1608099206
C  C723  1  0.67490000  0.49129000  0.07643000  1.0 -0.1608099206
C  C724  1  0.57510000  0.75871000  0.07643000  1.0 -0.1608099206
C  C725  1  0.57510000  0.99129000  0.67357000  1.0 -0.1608099206
C  C726  1  0.67490000  0.25871000  0.67357000  1.0 -0.1608099206
C  C727  1  0.67490000  0.99129000  0.57643000  1.0 -0.1608099206
C  C728  1  0.57510000  0.25871000  0.57643000  1.0 -0.1608099206
C  C729  1  0.07510000  0.49129000  0.67357000  1.0 -0.1608099206
C  C730  1  0.17490000  0.75871000  0.67357000  1.0 -0.1608099206
C  C731  1  0.17490000  0.49129000  0.57643000  1.0 -0.1608099206
C  C732  1  0.07510000  0.75871000  0.57643000  1.0 -0.1608099206
C  C733  1  0.07510000  0.99129000  0.17357000  1.0 -0.1608099206
C  C734  1  0.17490000  0.25871000  0.17357000  1.0 -0.1608099206
C  C735  1  0.17490000  0.99129000  0.07643000  1.0 -0.1608099206
C  C736  1  0.07510000  0.25871000  0.07643000  1.0 -0.1608099206
C  C737  1  0.38380000  0.53150000  0.81010000  1.0 -0.0110550733
C  C738  1  0.36620000  0.21850000  0.81010000  1.0 -0.0110550733
C  C739  1  0.36620000  0.53150000  0.93990000  1.0 -0.0110550733
C  C740  1  0.38380000  0.21850000  0.93990000  1.0 -0.0110550733
C  C741  1  0.38380000  0.03150000  0.31010000  1.0 -0.0110550733
C  C742  1  0.36620000  0.71850000  0.31010000  1.0 -0.0110550733
C  C743  1  0.36620000  0.03150000  0.43990000  1.0 -0.0110550733
C  C744  1  0.38380000  0.71850000  0.43990000  1.0 -0.0110550733
C  C745  1  0.88380000  0.53150000  0.31010000  1.0 -0.0110550733
C  C746  1  0.86620000  0.21850000  0.31010000  1.0 -0.0110550733
C  C747  1  0.86620000  0.53150000  0.43990000  1.0 -0.0110550733
C  C748  1  0.88380000  0.21850000  0.43990000  1.0 -0.0110550733
C  C749  1  0.88380000  0.03150000  0.81010000  1.0 -0.0110550733
C  C750  1  0.86620000  0.71850000  0.81010000  1.0 -0.0110550733
C  C751  1  0.86620000  0.03150000  0.93990000  1.0 -0.0110550733
C  C752  1  0.88380000  0.71850000  0.93990000  1.0 -0.0110550733
C  C753  1  0.61620000  0.46850000  0.18990000  1.0 -0.0110550733
C  C754  1  0.63380000  0.78150000  0.18990000  1.0 -0.0110550733
C  C755  1  0.63380000  0.46850000  0.06010000  1.0 -0.0110550733
C  C756  1  0.61620000  0.78150000  0.06010000  1.0 -0.0110550733
C  C757  1  0.61620000  0.96850000  0.68990000  1.0 -0.0110550733
C  C758  1  0.63380000  0.28150000  0.68990000  1.0 -0.0110550733
C  C759  1  0.63380000  0.96850000  0.56010000  1.0 -0.0110550733
C  C760  1  0.61620000  0.28150000  0.56010000  1.0 -0.0110550733
C  C761  1  0.11620000  0.46850000  0.68990000  1.0 -0.0110550733
C  C762  1  0.13380000  0.78150000  0.68990000  1.0 -0.0110550733
C  C763  1  0.13380000  0.46850000  0.56010000  1.0 -0.0110550733
C  C764  1  0.11620000  0.78150000  0.56010000  1.0 -0.0110550733
C  C765  1  0.11620000  0.96850000  0.18990000  1.0 -0.0110550733
C  C766  1  0.13380000  0.28150000  0.18990000  1.0 -0.0110550733
C  C767  1  0.13380000  0.96850000  0.06010000  1.0 -0.0110550733
C  C768  1  0.11620000  0.28150000  0.06010000  1.0 -0.0110550733
C  C769  1  0.39350000  0.56876000  0.81329000  1.0 -0.1175373662
C  C770  1  0.35650000  0.18124000  0.81329000  1.0 -0.1175373662
C  C771  1  0.35650000  0.56876000  0.93671000  1.0 -0.1175373662
C  C772  1  0.39350000  0.18124000  0.93671000  1.0 -0.1175373662
C  C773  1  0.39350000  0.06876000  0.31329000  1.0 -0.1175373662
C  C774  1  0.35650000  0.68124000  0.31329000  1.0 -0.1175373662
C  C775  1  0.35650000  0.06876000  0.43671000  1.0 -0.1175373662
C  C776  1  0.39350000  0.68124000  0.43671000  1.0 -0.1175373662
C  C777  1  0.89350000  0.56876000  0.31329000  1.0 -0.1175373662
C  C778  1  0.85650000  0.18124000  0.31329000  1.0 -0.1175373662
C  C779  1  0.85650000  0.56876000  0.43671000  1.0 -0.1175373662
C  C780  1  0.89350000  0.18124000  0.43671000  1.0 -0.1175373662
C  C781  1  0.89350000  0.06876000  0.81329000  1.0 -0.1175373662
C  C782  1  0.85650000  0.68124000  0.81329000  1.0 -0.1175373662
C  C783  1  0.85650000  0.06876000  0.93671000  1.0 -0.1175373662
C  C784  1  0.89350000  0.68124000  0.93671000  1.0 -0.1175373662
C  C785  1  0.60650000  0.43124000  0.18671000  1.0 -0.1175373662
C  C786  1  0.64350000  0.81876000  0.18671000  1.0 -0.1175373662
C  C787  1  0.64350000  0.43124000  0.06329000  1.0 -0.1175373662
C  C788  1  0.60650000  0.81876000  0.06329000  1.0 -0.1175373662
C  C789  1  0.60650000  0.93124000  0.68671000  1.0 -0.1175373662
C  C790  1  0.64350000  0.31876000  0.68671000  1.0 -0.1175373662
C  C791  1  0.64350000  0.93124000  0.56329000  1.0 -0.1175373662
C  C792  1  0.60650000  0.31876000  0.56329000  1.0 -0.1175373662
C  C793  1  0.10650000  0.43124000  0.68671000  1.0 -0.1175373662
C  C794  1  0.14350000  0.81876000  0.68671000  1.0 -0.1175373662
C  C795  1  0.14350000  0.43124000  0.56329000  1.0 -0.1175373662
C  C796  1  0.10650000  0.81876000  0.56329000  1.0 -0.1175373662
C  C797  1  0.10650000  0.93124000  0.18671000  1.0 -0.1175373662
C  C798  1  0.14350000  0.31876000  0.18671000  1.0 -0.1175373662
C  C799  1  0.14350000  0.93124000  0.06329000  1.0 -0.1175373662
C  C800  1  0.10650000  0.31876000  0.06329000  1.0 -0.1175373662
C  C801  1  0.44340000  0.58190000  0.83266000  1.0 -0.1018496274
C  C802  1  0.30660000  0.16810000  0.83266000  1.0 -0.1018496274
C  C803  1  0.30660000  0.58190000  0.91734000  1.0 -0.1018496274
C  C804  1  0.44340000  0.16810000  0.91734000  1.0 -0.1018496274
C  C805  1  0.44340000  0.08190000  0.33266000  1.0 -0.1018496274
C  C806  1  0.30660000  0.66810000  0.33266000  1.0 -0.1018496274
C  C807  1  0.30660000  0.08190000  0.41734000  1.0 -0.1018496274
C  C808  1  0.44340000  0.66810000  0.41734000  1.0 -0.1018496274
C  C809  1  0.94340000  0.58190000  0.33266000  1.0 -0.1018496274
C  C810  1  0.80660000  0.16810000  0.33266000  1.0 -0.1018496274
C  C811  1  0.80660000  0.58190000  0.41734000  1.0 -0.1018496274
C  C812  1  0.94340000  0.16810000  0.41734000  1.0 -0.1018496274
C  C813  1  0.94340000  0.08190000  0.83266000  1.0 -0.1018496274
C  C814  1  0.80660000  0.66810000  0.83266000  1.0 -0.1018496274
C  C815  1  0.80660000  0.08190000  0.91734000  1.0 -0.1018496274
C  C816  1  0.94340000  0.66810000  0.91734000  1.0 -0.1018496274
C  C817  1  0.55660000  0.41810000  0.16734000  1.0 -0.1018496274
C  C818  1  0.69340000  0.83190000  0.16734000  1.0 -0.1018496274
C  C819  1  0.69340000  0.41810000  0.08266000  1.0 -0.1018496274
C  C820  1  0.55660000  0.83190000  0.08266000  1.0 -0.1018496274
C  C821  1  0.55660000  0.91810000  0.66734000  1.0 -0.1018496274
C  C822  1  0.69340000  0.33190000  0.66734000  1.0 -0.1018496274
C  C823  1  0.69340000  0.91810000  0.58266000  1.0 -0.1018496274
C  C824  1  0.55660000  0.33190000  0.58266000  1.0 -0.1018496274
C  C825  1  0.05660000  0.41810000  0.66734000  1.0 -0.1018496274
C  C826  1  0.19340000  0.83190000  0.66734000  1.0 -0.1018496274
C  C827  1  0.19340000  0.41810000  0.58266000  1.0 -0.1018496274
C  C828  1  0.05660000  0.83190000  0.58266000  1.0 -0.1018496274
C  C829  1  0.05660000  0.91810000  0.16734000  1.0 -0.1018496274
C  C830  1  0.19340000  0.33190000  0.16734000  1.0 -0.1018496274
C  C831  1  0.19340000  0.91810000  0.08266000  1.0 -0.1018496274
C  C832  1  0.05660000  0.33190000  0.08266000  1.0 -0.1018496274
C  C833  1  0.48120000  0.55890000  0.84897000  1.0 -0.1408308726
C  C834  1  0.26880000  0.19110000  0.84897000  1.0 -0.1408308726
C  C835  1  0.26880000  0.55890000  0.90103000  1.0 -0.1408308726
C  C836  1  0.48120000  0.19110000  0.90103000  1.0 -0.1408308726
C  C837  1  0.48120000  0.05890000  0.34897000  1.0 -0.1408308726
C  C838  1  0.26880000  0.69110000  0.34897000  1.0 -0.1408308726
C  C839  1  0.26880000  0.05890000  0.40103000  1.0 -0.1408308726
C  C840  1  0.48120000  0.69110000  0.40103000  1.0 -0.1408308726
C  C841  1  0.98120000  0.55890000  0.34897000  1.0 -0.1408308726
C  C842  1  0.76880000  0.19110000  0.34897000  1.0 -0.1408308726
C  C843  1  0.76880000  0.55890000  0.40103000  1.0 -0.1408308726
C  C844  1  0.98120000  0.19110000  0.40103000  1.0 -0.1408308726
C  C845  1  0.98120000  0.05890000  0.84897000  1.0 -0.1408308726
C  C846  1  0.76880000  0.69110000  0.84897000  1.0 -0.1408308726
C  C847  1  0.76880000  0.05890000  0.90103000  1.0 -0.1408308726
C  C848  1  0.98120000  0.69110000  0.90103000  1.0 -0.1408308726
C  C849  1  0.51880000  0.44110000  0.15103000  1.0 -0.1408308726
C  C850  1  0.73120000  0.80890000  0.15103000  1.0 -0.1408308726
C  C851  1  0.73120000  0.44110000  0.09897000  1.0 -0.1408308726
C  C852  1  0.51880000  0.80890000  0.09897000  1.0 -0.1408308726
C  C853  1  0.51880000  0.94110000  0.65103000  1.0 -0.1408308726
C  C854  1  0.73120000  0.30890000  0.65103000  1.0 -0.1408308726
C  C855  1  0.73120000  0.94110000  0.59897000  1.0 -0.1408308726
C  C856  1  0.51880000  0.30890000  0.59897000  1.0 -0.1408308726
C  C857  1  0.01880000  0.44110000  0.65103000  1.0 -0.1408308726
C  C858  1  0.23120000  0.80890000  0.65103000  1.0 -0.1408308726
C  C859  1  0.23120000  0.44110000  0.59897000  1.0 -0.1408308726
C  C860  1  0.01880000  0.80890000  0.59897000  1.0 -0.1408308726
C  C861  1  0.01880000  0.94110000  0.15103000  1.0 -0.1408308726
C  C862  1  0.23120000  0.30890000  0.15103000  1.0 -0.1408308726
C  C863  1  0.23120000  0.94110000  0.09897000  1.0 -0.1408308726
C  C864  1  0.01880000  0.30890000  0.09897000  1.0 -0.1408308726
C  C865  1  0.33290000  0.51652000  0.78884000  1.0 0.5557915256
C  C866  1  0.41710000  0.23348000  0.78884000  1.0 0.5557915256
C  C867  1  0.41710000  0.51652000  0.96116000  1.0 0.5557915256
C  C868  1  0.33290000  0.23348000  0.96116000  1.0 0.5557915256
C  C869  1  0.33290000  0.01652000  0.28884000  1.0 0.5557915256
C  C870  1  0.41710000  0.73348000  0.28884000  1.0 0.5557915256
C  C871  1  0.41710000  0.01652000  0.46116000  1.0 0.5557915256
C  C872  1  0.33290000  0.73348000  0.46116000  1.0 0.5557915256
C  C873  1  0.83290000  0.51652000  0.28884000  1.0 0.5557915256
C  C874  1  0.91710000  0.23348000  0.28884000  1.0 0.5557915256
C  C875  1  0.91710000  0.51652000  0.46116000  1.0 0.5557915256
C  C876  1  0.83290000  0.23348000  0.46116000  1.0 0.5557915256
C  C877  1  0.83290000  0.01652000  0.78884000  1.0 0.5557915256
C  C878  1  0.91710000  0.73348000  0.78884000  1.0 0.5557915256
C  C879  1  0.91710000  0.01652000  0.96116000  1.0 0.5557915256
C  C880  1  0.83290000  0.73348000  0.96116000  1.0 0.5557915256
C  C881  1  0.66710000  0.48348000  0.21116000  1.0 0.5557915256
C  C882  1  0.58290000  0.76652000  0.21116000  1.0 0.5557915256
C  C883  1  0.58290000  0.48348000  0.03884000  1.0 0.5557915256
C  C884  1  0.66710000  0.76652000  0.03884000  1.0 0.5557915256
C  C885  1  0.66710000  0.98348000  0.71116000  1.0 0.5557915256
C  C886  1  0.58290000  0.26652000  0.71116000  1.0 0.5557915256
C  C887  1  0.58290000  0.98348000  0.53884000  1.0 0.5557915256
C  C888  1  0.66710000  0.26652000  0.53884000  1.0 0.5557915256
C  C889  1  0.16710000  0.48348000  0.71116000  1.0 0.5557915256
C  C890  1  0.08290000  0.76652000  0.71116000  1.0 0.5557915256
C  C891  1  0.08290000  0.48348000  0.53884000  1.0 0.5557915256
C  C892  1  0.16710000  0.76652000  0.53884000  1.0 0.5557915256
C  C893  1  0.16710000  0.98348000  0.21116000  1.0 0.5557915256
C  C894  1  0.08290000  0.26652000  0.21116000  1.0 0.5557915256
C  C895  1  0.08290000  0.98348000  0.03884000  1.0 0.5557915256
C  C896  1  0.16710000  0.26652000  0.03884000  1.0 0.5557915256
C  C289  1  0.64700000  0.39046000  0.92008000  0.5 0.0873998031
C  C290  1  0.10300000  0.35954000  0.92008000  0.5 0.0873998031
C  C291  1  0.10300000  0.39046000  0.82992000  0.5 0.0873998031
C  C292  1  0.64700000  0.35954000  0.82992000  0.5 0.0873998031
C  C293  1  0.64700000  0.89046000  0.42008000  0.5 0.0873998031
C  C294  1  0.10300000  0.85954000  0.42008000  0.5 0.0873998031
C  C295  1  0.10300000  0.89046000  0.32992000  0.5 0.0873998031
C  C296  1  0.64700000  0.85954000  0.32992000  0.5 0.0873998031
C  C297  1  0.14700000  0.39046000  0.42008000  0.5 0.0873998031
C  C298  1  0.60300000  0.35954000  0.42008000  0.5 0.0873998031
C  C299  1  0.60300000  0.39046000  0.32992000  0.5 0.0873998031
C  C300  1  0.14700000  0.35954000  0.32992000  0.5 0.0873998031
C  C301  1  0.14700000  0.89046000  0.92008000  0.5 0.0873998031
C  C302  1  0.60300000  0.85954000  0.92008000  0.5 0.0873998031
C  C303  1  0.60300000  0.89046000  0.82992000  0.5 0.0873998031
C  C304  1  0.14700000  0.85954000  0.82992000  0.5 0.0873998031
C  C305  1  0.35300000  0.60954000  0.07992000  0.5 0.0873998031
C  C306  1  0.89700000  0.64046000  0.07992000  0.5 0.0873998031
C  C307  1  0.89700000  0.60954000  0.17008000  0.5 0.0873998031
C  C308  1  0.35300000  0.64046000  0.17008000  0.5 0.0873998031
C  C309  1  0.35300000  0.10954000  0.57992000  0.5 0.0873998031
C  C310  1  0.89700000  0.14046000  0.57992000  0.5 0.0873998031
C  C311  1  0.89700000  0.10954000  0.67008000  0.5 0.0873998031
C  C312  1  0.35300000  0.14046000  0.67008000  0.5 0.0873998031
C  C313  1  0.85300000  0.60954000  0.57992000  0.5 0.0873998031
C  C314  1  0.39700000  0.64046000  0.57992000  0.5 0.0873998031
C  C315  1  0.39700000  0.60954000  0.67008000  0.5 0.0873998031
C  C316  1  0.85300000  0.64046000  0.67008000  0.5 0.0873998031
C  C317  1  0.85300000  0.10954000  0.07992000  0.5 0.0873998031
C  C318  1  0.39700000  0.14046000  0.07992000  0.5 0.0873998031
C  C319  1  0.39700000  0.10954000  0.17008000  0.5 0.0873998031
C  C320  1  0.85300000  0.14046000  0.17008000  0.5 0.0873998031
C  C321  1  0.73840000  0.41310000  0.91180000  0.5 -0.0801025899
C  C322  1  0.01160000  0.33690000  0.91180000  0.5 -0.0801025899
C  C323  1  0.01160000  0.41310000  0.83820000  0.5 -0.0801025899
C  C324  1  0.73840000  0.33690000  0.83820000  0.5 -0.0801025899
C  C325  1  0.73840000  0.91310000  0.41180000  0.5 -0.0801025899
C  C326  1  0.01160000  0.83690000  0.41180000  0.5 -0.0801025899
C  C327  1  0.01160000  0.91310000  0.33820000  0.5 -0.0801025899
C  C328  1  0.73840000  0.83690000  0.33820000  0.5 -0.0801025899
C  C329  1  0.23840000  0.41310000  0.41180000  0.5 -0.0801025899
C  C330  1  0.51160000  0.33690000  0.41180000  0.5 -0.0801025899
C  C331  1  0.51160000  0.41310000  0.33820000  0.5 -0.0801025899
C  C332  1  0.23840000  0.33690000  0.33820000  0.5 -0.0801025899
C  C333  1  0.23840000  0.91310000  0.91180000  0.5 -0.0801025899
C  C334  1  0.51160000  0.83690000  0.91180000  0.5 -0.0801025899
C  C335  1  0.51160000  0.91310000  0.83820000  0.5 -0.0801025899
C  C336  1  0.23840000  0.83690000  0.83820000  0.5 -0.0801025899
C  C337  1  0.26160000  0.58690000  0.08820000  0.5 -0.0801025899
C  C338  1  0.98840000  0.66310000  0.08820000  0.5 -0.0801025899
C  C339  1  0.98840000  0.58690000  0.16180000  0.5 -0.0801025899
C  C340  1  0.26160000  0.66310000  0.16180000  0.5 -0.0801025899
C  C341  1  0.26160000  0.08690000  0.58820000  0.5 -0.0801025899
C  C342  1  0.98840000  0.16310000  0.58820000  0.5 -0.0801025899
C  C343  1  0.98840000  0.08690000  0.66180000  0.5 -0.0801025899
C  C344  1  0.26160000  0.16310000  0.66180000  0.5 -0.0801025899
C  C345  1  0.76160000  0.58690000  0.58820000  0.5 -0.0801025899
C  C346  1  0.48840000  0.66310000  0.58820000  0.5 -0.0801025899
C  C347  1  0.48840000  0.58690000  0.66180000  0.5 -0.0801025899
C  C348  1  0.76160000  0.66310000  0.66180000  0.5 -0.0801025899
C  C349  1  0.76160000  0.08690000  0.08820000  0.5 -0.0801025899
C  C350  1  0.48840000  0.16310000  0.08820000  0.5 -0.0801025899
C  C351  1  0.48840000  0.08690000  0.16180000  0.5 -0.0801025899
C  C352  1  0.76160000  0.16310000  0.16180000  0.5 -0.0801025899
C  C353  1  0.70490000  0.43940000  0.89740000  0.5 -0.0682707997
C  C354  1  0.04510000  0.31060000  0.89740000  0.5 -0.0682707997
C  C355  1  0.04510000  0.43940000  0.85260000  0.5 -0.0682707997
C  C356  1  0.70490000  0.31060000  0.85260000  0.5 -0.0682707997
C  C357  1  0.70490000  0.93940000  0.39740000  0.5 -0.0682707997
C  C358  1  0.04510000  0.81060000  0.39740000  0.5 -0.0682707997
C  C359  1  0.04510000  0.93940000  0.35260000  0.5 -0.0682707997
C  C360  1  0.70490000  0.81060000  0.35260000  0.5 -0.0682707997
C  C361  1  0.20490000  0.43940000  0.39740000  0.5 -0.0682707997
C  C362  1  0.54510000  0.31060000  0.39740000  0.5 -0.0682707997
C  C363  1  0.54510000  0.43940000  0.35260000  0.5 -0.0682707997
C  C364  1  0.20490000  0.31060000  0.35260000  0.5 -0.0682707997
C  C365  1  0.20490000  0.93940000  0.89740000  0.5 -0.0682707997
C  C366  1  0.54510000  0.81060000  0.89740000  0.5 -0.0682707997
C  C367  1  0.54510000  0.93940000  0.85260000  0.5 -0.0682707997
C  C368  1  0.20490000  0.81060000  0.85260000  0.5 -0.0682707997
C  C369  1  0.29510000  0.56060000  0.10260000  0.5 -0.0682707997
C  C370  1  0.95490000  0.68940000  0.10260000  0.5 -0.0682707997
C  C371  1  0.95490000  0.56060000  0.14740000  0.5 -0.0682707997
C  C372  1  0.29510000  0.68940000  0.14740000  0.5 -0.0682707997
C  C373  1  0.29510000  0.06060000  0.60260000  0.5 -0.0682707997
C  C374  1  0.95490000  0.18940000  0.60260000  0.5 -0.0682707997
C  C375  1  0.95490000  0.06060000  0.64740000  0.5 -0.0682707997
C  C376  1  0.29510000  0.18940000  0.64740000  0.5 -0.0682707997
C  C377  1  0.79510000  0.56060000  0.60260000  0.5 -0.0682707997
C  C378  1  0.45490000  0.68940000  0.60260000  0.5 -0.0682707997
C  C379  1  0.45490000  0.56060000  0.64740000  0.5 -0.0682707997
C  C380  1  0.79510000  0.68940000  0.64740000  0.5 -0.0682707997
C  C381  1  0.79510000  0.06060000  0.10260000  0.5 -0.0682707997
C  C382  1  0.45490000  0.18940000  0.10260000  0.5 -0.0682707997
C  C383  1  0.45490000  0.06060000  0.14740000  0.5 -0.0682707997
C  C384  1  0.79510000  0.18940000  0.14740000  0.5 -0.0682707997
C  C385  1  0.58460000  0.44700000  0.89114000  0.5 0.0798261736
C  C386  1  0.16540000  0.30300000  0.89114000  0.5 0.0798261736
C  C387  1  0.16540000  0.44700000  0.85886000  0.5 0.0798261736
C  C388  1  0.58460000  0.30300000  0.85886000  0.5 0.0798261736
C  C389  1  0.58460000  0.94700000  0.39114000  0.5 0.0798261736
C  C390  1  0.16540000  0.80300000  0.39114000  0.5 0.0798261736
C  C391  1  0.16540000  0.94700000  0.35886000  0.5 0.0798261736
C  C392  1  0.58460000  0.80300000  0.35886000  0.5 0.0798261736
C  C393  1  0.08460000  0.44700000  0.39114000  0.5 0.0798261736
C  C394  1  0.66540000  0.30300000  0.39114000  0.5 0.0798261736
C  C395  1  0.66540000  0.44700000  0.35886000  0.5 0.0798261736
C  C396  1  0.08460000  0.30300000  0.35886000  0.5 0.0798261736
C  C397  1  0.08460000  0.94700000  0.89114000  0.5 0.0798261736
C  C398  1  0.66540000  0.80300000  0.89114000  0.5 0.0798261736
C  C399  1  0.66540000  0.94700000  0.85886000  0.5 0.0798261736
C  C400  1  0.08460000  0.80300000  0.85886000  0.5 0.0798261736
C  C401  1  0.41540000  0.55300000  0.10886000  0.5 0.0798261736
C  C402  1  0.83460000  0.69700000  0.10886000  0.5 0.0798261736
C  C403  1  0.83460000  0.55300000  0.14114000  0.5 0.0798261736
C  C404  1  0.41540000  0.69700000  0.14114000  0.5 0.0798261736
C  C405  1  0.41540000  0.05300000  0.60886000  0.5 0.0798261736
C  C406  1  0.83460000  0.19700000  0.60886000  0.5 0.0798261736
C  C407  1  0.83460000  0.05300000  0.64114000  0.5 0.0798261736
C  C408  1  0.41540000  0.19700000  0.64114000  0.5 0.0798261736
C  C409  1  0.91540000  0.55300000  0.60886000  0.5 0.0798261736
C  C410  1  0.33460000  0.69700000  0.60886000  0.5 0.0798261736
C  C411  1  0.33460000  0.55300000  0.64114000  0.5 0.0798261736
C  C412  1  0.91540000  0.69700000  0.64114000  0.5 0.0798261736
C  C413  1  0.91540000  0.05300000  0.10886000  0.5 0.0798261736
C  C414  1  0.33460000  0.19700000  0.10886000  0.5 0.0798261736
C  C415  1  0.33460000  0.05300000  0.14114000  0.5 0.0798261736
C  C416  1  0.91540000  0.19700000  0.14114000  0.5 0.0798261736
C  C417  1  0.49320000  0.42490000  0.90000000  0.5 -0.0801025899
C  C418  1  0.25680000  0.32510000  0.90000000  0.5 -0.0801025899
C  C419  1  0.25680000  0.42490000  0.85000000  0.5 -0.0801025899
C  C420  1  0.49320000  0.32510000  0.85000000  0.5 -0.0801025899
C  C421  1  0.49320000  0.92490000  0.40000000  0.5 -0.0801025899
C  C422  1  0.25680000  0.82510000  0.40000000  0.5 -0.0801025899
C  C423  1  0.25680000  0.92490000  0.35000000  0.5 -0.0801025899
C  C424  1  0.49320000  0.82510000  0.35000000  0.5 -0.0801025899
C  C425  1  0.99320000  0.42490000  0.40000000  0.5 -0.0801025899
C  C426  1  0.75680000  0.32510000  0.40000000  0.5 -0.0801025899
C  C427  1  0.75680000  0.42490000  0.35000000  0.5 -0.0801025899
C  C428  1  0.99320000  0.32510000  0.35000000  0.5 -0.0801025899
C  C429  1  0.99320000  0.92490000  0.90000000  0.5 -0.0801025899
C  C430  1  0.75680000  0.82510000  0.90000000  0.5 -0.0801025899
C  C431  1  0.75680000  0.92490000  0.85000000  0.5 -0.0801025899
C  C432  1  0.99320000  0.82510000  0.85000000  0.5 -0.0801025899
C  C433  1  0.50680000  0.57510000  0.10000000  0.5 -0.0801025899
C  C434  1  0.74320000  0.67490000  0.10000000  0.5 -0.0801025899
C  C435  1  0.74320000  0.57510000  0.15000000  0.5 -0.0801025899
C  C436  1  0.50680000  0.67490000  0.15000000  0.5 -0.0801025899
C  C437  1  0.50680000  0.07510000  0.60000000  0.5 -0.0801025899
C  C438  1  0.74320000  0.17490000  0.60000000  0.5 -0.0801025899
C  C439  1  0.74320000  0.07510000  0.65000000  0.5 -0.0801025899
C  C440  1  0.50680000  0.17490000  0.65000000  0.5 -0.0801025899
C  C441  1  0.00680000  0.57510000  0.60000000  0.5 -0.0801025899
C  C442  1  0.24320000  0.67490000  0.60000000  0.5 -0.0801025899
C  C443  1  0.24320000  0.57510000  0.65000000  0.5 -0.0801025899
C  C444  1  0.00680000  0.67490000  0.65000000  0.5 -0.0801025899
C  C445  1  0.00680000  0.07510000  0.10000000  0.5 -0.0801025899
C  C446  1  0.24320000  0.17490000  0.10000000  0.5 -0.0801025899
C  C447  1  0.24320000  0.07510000  0.15000000  0.5 -0.0801025899
C  C448  1  0.00680000  0.17490000  0.15000000  0.5 -0.0801025899
C  C449  1  0.52330000  0.39600000  0.91490000  0.5 -0.092409566
C  C450  1  0.22670000  0.35400000  0.91490000  0.5 -0.092409566
C  C451  1  0.22670000  0.39600000  0.83510000  0.5 -0.092409566
C  C452  1  0.52330000  0.35400000  0.83510000  0.5 -0.092409566
C  C453  1  0.52330000  0.89600000  0.41490000  0.5 -0.092409566
C  C454  1  0.22670000  0.85400000  0.41490000  0.5 -0.092409566
C  C455  1  0.22670000  0.89600000  0.33510000  0.5 -0.092409566
C  C456  1  0.52330000  0.85400000  0.33510000  0.5 -0.092409566
C  C457  1  0.02330000  0.39600000  0.41490000  0.5 -0.092409566
C  C458  1  0.72670000  0.35400000  0.41490000  0.5 -0.092409566
C  C459  1  0.72670000  0.39600000  0.33510000  0.5 -0.092409566
C  C460  1  0.02330000  0.35400000  0.33510000  0.5 -0.092409566
C  C461  1  0.02330000  0.89600000  0.91490000  0.5 -0.092409566
C  C462  1  0.72670000  0.85400000  0.91490000  0.5 -0.092409566
C  C463  1  0.72670000  0.89600000  0.83510000  0.5 -0.092409566
C  C464  1  0.02330000  0.85400000  0.83510000  0.5 -0.092409566
C  C465  1  0.47670000  0.60400000  0.08510000  0.5 -0.092409566
C  C466  1  0.77330000  0.64600000  0.08510000  0.5 -0.092409566
C  C467  1  0.77330000  0.60400000  0.16490000  0.5 -0.092409566
C  C468  1  0.47670000  0.64600000  0.16490000  0.5 -0.092409566
C  C469  1  0.47670000  0.10400000  0.58510000  0.5 -0.092409566
C  C470  1  0.77330000  0.14600000  0.58510000  0.5 -0.092409566
C  C471  1  0.77330000  0.10400000  0.66490000  0.5 -0.092409566
C  C472  1  0.47670000  0.14600000  0.66490000  0.5 -0.092409566
C  C473  1  0.97670000  0.60400000  0.58510000  0.5 -0.092409566
C  C474  1  0.27330000  0.64600000  0.58510000  0.5 -0.092409566
C  C475  1  0.27330000  0.60400000  0.66490000  0.5 -0.092409566
C  C476  1  0.97670000  0.64600000  0.66490000  0.5 -0.092409566
C  C477  1  0.97670000  0.10400000  0.08510000  0.5 -0.092409566
C  C478  1  0.27330000  0.14600000  0.08510000  0.5 -0.092409566
C  C479  1  0.27330000  0.10400000  0.16490000  0.5 -0.092409566
C  C480  1  0.97670000  0.14600000  0.16490000  0.5 -0.092409566
C  C481  1  0.62850000  0.42640000  0.92750000  0.5 -0.0609105848
C  C482  1  0.12150000  0.32360000  0.92750000  0.5 -0.0609105848
C  C483  1  0.12150000  0.42640000  0.82250000  0.5 -0.0609105848
C  C484  1  0.62850000  0.32360000  0.82250000  0.5 -0.0609105848
C  C485  1  0.62850000  0.92640000  0.42750000  0.5 -0.0609105848
C  C486  1  0.12150000  0.82360000  0.42750000  0.5 -0.0609105848
C  C487  1  0.12150000  0.92640000  0.32250000  0.5 -0.0609105848
C  C488  1  0.62850000  0.82360000  0.32250000  0.5 -0.0609105848
C  C489  1  0.12850000  0.42640000  0.42750000  0.5 -0.0609105848
C  C490  1  0.62150000  0.32360000  0.42750000  0.5 -0.0609105848
C  C491  1  0.62150000  0.42640000  0.32250000  0.5 -0.0609105848
C  C492  1  0.12850000  0.32360000  0.32250000  0.5 -0.0609105848
C  C493  1  0.12850000  0.92640000  0.92750000  0.5 -0.0609105848
C  C494  1  0.62150000  0.82360000  0.92750000  0.5 -0.0609105848
C  C495  1  0.62150000  0.92640000  0.82250000  0.5 -0.0609105848
C  C496  1  0.12850000  0.82360000  0.82250000  0.5 -0.0609105848
C  C497  1  0.37150000  0.57360000  0.07250000  0.5 -0.0609105848
C  C498  1  0.87850000  0.67640000  0.07250000  0.5 -0.0609105848
C  C499  1  0.87850000  0.57360000  0.17750000  0.5 -0.0609105848
C  C500  1  0.37150000  0.67640000  0.17750000  0.5 -0.0609105848
C  C501  1  0.37150000  0.07360000  0.57250000  0.5 -0.0609105848
C  C502  1  0.87850000  0.17640000  0.57250000  0.5 -0.0609105848
C  C503  1  0.87850000  0.07360000  0.67750000  0.5 -0.0609105848
C  C504  1  0.37150000  0.17640000  0.67750000  0.5 -0.0609105848
C  C505  1  0.87150000  0.57360000  0.57250000  0.5 -0.0609105848
C  C506  1  0.37850000  0.67640000  0.57250000  0.5 -0.0609105848
C  C507  1  0.37850000  0.57360000  0.67750000  0.5 -0.0609105848
C  C508  1  0.87150000  0.67640000  0.67750000  0.5 -0.0609105848
C  C509  1  0.87150000  0.07360000  0.07250000  0.5 -0.0609105848
C  C510  1  0.37850000  0.17640000  0.07250000  0.5 -0.0609105848
C  C511  1  0.37850000  0.07360000  0.17750000  0.5 -0.0609105848
C  C512  1  0.87150000  0.17640000  0.17750000  0.5 -0.0609105848
C  C513  1  0.59860000  0.45400000  0.91305000  0.5 -0.0609105848
C  C514  1  0.15140000  0.29600000  0.91305000  0.5 -0.0609105848
C  C515  1  0.15140000  0.45400000  0.83695000  0.5 -0.0609105848
C  C516  1  0.59860000  0.29600000  0.83695000  0.5 -0.0609105848
C  C517  1  0.59860000  0.95400000  0.41305000  0.5 -0.0609105848
C  C518  1  0.15140000  0.79600000  0.41305000  0.5 -0.0609105848
C  C519  1  0.15140000  0.95400000  0.33695000  0.5 -0.0609105848
C  C520  1  0.59860000  0.79600000  0.33695000  0.5 -0.0609105848
C  C521  1  0.09860000  0.45400000  0.41305000  0.5 -0.0609105848
C  C522  1  0.65140000  0.29600000  0.41305000  0.5 -0.0609105848
C  C523  1  0.65140000  0.45400000  0.33695000  0.5 -0.0609105848
C  C524  1  0.09860000  0.29600000  0.33695000  0.5 -0.0609105848
C  C525  1  0.09860000  0.95400000  0.91305000  0.5 -0.0609105848
C  C526  1  0.65140000  0.79600000  0.91305000  0.5 -0.0609105848
C  C527  1  0.65140000  0.95400000  0.83695000  0.5 -0.0609105848
C  C528  1  0.09860000  0.79600000  0.83695000  0.5 -0.0609105848
C  C529  1  0.40140000  0.54600000  0.08695000  0.5 -0.0609105848
C  C530  1  0.84860000  0.70400000  0.08695000  0.5 -0.0609105848
C  C531  1  0.84860000  0.54600000  0.16305000  0.5 -0.0609105848
C  C532  1  0.40140000  0.70400000  0.16305000  0.5 -0.0609105848
C  C533  1  0.40140000  0.04600000  0.58695000  0.5 -0.0609105848
C  C534  1  0.84860000  0.20400000  0.58695000  0.5 -0.0609105848
C  C535  1  0.84860000  0.04600000  0.66305000  0.5 -0.0609105848
C  C536  1  0.40140000  0.20400000  0.66305000  0.5 -0.0609105848
C  C537  1  0.90140000  0.54600000  0.58695000  0.5 -0.0609105848
C  C538  1  0.34860000  0.70400000  0.58695000  0.5 -0.0609105848
C  C539  1  0.34860000  0.54600000  0.66305000  0.5 -0.0609105848
C  C540  1  0.90140000  0.70400000  0.66305000  0.5 -0.0609105848
C  C541  1  0.90140000  0.04600000  0.08695000  0.5 -0.0609105848
C  C542  1  0.34860000  0.20400000  0.08695000  0.5 -0.0609105848
C  C543  1  0.34860000  0.04600000  0.16305000  0.5 -0.0609105848
C  C544  1  0.90140000  0.20400000  0.16305000  0.5 -0.0609105848
C  C545  1  0.58700000  0.40950000  0.88480000  0.5 -0.0682707997
C  C546  1  0.16300000  0.34050000  0.88480000  0.5 -0.0682707997
C  C547  1  0.16300000  0.40950000  0.86520000  0.5 -0.0682707997
C  C548  1  0.58700000  0.34050000  0.86520000  0.5 -0.0682707997
C  C549  1  0.58700000  0.90950000  0.38480000  0.5 -0.0682707997
C  C550  1  0.16300000  0.84050000  0.38480000  0.5 -0.0682707997
C  C551  1  0.16300000  0.90950000  0.36520000  0.5 -0.0682707997
C  C552  1  0.58700000  0.84050000  0.36520000  0.5 -0.0682707997
C  C553  1  0.08700000  0.40950000  0.38480000  0.5 -0.0682707997
C  C554  1  0.66300000  0.34050000  0.38480000  0.5 -0.0682707997
C  C555  1  0.66300000  0.40950000  0.36520000  0.5 -0.0682707997
C  C556  1  0.08700000  0.34050000  0.36520000  0.5 -0.0682707997
C  C557  1  0.08700000  0.90950000  0.88480000  0.5 -0.0682707997
C  C558  1  0.66300000  0.84050000  0.88480000  0.5 -0.0682707997
C  C559  1  0.66300000  0.90950000  0.86520000  0.5 -0.0682707997
C  C560  1  0.08700000  0.84050000  0.86520000  0.5 -0.0682707997
C  C561  1  0.41300000  0.59050000  0.11520000  0.5 -0.0682707997
C  C562  1  0.83700000  0.65950000  0.11520000  0.5 -0.0682707997
C  C563  1  0.83700000  0.59050000  0.13480000  0.5 -0.0682707997
C  C564  1  0.41300000  0.65950000  0.13480000  0.5 -0.0682707997
C  C565  1  0.41300000  0.09050000  0.61520000  0.5 -0.0682707997
C  C566  1  0.83700000  0.15950000  0.61520000  0.5 -0.0682707997
C  C567  1  0.83700000  0.09050000  0.63480000  0.5 -0.0682707997
C  C568  1  0.41300000  0.15950000  0.63480000  0.5 -0.0682707997
C  C569  1  0.91300000  0.59050000  0.61520000  0.5 -0.0682707997
C  C570  1  0.33700000  0.65950000  0.61520000  0.5 -0.0682707997
C  C571  1  0.33700000  0.59050000  0.63480000  0.5 -0.0682707997
C  C572  1  0.91300000  0.65950000  0.63480000  0.5 -0.0682707997
C  C573  1  0.91300000  0.09050000  0.11520000  0.5 -0.0682707997
C  C574  1  0.33700000  0.15950000  0.11520000  0.5 -0.0682707997
C  C575  1  0.33700000  0.09050000  0.13480000  0.5 -0.0682707997
C  C576  1  0.91300000  0.15950000  0.13480000  0.5 -0.0682707997
C  C577  1  0.61500000  0.38350000  0.89890000  0.5 -0.0801025899
C  C578  1  0.13500000  0.36650000  0.89890000  0.5 -0.0801025899
C  C579  1  0.13500000  0.38350000  0.85110000  0.5 -0.0801025899
C  C580  1  0.61500000  0.36650000  0.85110000  0.5 -0.0801025899
C  C581  1  0.61500000  0.88350000  0.39890000  0.5 -0.0801025899
C  C582  1  0.13500000  0.86650000  0.39890000  0.5 -0.0801025899
C  C583  1  0.13500000  0.88350000  0.35110000  0.5 -0.0801025899
C  C584  1  0.61500000  0.86650000  0.35110000  0.5 -0.0801025899
C  C585  1  0.11500000  0.38350000  0.39890000  0.5 -0.0801025899
C  C586  1  0.63500000  0.36650000  0.39890000  0.5 -0.0801025899
C  C587  1  0.63500000  0.38350000  0.35110000  0.5 -0.0801025899
C  C588  1  0.11500000  0.36650000  0.35110000  0.5 -0.0801025899
C  C589  1  0.11500000  0.88350000  0.89890000  0.5 -0.0801025899
C  C590  1  0.63500000  0.86650000  0.89890000  0.5 -0.0801025899
C  C591  1  0.63500000  0.88350000  0.85110000  0.5 -0.0801025899
C  C592  1  0.11500000  0.86650000  0.85110000  0.5 -0.0801025899
C  C593  1  0.38500000  0.61650000  0.10110000  0.5 -0.0801025899
C  C594  1  0.86500000  0.63350000  0.10110000  0.5 -0.0801025899
C  C595  1  0.86500000  0.61650000  0.14890000  0.5 -0.0801025899
C  C596  1  0.38500000  0.63350000  0.14890000  0.5 -0.0801025899
C  C597  1  0.38500000  0.11650000  0.60110000  0.5 -0.0801025899
C  C598  1  0.86500000  0.13350000  0.60110000  0.5 -0.0801025899
C  C599  1  0.86500000  0.11650000  0.64890000  0.5 -0.0801025899
C  C600  1  0.38500000  0.13350000  0.64890000  0.5 -0.0801025899
C  C601  1  0.88500000  0.61650000  0.60110000  0.5 -0.0801025899
C  C602  1  0.36500000  0.63350000  0.60110000  0.5 -0.0801025899
C  C603  1  0.36500000  0.61650000  0.64890000  0.5 -0.0801025899
C  C604  1  0.88500000  0.63350000  0.64890000  0.5 -0.0801025899
C  C605  1  0.88500000  0.11650000  0.10110000  0.5 -0.0801025899
C  C606  1  0.36500000  0.13350000  0.10110000  0.5 -0.0801025899
C  C607  1  0.36500000  0.11650000  0.14890000  0.5 -0.0801025899
C  C608  1  0.88500000  0.13350000  0.14890000  0.5 -0.0801025899
C  C897  1  0.08700000  0.14990000  0.02700000  0.5 -0.1084819134
C  C898  1  0.66300000  0.60010000  0.02700000  0.5 -0.1084819134
C  C899  1  0.66300000  0.14990000  0.72300000  0.5 -0.1084819134
C  C900  1  0.08700000  0.60010000  0.72300000  0.5 -0.1084819134
C  C901  1  0.08700000  0.64990000  0.52700000  0.5 -0.1084819134
C  C902  1  0.66300000  0.10010000  0.52700000  0.5 -0.1084819134
C  C903  1  0.66300000  0.64990000  0.22300000  0.5 -0.1084819134
C  C904  1  0.08700000  0.10010000  0.22300000  0.5 -0.1084819134
C  C905  1  0.58700000  0.14990000  0.52700000  0.5 -0.1084819134
C  C906  1  0.16300000  0.60010000  0.52700000  0.5 -0.1084819134
C  C907  1  0.16300000  0.14990000  0.22300000  0.5 -0.1084819134
C  C908  1  0.58700000  0.60010000  0.22300000  0.5 -0.1084819134
C  C909  1  0.58700000  0.64990000  0.02700000  0.5 -0.1084819134
C  C910  1  0.16300000  0.10010000  0.02700000  0.5 -0.1084819134
C  C911  1  0.16300000  0.64990000  0.72300000  0.5 -0.1084819134
C  C912  1  0.58700000  0.10010000  0.72300000  0.5 -0.1084819134
C  C913  1  0.91300000  0.85010000  0.97300000  0.5 -0.1084819134
C  C914  1  0.33700000  0.39990000  0.97300000  0.5 -0.1084819134
C  C915  1  0.33700000  0.85010000  0.27700000  0.5 -0.1084819134
C  C916  1  0.91300000  0.39990000  0.27700000  0.5 -0.1084819134
C  C917  1  0.91300000  0.35010000  0.47300000  0.5 -0.1084819134
C  C918  1  0.33700000  0.89990000  0.47300000  0.5 -0.1084819134
C  C919  1  0.33700000  0.35010000  0.77700000  0.5 -0.1084819134
C  C920  1  0.91300000  0.89990000  0.77700000  0.5 -0.1084819134
C  C921  1  0.41300000  0.85010000  0.47300000  0.5 -0.1084819134
C  C922  1  0.83700000  0.39990000  0.47300000  0.5 -0.1084819134
C  C923  1  0.83700000  0.85010000  0.77700000  0.5 -0.1084819134
C  C924  1  0.41300000  0.39990000  0.77700000  0.5 -0.1084819134
C  C925  1  0.41300000  0.35010000  0.97300000  0.5 -0.1084819134
C  C926  1  0.83700000  0.89990000  0.97300000  0.5 -0.1084819134
C  C927  1  0.83700000  0.35010000  0.27700000  0.5 -0.1084819134
C  C928  1  0.41300000  0.89990000  0.27700000  0.5 -0.1084819134
C  C929  1  0.02200000  0.11220000  0.02360000  0.5 -0.0538227386
C  C930  1  0.72800000  0.63780000  0.02360000  0.5 -0.0538227386
C  C931  1  0.72800000  0.11220000  0.72640000  0.5 -0.0538227386
C  C932  1  0.02200000  0.63780000  0.72640000  0.5 -0.0538227386
C  C933  1  0.02200000  0.61220000  0.52360000  0.5 -0.0538227386
C  C934  1  0.72800000  0.13780000  0.52360000  0.5 -0.0538227386
C  C935  1  0.72800000  0.61220000  0.22640000  0.5 -0.0538227386
C  C936  1  0.02200000  0.13780000  0.22640000  0.5 -0.0538227386
C  C937  1  0.52200000  0.11220000  0.52360000  0.5 -0.0538227386
C  C938  1  0.22800000  0.63780000  0.52360000  0.5 -0.0538227386
C  C939  1  0.22800000  0.11220000  0.22640000  0.5 -0.0538227386
C  C940  1  0.52200000  0.63780000  0.22640000  0.5 -0.0538227386
C  C941  1  0.52200000  0.61220000  0.02360000  0.5 -0.0538227386
C  C942  1  0.22800000  0.13780000  0.02360000  0.5 -0.0538227386
C  C943  1  0.22800000  0.61220000  0.72640000  0.5 -0.0538227386
C  C944  1  0.52200000  0.13780000  0.72640000  0.5 -0.0538227386
C  C945  1  0.97800000  0.88780000  0.97640000  0.5 -0.0538227386
C  C946  1  0.27200000  0.36220000  0.97640000  0.5 -0.0538227386
C  C947  1  0.27200000  0.88780000  0.27360000  0.5 -0.0538227386
C  C948  1  0.97800000  0.36220000  0.27360000  0.5 -0.0538227386
C  C949  1  0.97800000  0.38780000  0.47640000  0.5 -0.0538227386
C  C950  1  0.27200000  0.86220000  0.47640000  0.5 -0.0538227386
C  C951  1  0.27200000  0.38780000  0.77360000  0.5 -0.0538227386
C  C952  1  0.97800000  0.86220000  0.77360000  0.5 -0.0538227386
C  C953  1  0.47800000  0.88780000  0.47640000  0.5 -0.0538227386
C  C954  1  0.77200000  0.36220000  0.47640000  0.5 -0.0538227386
C  C955  1  0.77200000  0.88780000  0.77360000  0.5 -0.0538227386
C  C956  1  0.47800000  0.36220000  0.77360000  0.5 -0.0538227386
C  C957  1  0.47800000  0.38780000  0.97640000  0.5 -0.0538227386
C  C958  1  0.77200000  0.86220000  0.97640000  0.5 -0.0538227386
C  C959  1  0.77200000  0.38780000  0.27360000  0.5 -0.0538227386
C  C960  1  0.47800000  0.86220000  0.27360000  0.5 -0.0538227386
C  C961  1  0.26280000  0.13540000  0.00680000  0.5 -0.1018496274
C  C962  1  0.48720000  0.61460000  0.00680000  0.5 -0.1018496274
C  C963  1  0.48720000  0.13540000  0.74320000  0.5 -0.1018496274
C  C964  1  0.26280000  0.61460000  0.74320000  0.5 -0.1018496274
C  C965  1  0.26280000  0.63540000  0.50680000  0.5 -0.1018496274
C  C966  1  0.48720000  0.11460000  0.50680000  0.5 -0.1018496274
C  C967  1  0.48720000  0.63540000  0.24320000  0.5 -0.1018496274
C  C968  1  0.26280000  0.11460000  0.24320000  0.5 -0.1018496274
C  C969  1  0.76280000  0.13540000  0.50680000  0.5 -0.1018496274
C  C970  1  0.98720000  0.61460000  0.50680000  0.5 -0.1018496274
C  C971  1  0.98720000  0.13540000  0.24320000  0.5 -0.1018496274
C  C972  1  0.76280000  0.61460000  0.24320000  0.5 -0.1018496274
C  C973  1  0.76280000  0.63540000  0.00680000  0.5 -0.1018496274
C  C974  1  0.98720000  0.11460000  0.00680000  0.5 -0.1018496274
C  C975  1  0.98720000  0.63540000  0.74320000  0.5 -0.1018496274
C  C976  1  0.76280000  0.11460000  0.74320000  0.5 -0.1018496274
C  C977  1  0.73720000  0.86460000  0.99320000  0.5 -0.1018496274
C  C978  1  0.51280000  0.38540000  0.99320000  0.5 -0.1018496274
C  C979  1  0.51280000  0.86460000  0.25680000  0.5 -0.1018496274
C  C980  1  0.73720000  0.38540000  0.25680000  0.5 -0.1018496274
C  C981  1  0.73720000  0.36460000  0.49320000  0.5 -0.1018496274
C  C982  1  0.51280000  0.88540000  0.49320000  0.5 -0.1018496274
C  C983  1  0.51280000  0.36460000  0.75680000  0.5 -0.1018496274
C  C984  1  0.73720000  0.88540000  0.75680000  0.5 -0.1018496274
C  C985  1  0.23720000  0.86460000  0.49320000  0.5 -0.1018496274
C  C986  1  0.01280000  0.38540000  0.49320000  0.5 -0.1018496274
C  C987  1  0.01280000  0.86460000  0.75680000  0.5 -0.1018496274
C  C988  1  0.23720000  0.38540000  0.75680000  0.5 -0.1018496274
C  C989  1  0.23720000  0.36460000  0.99320000  0.5 -0.1018496274
C  C990  1  0.01280000  0.88540000  0.99320000  0.5 -0.1018496274
C  C991  1  0.01280000  0.36460000  0.25680000  0.5 -0.1018496274
C  C992  1  0.23720000  0.88540000  0.25680000  0.5 -0.1018496274
C  C993  1  0.21690000  0.09450000  0.01270000  0.5 -0.0801025899
C  C994  1  0.53310000  0.65550000  0.01270000  0.5 -0.0801025899
C  C995  1  0.53310000  0.09450000  0.73730000  0.5 -0.0801025899
C  C996  1  0.21690000  0.65550000  0.73730000  0.5 -0.0801025899
C  C997  1  0.21690000  0.59450000  0.51270000  0.5 -0.0801025899
C  C998  1  0.53310000  0.15550000  0.51270000  0.5 -0.0801025899
C  C999  1  0.53310000  0.59450000  0.23730000  0.5 -0.0801025899
C  C1000  1  0.21690000  0.15550000  0.23730000  0.5 -0.0801025899
C  C1001  1  0.71690000  0.09450000  0.51270000  0.5 -0.0801025899
C  C1002  1  0.03310000  0.65550000  0.51270000  0.5 -0.0801025899
C  C1003  1  0.03310000  0.09450000  0.23730000  0.5 -0.0801025899
C  C1004  1  0.71690000  0.65550000  0.23730000  0.5 -0.0801025899
C  C1005  1  0.71690000  0.59450000  0.01270000  0.5 -0.0801025899
C  C1006  1  0.03310000  0.15550000  0.01270000  0.5 -0.0801025899
C  C1007  1  0.03310000  0.59450000  0.73730000  0.5 -0.0801025899
C  C1008  1  0.71690000  0.15550000  0.73730000  0.5 -0.0801025899
C  C1009  1  0.78310000  0.90550000  0.98730000  0.5 -0.0801025899
C  C1010  1  0.46690000  0.34450000  0.98730000  0.5 -0.0801025899
C  C1011  1  0.46690000  0.90550000  0.26270000  0.5 -0.0801025899
C  C1012  1  0.78310000  0.34450000  0.26270000  0.5 -0.0801025899
C  C1013  1  0.78310000  0.40550000  0.48730000  0.5 -0.0801025899
C  C1014  1  0.46690000  0.84450000  0.48730000  0.5 -0.0801025899
C  C1015  1  0.46690000  0.40550000  0.76270000  0.5 -0.0801025899
C  C1016  1  0.78310000  0.84450000  0.76270000  0.5 -0.0801025899
C  C1017  1  0.28310000  0.90550000  0.48730000  0.5 -0.0801025899
C  C1018  1  0.96690000  0.34450000  0.48730000  0.5 -0.0801025899
C  C1019  1  0.96690000  0.90550000  0.76270000  0.5 -0.0801025899
C  C1020  1  0.28310000  0.34450000  0.76270000  0.5 -0.0801025899
C  C1021  1  0.28310000  0.40550000  0.98730000  0.5 -0.0801025899
C  C1022  1  0.96690000  0.84450000  0.98730000  0.5 -0.0801025899
C  C1023  1  0.96690000  0.40550000  0.26270000  0.5 -0.0801025899
C  C1024  1  0.28310000  0.84450000  0.26270000  0.5 -0.0801025899
C  C1025  1  0.08400000  0.15160000  0.98990000  0.5 -0.1175373662
C  C1026  1  0.66600000  0.59840000  0.98990000  0.5 -0.1175373662
C  C1027  1  0.66600000  0.15160000  0.76010000  0.5 -0.1175373662
C  C1028  1  0.08400000  0.59840000  0.76010000  0.5 -0.1175373662
C  C1029  1  0.08400000  0.65160000  0.48990000  0.5 -0.1175373662
C  C1030  1  0.66600000  0.09840000  0.48990000  0.5 -0.1175373662
C  C1031  1  0.66600000  0.65160000  0.26010000  0.5 -0.1175373662
C  C1032  1  0.08400000  0.09840000  0.26010000  0.5 -0.1175373662
C  C1033  1  0.58400000  0.15160000  0.48990000  0.5 -0.1175373662
C  C1034  1  0.16600000  0.59840000  0.48990000  0.5 -0.1175373662
C  C1035  1  0.16600000  0.15160000  0.26010000  0.5 -0.1175373662
C  C1036  1  0.58400000  0.59840000  0.26010000  0.5 -0.1175373662
C  C1037  1  0.58400000  0.65160000  0.98990000  0.5 -0.1175373662
C  C1038  1  0.16600000  0.09840000  0.98990000  0.5 -0.1175373662
C  C1039  1  0.16600000  0.65160000  0.76010000  0.5 -0.1175373662
C  C1040  1  0.58400000  0.09840000  0.76010000  0.5 -0.1175373662
C  C1041  1  0.91600000  0.84840000  0.01010000  0.5 -0.1175373662
C  C1042  1  0.33400000  0.40160000  0.01010000  0.5 -0.1175373662
C  C1043  1  0.33400000  0.84840000  0.23990000  0.5 -0.1175373662
C  C1044  1  0.91600000  0.40160000  0.23990000  0.5 -0.1175373662
C  C1045  1  0.91600000  0.34840000  0.51010000  0.5 -0.1175373662
C  C1046  1  0.33400000  0.90160000  0.51010000  0.5 -0.1175373662
C  C1047  1  0.33400000  0.34840000  0.73990000  0.5 -0.1175373662
C  C1048  1  0.91600000  0.90160000  0.73990000  0.5 -0.1175373662
C  C1049  1  0.41600000  0.84840000  0.51010000  0.5 -0.1175373662
C  C1050  1  0.83400000  0.40160000  0.51010000  0.5 -0.1175373662
C  C1051  1  0.83400000  0.84840000  0.73990000  0.5 -0.1175373662
C  C1052  1  0.41600000  0.40160000  0.73990000  0.5 -0.1175373662
C  C1053  1  0.41600000  0.34840000  0.01010000  0.5 -0.1175373662
C  C1054  1  0.83400000  0.90160000  0.01010000  0.5 -0.1175373662
C  C1055  1  0.83400000  0.34840000  0.23990000  0.5 -0.1175373662
C  C1056  1  0.41600000  0.90160000  0.23990000  0.5 -0.1175373662
C  C1057  1  0.07900000  0.10780000  0.98630000  0.5 -0.0609105848
C  C1058  1  0.67100000  0.64220000  0.98630000  0.5 -0.0609105848
C  C1059  1  0.67100000  0.10780000  0.76370000  0.5 -0.0609105848
C  C1060  1  0.07900000  0.64220000  0.76370000  0.5 -0.0609105848
C  C1061  1  0.07900000  0.60780000  0.48630000  0.5 -0.0609105848
C  C1062  1  0.67100000  0.14220000  0.48630000  0.5 -0.0609105848
C  C1063  1  0.67100000  0.60780000  0.26370000  0.5 -0.0609105848
C  C1064  1  0.07900000  0.14220000  0.26370000  0.5 -0.0609105848
C  C1065  1  0.57900000  0.10780000  0.48630000  0.5 -0.0609105848
C  C1066  1  0.17100000  0.64220000  0.48630000  0.5 -0.0609105848
C  C1067  1  0.17100000  0.10780000  0.26370000  0.5 -0.0609105848
C  C1068  1  0.57900000  0.64220000  0.26370000  0.5 -0.0609105848
C  C1069  1  0.57900000  0.60780000  0.98630000  0.5 -0.0609105848
C  C1070  1  0.17100000  0.14220000  0.98630000  0.5 -0.0609105848
C  C1071  1  0.17100000  0.60780000  0.76370000  0.5 -0.0609105848
C  C1072  1  0.57900000  0.14220000  0.76370000  0.5 -0.0609105848
C  C1073  1  0.92100000  0.89220000  0.01370000  0.5 -0.0609105848
C  C1074  1  0.32900000  0.35780000  0.01370000  0.5 -0.0609105848
C  C1075  1  0.32900000  0.89220000  0.23630000  0.5 -0.0609105848
C  C1076  1  0.92100000  0.35780000  0.23630000  0.5 -0.0609105848
C  C1077  1  0.92100000  0.39220000  0.51370000  0.5 -0.0609105848
C  C1078  1  0.32900000  0.85780000  0.51370000  0.5 -0.0609105848
C  C1079  1  0.32900000  0.39220000  0.73630000  0.5 -0.0609105848
C  C1080  1  0.92100000  0.85780000  0.73630000  0.5 -0.0609105848
C  C1081  1  0.42100000  0.89220000  0.51370000  0.5 -0.0609105848
C  C1082  1  0.82900000  0.35780000  0.51370000  0.5 -0.0609105848
C  C1083  1  0.82900000  0.89220000  0.73630000  0.5 -0.0609105848
C  C1084  1  0.42100000  0.35780000  0.73630000  0.5 -0.0609105848
C  C1085  1  0.42100000  0.39220000  0.01370000  0.5 -0.0609105848
C  C1086  1  0.82900000  0.85780000  0.01370000  0.5 -0.0609105848
C  C1087  1  0.82900000  0.39220000  0.23630000  0.5 -0.0609105848
C  C1088  1  0.42100000  0.85780000  0.23630000  0.5 -0.0609105848
N  N1  1  0.16140000  0.15836000  0.00776000  1.0 -0.1018496274
N  N2  1  0.58860000  0.59164000  0.00776000  1.0 -0.1018496274
N  N3  1  0.58860000  0.15836000  0.74224000  1.0 -0.1018496274
N  N4  1  0.16140000  0.59164000  0.74224000  1.0 -0.1018496274
N  N5  1  0.16140000  0.65836000  0.50776000  1.0 -0.1018496274
N  N6  1  0.58860000  0.09164000  0.50776000  1.0 -0.1018496274
N  N7  1  0.58860000  0.65836000  0.24224000  1.0 -0.1018496274
N  N8  1  0.16140000  0.09164000  0.24224000  1.0 -0.1018496274
N  N9  1  0.66140000  0.15836000  0.50776000  1.0 -0.1018496274
N  N10  1  0.08860000  0.59164000  0.50776000  1.0 -0.1018496274
N  N11  1  0.08860000  0.15836000  0.24224000  1.0 -0.1018496274
N  N12  1  0.66140000  0.59164000  0.24224000  1.0 -0.1018496274
N  N13  1  0.66140000  0.65836000  0.00776000  1.0 -0.1018496274
N  N14  1  0.08860000  0.09164000  0.00776000  1.0 -0.1018496274
N  N15  1  0.08860000  0.65836000  0.74224000  1.0 -0.1018496274
N  N16  1  0.66140000  0.09164000  0.74224000  1.0 -0.1018496274
N  N17  1  0.83860000  0.84164000  0.99224000  1.0 -0.1018496274
N  N18  1  0.41140000  0.40836000  0.99224000  1.0 -0.1018496274
N  N19  1  0.41140000  0.84164000  0.25776000  1.0 -0.1018496274
N  N20  1  0.83860000  0.40836000  0.25776000  1.0 -0.1018496274
N  N21  1  0.83860000  0.34164000  0.49224000  1.0 -0.1018496274
N  N22  1  0.41140000  0.90836000  0.49224000  1.0 -0.1018496274
N  N23  1  0.41140000  0.34164000  0.75776000  1.0 -0.1018496274
N  N24  1  0.83860000  0.90836000  0.75776000  1.0 -0.1018496274
N  N25  1  0.33860000  0.84164000  0.49224000  1.0 -0.1018496274
N  N26  1  0.91140000  0.40836000  0.49224000  1.0 -0.1018496274
N  N27  1  0.91140000  0.84164000  0.75776000  1.0 -0.1018496274
N  N28  1  0.33860000  0.40836000  0.75776000  1.0 -0.1018496274
N  N29  1  0.33860000  0.34164000  0.99224000  1.0 -0.1018496274
N  N30  1  0.91140000  0.90836000  0.99224000  1.0 -0.1018496274
N  N31  1  0.91140000  0.34164000  0.25776000  1.0 -0.1018496274
N  N32  1  0.33860000  0.90836000  0.25776000  1.0 -0.1084819134
O  O1  1  0.06240000  0.23341000  0.99227000  1.0 -0.5467038187
O  O2  1  0.68760000  0.51659000  0.99227000  1.0 -0.5467038187
O  O3  1  0.68760000  0.23341000  0.75773000  1.0 -0.5467038187
O  O4  1  0.06240000  0.51659000  0.75773000  1.0 -0.5467038187
O  O5  1  0.06240000  0.73341000  0.49227000  1.0 -0.5467038187
O  O6  1  0.68760000  0.01659000  0.49227000  1.0 -0.5467038187
O  O7  1  0.68760000  0.73341000  0.25773000  1.0 -0.5467038187
O  O8  1  0.06240000  0.01659000  0.25773000  1.0 -0.5467038187
O  O9  1  0.56240000  0.23341000  0.49227000  1.0 -0.5467038187
O  O10  1  0.18760000  0.51659000  0.49227000  1.0 -0.5467038187
O  O11  1  0.18760000  0.23341000  0.25773000  1.0 -0.5467038187
O  O12  1  0.56240000  0.51659000  0.25773000  1.0 -0.5467038187
O  O13  1  0.56240000  0.73341000  0.99227000  1.0 -0.5467038187
O  O14  1  0.18760000  0.01659000  0.99227000  1.0 -0.5467038187
O  O15  1  0.18760000  0.73341000  0.75773000  1.0 -0.5467038187
O  O16  1  0.56240000  0.01659000  0.75773000  1.0 -0.5467038187
O  O17  1  0.93760000  0.76659000  0.00773000  1.0 -0.5467038187
O  O18  1  0.31240000  0.48341000  0.00773000  1.0 -0.5467038187
O  O19  1  0.31240000  0.76659000  0.24227000  1.0 -0.5467038187
O  O20  1  0.93760000  0.48341000  0.24227000  1.0 -0.5467038187
O  O21  1  0.93760000  0.26659000  0.50773000  1.0 -0.5467038187
O  O22  1  0.31240000  0.98341000  0.50773000  1.0 -0.5467038187
O  O23  1  0.31240000  0.26659000  0.74227000  1.0 -0.5467038187
O  O24  1  0.93760000  0.98341000  0.74227000  1.0 -0.5467038187
O  O25  1  0.43760000  0.76659000  0.50773000  1.0 -0.5467038187
O  O26  1  0.81240000  0.48341000  0.50773000  1.0 -0.5467038187
O  O27  1  0.81240000  0.76659000  0.74227000  1.0 -0.5467038187
O  O28  1  0.43760000  0.48341000  0.74227000  1.0 -0.5467038187
O  O29  1  0.43760000  0.26659000  0.00773000  1.0 -0.5467038187
O  O30  1  0.81240000  0.98341000  0.00773000  1.0 -0.5467038187
O  O31  1  0.81240000  0.26659000  0.24227000  1.0 -0.5467038187
O  O32  1  0.43760000  0.98341000  0.24227000  1.0 -0.5467038187
O  O33  1  0.10600000  0.28977000  0.98209000  1.0 -0.5332585902
O  O34  1  0.64400000  0.46023000  0.98209000  1.0 -0.5332585902
O  O35  1  0.64400000  0.28977000  0.76791000  1.0 -0.5332585902
O  O36  1  0.10600000  0.46023000  0.76791000  1.0 -0.5332585902
O  O37  1  0.10600000  0.78977000  0.48209000  1.0 -0.5332585902
O  O38  1  0.64400000  0.96023000  0.48209000  1.0 -0.5332585902
O  O39  1  0.64400000  0.78977000  0.26791000  1.0 -0.5332585902
O  O40  1  0.10600000  0.96023000  0.26791000  1.0 -0.5332585902
O  O41  1  0.60600000  0.28977000  0.48209000  1.0 -0.5332585902
O  O42  1  0.14400000  0.46023000  0.48209000  1.0 -0.5332585902
O  O43  1  0.14400000  0.28977000  0.26791000  1.0 -0.5332585902
O  O44  1  0.60600000  0.46023000  0.26791000  1.0 -0.5332585902
O  O45  1  0.60600000  0.78977000  0.98209000  1.0 -0.5332585902
O  O46  1  0.14400000  0.96023000  0.98209000  1.0 -0.5332585902
O  O47  1  0.14400000  0.78977000  0.76791000  1.0 -0.5332585902
O  O48  1  0.60600000  0.96023000  0.76791000  1.0 -0.5332585902
O  O49  1  0.89400000  0.71023000  0.01791000  1.0 -0.5332585902
O  O50  1  0.35600000  0.53977000  0.01791000  1.0 -0.5332585902
O  O51  1  0.35600000  0.71023000  0.23209000  1.0 -0.5332585902
O  O52  1  0.89400000  0.53977000  0.23209000  1.0 -0.5332585902
O  O53  1  0.89400000  0.21023000  0.51791000  1.0 -0.5332585902
O  O54  1  0.35600000  0.03977000  0.51791000  1.0 -0.5332585902
O  O55  1  0.35600000  0.21023000  0.73209000  1.0 -0.5332585902
O  O56  1  0.89400000  0.03977000  0.73209000  1.0 -0.5332585902
O  O57  1  0.39400000  0.71023000  0.51791000  1.0 -0.5332585902
O  O58  1  0.85600000  0.53977000  0.51791000  1.0 -0.5332585902
O  O59  1  0.85600000  0.71023000  0.73209000  1.0 -0.5332585902
O  O60  1  0.39400000  0.53977000  0.73209000  1.0 -0.5332585902
O  O61  1  0.39400000  0.21023000  0.01791000  1.0 -0.5332585902
O  O62  1  0.85600000  0.03977000  0.01791000  1.0 -0.5332585902
O  O63  1  0.85600000  0.21023000  0.23209000  1.0 -0.5332585902
O  O64  1  0.39400000  0.03977000  0.23209000  1.0 -0.5332585902
O  O65  1  0.29430000  0.53927000  0.77486000  1.0 -0.5467038187
O  O66  1  0.45570000  0.21073000  0.77486000  1.0 -0.5467038187
O  O67  1  0.45570000  0.53927000  0.97514000  1.0 -0.5467038187
O  O68  1  0.29430000  0.21073000  0.97514000  1.0 -0.5467038187
O  O69  1  0.29430000  0.03927000  0.27486000  1.0 -0.5467038187
O  O70  1  0.45570000  0.71073000  0.27486000  1.0 -0.5467038187
O  O71  1  0.45570000  0.03927000  0.47514000  1.0 -0.5467038187
O  O72  1  0.29430000  0.71073000  0.47514000  1.0 -0.5467038187
O  O73  1  0.79430000  0.53927000  0.27486000  1.0 -0.5467038187
O  O74  1  0.95570000  0.21073000  0.27486000  1.0 -0.5467038187
O  O75  1  0.95570000  0.53927000  0.47514000  1.0 -0.5467038187
O  O76  1  0.79430000  0.21073000  0.47514000  1.0 -0.5467038187
O  O77  1  0.79430000  0.03927000  0.77486000  1.0 -0.5467038187
O  O78  1  0.95570000  0.71073000  0.77486000  1.0 -0.5467038187
O  O79  1  0.95570000  0.03927000  0.97514000  1.0 -0.5467038187
O  O80  1  0.79430000  0.71073000  0.97514000  1.0 -0.5467038187
O  O81  1  0.70570000  0.46073000  0.22514000  1.0 -0.5467038187
O  O82  1  0.54430000  0.78927000  0.22514000  1.0 -0.5467038187
O  O83  1  0.54430000  0.46073000  0.02486000  1.0 -0.5467038187
O  O84  1  0.70570000  0.78927000  0.02486000  1.0 -0.5467038187
O  O85  1  0.70570000  0.96073000  0.72514000  1.0 -0.5467038187
O  O86  1  0.54430000  0.28927000  0.72514000  1.0 -0.5467038187
O  O87  1  0.54430000  0.96073000  0.52486000  1.0 -0.5467038187
O  O88  1  0.70570000  0.28927000  0.52486000  1.0 -0.5467038187
O  O89  1  0.20570000  0.46073000  0.72514000  1.0 -0.5467038187
O  O90  1  0.04430000  0.78927000  0.72514000  1.0 -0.5467038187
O  O91  1  0.04430000  0.46073000  0.52486000  1.0 -0.5467038187
O  O92  1  0.20570000  0.78927000  0.52486000  1.0 -0.5467038187
O  O93  1  0.20570000  0.96073000  0.22514000  1.0 -0.5467038187
O  O94  1  0.04430000  0.28927000  0.22514000  1.0 -0.5467038187
O  O95  1  0.04430000  0.96073000  0.02486000  1.0 -0.5467038187
O  O96  1  0.20570000  0.28927000  0.02486000  1.0 -0.5467038187
O  O97  1  0.33850000  0.48327000  0.78589000  1.0 -0.5248270155
O  O98  1  0.41150000  0.26673000  0.78589000  1.0 -0.5248270155
O  O99  1  0.41150000  0.48327000  0.96411000  1.0 -0.5248270155
O  O100  1  0.33850000  0.26673000  0.96411000  1.0 -0.5248270155
O  O101  1  0.33850000  0.98327000  0.28589000  1.0 -0.5332585902
O  O102  1  0.41150000  0.76673000  0.28589000  1.0 -0.5248270155
O  O103  1  0.41150000  0.98327000  0.46411000  1.0 -0.5332585902
O  O104  1  0.33850000  0.76673000  0.46411000  1.0 -0.5248270155
O  O105  1  0.83850000  0.48327000  0.28589000  1.0 -0.5248270155
O  O106  1  0.91150000  0.26673000  0.28589000  1.0 -0.5248270155
O  O107  1  0.91150000  0.48327000  0.46411000  1.0 -0.5248270155
O  O108  1  0.83850000  0.26673000  0.46411000  1.0 -0.5248270155
O  O109  1  0.83850000  0.98327000  0.78589000  1.0 -0.5332585902
O  O110  1  0.91150000  0.76673000  0.78589000  1.0 -0.5248270155
O  O111  1  0.91150000  0.98327000  0.96411000  1.0 -0.5332585902
O  O112  1  0.83850000  0.76673000  0.96411000  1.0 -0.5248270155
O  O113  1  0.66150000  0.51673000  0.21411000  1.0 -0.5248270155
O  O114  1  0.58850000  0.73327000  0.21411000  1.0 -0.5248270155
O  O115  1  0.58850000  0.51673000  0.03589000  1.0 -0.5248270155
O  O116  1  0.66150000  0.73327000  0.03589000  1.0 -0.5248270155
O  O117  1  0.66150000  0.01673000  0.71411000  1.0 -0.5248270155
O  O118  1  0.58850000  0.23327000  0.71411000  1.0 -0.5248270155
O  O119  1  0.58850000  0.01673000  0.53589000  1.0 -0.5248270155
O  O120  1  0.66150000  0.23327000  0.53589000  1.0 -0.5248270155
O  O121  1  0.16150000  0.51673000  0.71411000  1.0 -0.5248270155
O  O122  1  0.08850000  0.73327000  0.71411000  1.0 -0.5248270155
O  O123  1  0.08850000  0.51673000  0.53589000  1.0 -0.5248270155
O  O124  1  0.16150000  0.73327000  0.53589000  1.0 -0.5248270155
O  O125  1  0.16150000  0.01673000  0.21411000  1.0 -0.5248270155
O  O126  1  0.08850000  0.23327000  0.21411000  1.0 -0.5248270155
O  O127  1  0.08850000  0.01673000  0.03589000  1.0 -0.5248270155
O  O128  1  0.16150000  0.23327000  0.03589000  1.0 -0.5248270155
