# DDEC6 charges by PACMAN v1.1 (https://github.com/mtap-research/PACMAN-charge/)
data_c8qi00773j2_ASR_pacman
_symmetry_space_group_name_H-M   'P 1'
_cell_length_a   13.49500000
_cell_length_b   13.77610000
_cell_length_c   26.87210000
_cell_angle_alpha   90.00000000
_cell_angle_beta   90.00000000
_cell_angle_gamma   90.00000000
_symmetry_Int_Tables_number   1
_chemical_formula_structural   Zn4H18C45NO20
_chemical_formula_sum   'Zn8 H36 C90 N2 O40'
_cell_volume   4995.75098325
_cell_formula_units_Z   2
loop_
 _symmetry_equiv_pos_site_id
 _symmetry_equiv_pos_as_xyz
  1  'x, y, z'
loop_
 _atom_site_type_symbol
 _atom_site_label
 _atom_site_symmetry_multiplicity
 _atom_site_fract_x
 _atom_site_fract_y
 _atom_site_fract_z
 _atom_site_occupancy
 _atom_site_charge
Zn  Zn1  1  0.18111000  0.56143000  0.16084000  1.0 1.0210696018
Zn  Zn2  1  0.25543000  0.70648000  0.25592000  1.0 0.9287189549
Zn  Zn3  1  0.18111000  0.43857000  0.83916000  1.0 1.0210696018
Zn  Zn4  1  0.25543000  0.29352000  0.74408000  1.0 0.9287189549
Zn  Zn5  1  0.81889000  0.93857000  0.66084000  1.0 1.0210696018
Zn  Zn6  1  0.74457000  0.79352000  0.75592000  1.0 0.9287189549
Zn  Zn7  1  0.81889000  0.06143000  0.33916000  1.0 1.0210696018
Zn  Zn8  1  0.74457000  0.20648000  0.24408000  1.0 0.9287189549
H  H1  1  0.52207000  0.48201000  0.24640000  1.0 0.1420326835
H  H2  1  0.63787000  0.38685000  0.11607000  1.0 0.1300861208
H  H3  1  0.42069000  0.58705000  0.11438000  1.0 0.1300861208
H  H4  1  0.01387000  0.38893000  0.26124000  1.0 0.1420326835
H  H5  1  0.93024000  0.33242000  0.40321000  1.0 0.121815502
H  H6  1  0.12054000  0.55204000  0.37399000  1.0 0.121815502
H  H7  1  0.52207000  0.51799000  0.75360000  1.0 0.1420326835
H  H8  1  0.63787000  0.61315000  0.88393000  1.0 0.1300861208
H  H9  1  0.42069000  0.41295000  0.88562000  1.0 0.1300861208
H  H10  1  0.01387000  0.61107000  0.73876000  1.0 0.1420326835
H  H11  1  0.93024000  0.66758000  0.59679000  1.0 0.121815502
H  H12  1  0.12054000  0.44796000  0.62601000  1.0 0.121815502
H  H13  1  0.47793000  0.01799000  0.74640000  1.0 0.1420326835
H  H14  1  0.36213000  0.11315000  0.61607000  1.0 0.1300861208
H  H15  1  0.57931000  0.91295000  0.61438000  1.0 0.1300861208
H  H16  1  0.98613000  0.11107000  0.76124000  1.0 0.1420326835
H  H17  1  0.06976000  0.16758000  0.90321000  1.0 0.121815502
H  H18  1  0.87946000  0.94796000  0.87399000  1.0 0.121815502
H  H19  1  0.47793000  0.98201000  0.25360000  1.0 0.1420326835
H  H20  1  0.36213000  0.88685000  0.38393000  1.0 0.1300861208
H  H21  1  0.57931000  0.08705000  0.38562000  1.0 0.1300861208
H  H22  1  0.98613000  0.88893000  0.23876000  1.0 0.1420326835
H  H23  1  0.06976000  0.83242000  0.09679000  1.0 0.121815502
H  H24  1  0.87946000  0.05204000  0.12601000  1.0 0.121815502
H  H25  1  0.53526000  0.63732000  0.04497000  0.5 0.2270587149
H  H26  1  0.55758000  0.35929000  0.04180000  0.5 0.1640665388
H  H27  1  0.12161000  0.58330000  0.45064000  0.5 0.0926389402
H  H28  1  0.98127000  0.35603000  0.47765000  0.5 0.121815502
H  H29  1  0.09919000  0.61969000  0.53344000  0.5 0.2270587149
H  H30  1  0.55531000  0.36040000  0.04101000  0.5 0.1657244457
H  H31  1  0.53526000  0.36268000  0.95503000  0.5 0.2270587149
H  H32  1  0.55758000  0.64071000  0.95820000  0.5 0.1640665388
H  H33  1  0.12161000  0.41670000  0.54936000  0.5 0.0926389402
H  H34  1  0.98127000  0.64397000  0.52235000  0.5 0.121815502
H  H35  1  0.09919000  0.38031000  0.46656000  0.5 0.2270587149
H  H36  1  0.55531000  0.63960000  0.95899000  0.5 0.1657244457
H  H37  1  0.46474000  0.86268000  0.54497000  0.5 0.2270587149
H  H38  1  0.44242000  0.14071000  0.54180000  0.5 0.1640665388
H  H39  1  0.87839000  0.91670000  0.95064000  0.5 0.0926389402
H  H40  1  0.01873000  0.14397000  0.97765000  0.5 0.121815502
H  H41  1  0.90081000  0.88031000  0.03344000  0.5 0.2270587149
H  H42  1  0.44469000  0.13960000  0.54101000  0.5 0.1657244457
H  H43  1  0.46474000  0.13732000  0.45503000  0.5 0.2270587149
H  H44  1  0.44242000  0.85929000  0.45820000  0.5 0.1640665388
H  H45  1  0.87839000  0.08330000  0.04936000  0.5 0.0926389402
H  H46  1  0.01873000  0.85603000  0.02235000  0.5 0.121815502
H  H47  1  0.90081000  0.11969000  0.96656000  0.5 0.2270587149
H  H48  1  0.44469000  0.86040000  0.45899000  0.5 0.1657244457
C  C1  1  0.38680000  0.60260000  0.21480000  1.0 0.5721185064
C  C2  1  0.46100000  0.54640000  0.18460000  1.0 0.0282759256
C  C3  1  0.52350000  0.48290000  0.21110000  1.0 -0.0996412685
C  C4  1  0.58530000  0.42340000  0.18600000  1.0 0.010728369
C  C5  1  0.64860000  0.34890000  0.21220000  1.0 0.5511660433
C  C6  1  0.59220000  0.42780000  0.13290000  1.0 -0.1163652496
C  C7  1  0.53190000  0.49260000  0.10490000  1.0 0.0670423812
C  C8  1  0.46580000  0.54680000  0.13200000  1.0 -0.1513561861
C  C9  1  0.53720000  0.49740000  0.05150000  1.0 0.0407515202
C  C10  1  0.53900000  0.57790000  0.02710000  1.0 -0.1163652496
C  C11  1  0.54620000  0.41950000  0.02550000  1.0 -0.2238099718
C  C12  1  0.13570000  0.53920000  0.27600000  1.0 0.6051108098
C  C13  1  0.07660000  0.47750000  0.31250000  1.0 -0.0179165038
C  C14  1  0.01960000  0.40240000  0.29580000  1.0 -0.0934999318
C  C15  1  0.96840000  0.34400000  0.33230000  1.0 -0.0046868321
C  C16  1  0.90120000  0.26230000  0.31350000  1.0 0.6193355775
C  C17  1  0.96910000  0.36820000  0.38010000  1.0 -0.1294923657
C  C18  1  0.02730000  0.44690000  0.39690000  1.0 0.0183487447
C  C19  1  0.08050000  0.49960000  0.36290000  1.0 -0.1513561861
C  C20  1  0.02690000  0.47660000  0.45160000  1.0 0.0282759256
C  C21  1  0.38680000  0.39740000  0.78520000  1.0 0.5721185064
C  C22  1  0.46100000  0.45360000  0.81540000  1.0 0.0282759256
C  C23  1  0.52350000  0.51710000  0.78890000  1.0 -0.0996412685
C  C24  1  0.58530000  0.57660000  0.81400000  1.0 0.010728369
C  C25  1  0.64860000  0.65110000  0.78780000  1.0 0.5511660433
C  C26  1  0.59220000  0.57220000  0.86710000  1.0 -0.1163652496
C  C27  1  0.53190000  0.50740000  0.89510000  1.0 0.0670423812
C  C28  1  0.46580000  0.45320000  0.86800000  1.0 -0.1513561861
C  C29  1  0.53720000  0.50260000  0.94850000  1.0 0.0407515202
C  C30  1  0.53900000  0.42210000  0.97290000  1.0 -0.1163652496
C  C31  1  0.54620000  0.58050000  0.97450000  1.0 -0.2238099718
C  C32  1  0.13570000  0.46080000  0.72400000  1.0 0.6051108098
C  C33  1  0.07660000  0.52250000  0.68750000  1.0 -0.0179165038
C  C34  1  0.01960000  0.59760000  0.70420000  1.0 -0.0934999318
C  C35  1  0.96840000  0.65600000  0.66770000  1.0 -0.0046868321
C  C36  1  0.90120000  0.73770000  0.68650000  1.0 0.6193355775
C  C37  1  0.96910000  0.63180000  0.61990000  1.0 -0.1294923657
C  C38  1  0.02730000  0.55310000  0.60310000  1.0 0.0183487447
C  C39  1  0.08050000  0.50040000  0.63710000  1.0 -0.1513561861
C  C40  1  0.02690000  0.52340000  0.54840000  1.0 0.0282759256
C  C41  1  0.61320000  0.89740000  0.71480000  1.0 0.5721185064
C  C42  1  0.53900000  0.95360000  0.68460000  1.0 0.0282759256
C  C43  1  0.47650000  0.01710000  0.71110000  1.0 -0.0996412685
C  C44  1  0.41470000  0.07660000  0.68600000  1.0 0.010728369
C  C45  1  0.35140000  0.15110000  0.71220000  1.0 0.5511660433
C  C46  1  0.40780000  0.07220000  0.63290000  1.0 -0.1163652496
C  C47  1  0.46810000  0.00740000  0.60490000  1.0 0.0670423812
C  C48  1  0.53420000  0.95320000  0.63200000  1.0 -0.1513561861
C  C49  1  0.46280000  0.00260000  0.55150000  1.0 0.0407515202
C  C50  1  0.46100000  0.92210000  0.52710000  1.0 -0.1163652496
C  C51  1  0.45380000  0.08050000  0.52550000  1.0 -0.2238099718
C  C52  1  0.86430000  0.96080000  0.77600000  1.0 0.6051108098
C  C53  1  0.92340000  0.02250000  0.81250000  1.0 -0.0179165038
C  C54  1  0.98040000  0.09760000  0.79580000  1.0 -0.0934999318
C  C55  1  0.03160000  0.15600000  0.83230000  1.0 -0.0046868321
C  C56  1  0.09880000  0.23770000  0.81350000  1.0 0.6193355775
C  C57  1  0.03090000  0.13180000  0.88010000  1.0 -0.1294923657
C  C58  1  0.97270000  0.05310000  0.89690000  1.0 0.0183487447
C  C59  1  0.91950000  0.00040000  0.86290000  1.0 -0.1513561861
C  C60  1  0.97310000  0.02340000  0.95160000  1.0 0.0282759256
C  C61  1  0.61320000  0.10260000  0.28520000  1.0 0.5721185064
C  C62  1  0.53900000  0.04640000  0.31540000  1.0 0.0282759256
C  C63  1  0.47650000  0.98290000  0.28890000  1.0 -0.0996412685
C  C64  1  0.41470000  0.92340000  0.31400000  1.0 0.010728369
C  C65  1  0.35140000  0.84890000  0.28780000  1.0 0.5511660433
C  C66  1  0.40780000  0.92780000  0.36710000  1.0 -0.1163652496
C  C67  1  0.46810000  0.99260000  0.39510000  1.0 0.0670423812
C  C68  1  0.53420000  0.04680000  0.36800000  1.0 -0.1513561861
C  C69  1  0.46280000  0.99740000  0.44850000  1.0 0.0407515202
C  C70  1  0.46100000  0.07790000  0.47290000  1.0 -0.1163652496
C  C71  1  0.45380000  0.91950000  0.47450000  1.0 -0.2238099718
C  C72  1  0.86430000  0.03920000  0.22400000  1.0 0.6051108098
C  C73  1  0.92340000  0.97750000  0.18750000  1.0 -0.0179165038
C  C74  1  0.98040000  0.90240000  0.20420000  1.0 -0.0934999318
C  C75  1  0.03160000  0.84400000  0.16770000  1.0 -0.0060211218
C  C76  1  0.09880000  0.76230000  0.18650000  1.0 0.6193355775
C  C77  1  0.03090000  0.86820000  0.11990000  1.0 -0.1294923657
C  C78  1  0.97270000  0.94690000  0.10310000  1.0 0.0183487447
C  C79  1  0.91950000  0.99960000  0.13710000  1.0 -0.1513561861
C  C80  1  0.97310000  0.97660000  0.04840000  1.0 0.0282759256
C  C81  1  0.07800000  0.54600000  0.47090000  0.5 -0.0179165038
C  C82  1  0.99000000  0.42300000  0.48500000  0.5 0.010728369
C  C83  1  0.95700000  0.45900000  0.53650000  0.5 -0.1378836327
C  C84  1  0.53000000  0.67000000  0.05300000  0.5 0.3558056659
C  C85  1  0.87100000  0.46600000  0.57000000  0.5 0.5633578903
C  C86  1  0.07800000  0.45400000  0.52910000  0.5 -0.0179165038
C  C87  1  0.99000000  0.57700000  0.51500000  0.5 0.010728369
C  C88  1  0.95700000  0.54100000  0.46350000  0.5 -0.1378836327
C  C89  1  0.53000000  0.33000000  0.94700000  0.5 0.3558056659
C  C90  1  0.87100000  0.53400000  0.43000000  0.5 0.5633578903
C  C91  1  0.92200000  0.95400000  0.97090000  0.5 -0.0179165038
C  C92  1  0.01000000  0.07700000  0.98500000  0.5 0.010728369
C  C93  1  0.04300000  0.04100000  0.03650000  0.5 -0.1294923657
C  C94  1  0.47000000  0.83000000  0.55300000  0.5 0.3558056659
C  C95  1  0.12900000  0.03400000  0.07000000  0.5 0.5633578903
C  C96  1  0.92200000  0.04600000  0.02910000  0.5 -0.0179165038
C  C97  1  0.01000000  0.92300000  0.01500000  0.5 0.010728369
C  C98  1  0.04300000  0.95900000  0.96350000  0.5 -0.1378836327
C  C99  1  0.47000000  0.17000000  0.44700000  0.5 0.3558056659
C  C100  1  0.12900000  0.96600000  0.93000000  0.5 0.5633578903
N  N1  1  0.06900000  0.56700000  0.52220000  0.5 -0.0709175946
N  N2  1  0.06900000  0.43300000  0.47780000  0.5 -0.0709175946
N  N3  1  0.93100000  0.93300000  0.02220000  0.5 -0.0709175946
N  N4  1  0.93100000  0.06700000  0.97780000  0.5 -0.0709175946
O  O1  1  0.30780000  0.63280000  0.19360000  1.0 -0.5904206925
O  O2  1  0.40510000  0.62400000  0.25810000  1.0 -0.4483402068
O  O3  1  0.70430000  0.29400000  0.18610000  1.0 -0.5278087401
O  O4  1  0.64160000  0.34170000  0.25840000  1.0 -0.4991884375
O  O5  1  0.18830000  0.60090000  0.29460000  1.0 -0.4922537202
O  O6  1  0.12340000  0.52100000  0.23050000  1.0 -0.5776206696
O  O7  1  0.88850000  0.19440000  0.34280000  1.0 -0.5471699679
O  O8  1  0.86590000  0.27200000  0.27050000  1.0 -0.5278087401
O  O9  1  0.30780000  0.36720000  0.80640000  1.0 -0.5904206925
O  O10  1  0.40510000  0.37600000  0.74190000  1.0 -0.4483402068
O  O11  1  0.70430000  0.70600000  0.81390000  1.0 -0.5278087401
O  O12  1  0.64160000  0.65830000  0.74160000  1.0 -0.4991884375
O  O13  1  0.18830000  0.39910000  0.70540000  1.0 -0.4922537202
O  O14  1  0.12340000  0.47900000  0.76950000  1.0 -0.5776206696
O  O15  1  0.88850000  0.80560000  0.65720000  1.0 -0.5471699679
O  O16  1  0.86590000  0.72800000  0.72950000  1.0 -0.5278087401
O  O17  1  0.69220000  0.86720000  0.69360000  1.0 -0.5904206925
O  O18  1  0.59490000  0.87600000  0.75810000  1.0 -0.4483402068
O  O19  1  0.29570000  0.20600000  0.68610000  1.0 -0.5278087401
O  O20  1  0.35840000  0.15830000  0.75840000  1.0 -0.4991884375
O  O21  1  0.81170000  0.89910000  0.79460000  1.0 -0.4922537202
O  O22  1  0.87660000  0.97900000  0.73050000  1.0 -0.5776206696
O  O23  1  0.11150000  0.30560000  0.84280000  1.0 -0.5471699679
O  O24  1  0.13410000  0.22800000  0.77050000  1.0 -0.5278087401
O  O25  1  0.69220000  0.13280000  0.30640000  1.0 -0.5904206925
O  O26  1  0.59490000  0.12400000  0.24190000  1.0 -0.4483402068
O  O27  1  0.29570000  0.79400000  0.31390000  1.0 -0.5278087401
O  O28  1  0.35840000  0.84170000  0.24160000  1.0 -0.4991884375
O  O29  1  0.81170000  0.10090000  0.20540000  1.0 -0.4922537202
O  O30  1  0.87660000  0.02100000  0.26950000  1.0 -0.5776206696
O  O31  1  0.11150000  0.69440000  0.15720000  1.0 -0.5471699679
O  O32  1  0.13410000  0.77200000  0.22950000  1.0 -0.5278087401
O  O33  1  0.44200000  0.70000000  0.06600000  0.5 -0.4108489597
O  O34  1  0.60100000  0.70300000  0.07810000  0.5 -0.424032762
O  O35  1  0.79700000  0.41200000  0.56430000  0.5 -0.4619133615
O  O36  1  0.86400000  0.53500000  0.60110000  0.5 -0.3702162647
O  O37  1  0.44200000  0.30000000  0.93400000  0.5 -0.4108489597
O  O38  1  0.60100000  0.29700000  0.92190000  0.5 -0.424032762
O  O39  1  0.79700000  0.58800000  0.43570000  0.5 -0.4619133615
O  O40  1  0.86400000  0.46500000  0.39890000  0.5 -0.3702162647
O  O41  1  0.55800000  0.80000000  0.56600000  0.5 -0.4108489597
O  O42  1  0.39900000  0.79700000  0.57810000  0.5 -0.424032762
O  O43  1  0.20300000  0.08800000  0.06430000  0.5 -0.4619133615
O  O44  1  0.13600000  0.96500000  0.10110000  0.5 -0.3702162647
O  O45  1  0.55800000  0.20000000  0.43400000  0.5 -0.4108489597
O  O46  1  0.39900000  0.20300000  0.42190000  0.5 -0.424032762
O  O47  1  0.20300000  0.91200000  0.93570000  0.5 -0.4619133615
O  O48  1  0.13600000  0.03500000  0.89890000  0.5 -0.3702162647
