# DDEC6 charges by PACMAN v1.1 (https://github.com/mtap-research/PACMAN-charge/)
data_d1qm00024a2_ASR_pacman
_symmetry_space_group_name_H-M   'P 1'
_cell_length_a   13.08800000
_cell_length_b   13.08800000
_cell_length_c   24.96340000
_cell_angle_alpha   90.00000000
_cell_angle_beta   90.00000000
_cell_angle_gamma   90.00000000
_symmetry_Int_Tables_number   1
_chemical_formula_structural   Zn2H40RuC64(NO)8
_chemical_formula_sum   'Zn4 H80 Ru2 C128 N16 O16'
_cell_volume   4276.12417577
_cell_formula_units_Z   2
loop_
 _symmetry_equiv_pos_site_id
 _symmetry_equiv_pos_as_xyz
  1  'x, y, z'
loop_
 _atom_site_type_symbol
 _atom_site_label
 _atom_site_symmetry_multiplicity
 _atom_site_fract_x
 _atom_site_fract_y
 _atom_site_fract_z
 _atom_site_occupancy
 _atom_site_charge
Zn  Zn1  1  0.50000000  0.50000000  0.94125000  1.0 0.7281223248
Zn  Zn2  1  0.50000000  0.50000000  0.05875000  1.0 0.7281223248
Zn  Zn3  1  0.00000000  0.00000000  0.44125000  1.0 0.7281223248
Zn  Zn4  1  0.00000000  0.00000000  0.55875000  1.0 0.7281223248
H  H1  1  0.34761000  0.34761000  0.44329000  1.0 0.191155064
H  H2  1  0.39120000  0.39120000  0.67918000  1.0 0.1087105582
H  H3  1  0.29248000  0.29248000  0.62272000  1.0 0.1800950403
H  H4  1  0.22758000  0.22758000  0.46972000  1.0 0.1995986877
H  H5  1  0.20015000  0.20015000  0.56019000  1.0 0.1995986877
H  H6  1  0.65239000  0.65239000  0.44329000  1.0 0.191155064
H  H7  1  0.60880000  0.60880000  0.67918000  1.0 0.1087105582
H  H8  1  0.70752000  0.70752000  0.62272000  1.0 0.1800950403
H  H9  1  0.77242000  0.77242000  0.46972000  1.0 0.1995986877
H  H10  1  0.79985000  0.79985000  0.56019000  1.0 0.1995986877
H  H11  1  0.65239000  0.34761000  0.55671000  1.0 0.191155064
H  H12  1  0.60880000  0.39120000  0.32082000  1.0 0.1087105582
H  H13  1  0.70752000  0.29248000  0.37728000  1.0 0.1800950403
H  H14  1  0.77242000  0.22758000  0.53028000  1.0 0.1995986877
H  H15  1  0.79985000  0.20015000  0.43981000  1.0 0.1995986877
H  H16  1  0.34761000  0.65239000  0.55671000  1.0 0.191155064
H  H17  1  0.39120000  0.60880000  0.32082000  1.0 0.1087105582
H  H18  1  0.29248000  0.70752000  0.37728000  1.0 0.1800950403
H  H19  1  0.22758000  0.77242000  0.53028000  1.0 0.1995986877
H  H20  1  0.20015000  0.79985000  0.43981000  1.0 0.1995986877
H  H101  1  0.84761000  0.15239000  0.94329000  1.0 0.191155064
H  H102  1  0.89120000  0.10880000  0.17918000  1.0 0.1087105582
H  H103  1  0.79248000  0.20752000  0.12272000  1.0 0.1800950403
H  H104  1  0.72758000  0.27242000  0.96972000  1.0 0.1995986877
H  H105  1  0.70015000  0.29985000  0.06019000  1.0 0.1995986877
H  H106  1  0.15239000  0.84761000  0.94329000  1.0 0.191155064
H  H107  1  0.10880000  0.89120000  0.17918000  1.0 0.1087105582
H  H108  1  0.20752000  0.79248000  0.12272000  1.0 0.1800950403
H  H109  1  0.27242000  0.72758000  0.96972000  1.0 0.1995986877
H  H110  1  0.29985000  0.70015000  0.06019000  1.0 0.1995986877
H  H111  1  0.15239000  0.15239000  0.05671000  1.0 0.191155064
H  H112  1  0.10880000  0.10880000  0.82082000  1.0 0.1087105582
H  H113  1  0.20752000  0.20752000  0.87728000  1.0 0.1800950403
H  H114  1  0.27242000  0.27242000  0.03028000  1.0 0.1995986877
H  H115  1  0.29985000  0.29985000  0.93981000  1.0 0.1995986877
H  H116  1  0.84761000  0.84761000  0.05671000  1.0 0.191155064
H  H117  1  0.89120000  0.89120000  0.82082000  1.0 0.1087105582
H  H118  1  0.79248000  0.79248000  0.87728000  1.0 0.1800950403
H  H119  1  0.72758000  0.72758000  0.03028000  1.0 0.1995986877
H  H120  1  0.70015000  0.70015000  0.93981000  1.0 0.1995986877
H  H21  1  0.63040000  0.57477000  0.84867000  0.25 0.07107437
H  H22  1  0.58738000  0.62636000  0.76111000  0.25 0.07107437
H  H23  1  0.45644000  0.01425000  0.10119000  0.25 0.07107437
H  H24  1  0.46290000  0.18996000  0.09154000  0.25 0.0511689475
H  H25  1  0.52430000  0.15867000  0.93385000  0.25 0.0639328858
H  H26  1  0.53624000  0.98378000  0.89599000  0.25 0.07107437
H  H27  1  0.52954000  0.80725000  0.90604000  0.25 0.0511689475
H  H28  1  0.47305000  0.84573000  0.06401000  0.25 0.0639328858
H  H29  1  0.52186000  0.64892000  0.85105000  0.25 0.0639328858
H  H30  1  0.53978000  0.64851000  0.75879000  0.25 0.07107437
H  H31  1  0.36960000  0.42523000  0.84867000  0.25 0.07107437
H  H32  1  0.41262000  0.37364000  0.76111000  0.25 0.07107437
H  H33  1  0.54356000  0.98575000  0.10119000  0.25 0.07107437
H  H34  1  0.53710000  0.81004000  0.09154000  0.25 0.0511689475
H  H35  1  0.47570000  0.84133000  0.93385000  0.25 0.0639328858
H  H36  1  0.46376000  0.01622000  0.89599000  0.25 0.07107437
H  H37  1  0.47046000  0.19275000  0.90604000  0.25 0.0511689475
H  H38  1  0.52695000  0.15427000  0.06401000  0.25 0.0639328858
H  H39  1  0.47814000  0.35108000  0.85105000  0.25 0.0639328858
H  H40  1  0.46022000  0.35149000  0.75879000  0.25 0.07107437
H  H41  1  0.36960000  0.57477000  0.15133000  0.25 0.07107437
H  H42  1  0.41262000  0.62636000  0.23889000  0.25 0.07107437
H  H43  1  0.54356000  0.01425000  0.89881000  0.25 0.0753054554
H  H44  1  0.53710000  0.18996000  0.90846000  0.25 0.0511689475
H  H45  1  0.47570000  0.15867000  0.06615000  0.25 0.0639328858
H  H46  1  0.46376000  0.98378000  0.10401000  0.25 0.07107437
H  H47  1  0.47046000  0.80725000  0.09396000  0.25 0.0511689475
H  H48  1  0.52695000  0.84573000  0.93599000  0.25 0.0639328858
H  H49  1  0.47814000  0.64892000  0.14895000  0.25 0.0639328858
H  H50  1  0.46022000  0.64851000  0.24121000  0.25 0.07107437
H  H51  1  0.63040000  0.42523000  0.15133000  0.25 0.07107437
H  H52  1  0.58738000  0.37364000  0.23889000  0.25 0.07107437
H  H53  1  0.45644000  0.98575000  0.89881000  0.25 0.0753054554
H  H54  1  0.46290000  0.81004000  0.90846000  0.25 0.0511689475
H  H55  1  0.52430000  0.84133000  0.06615000  0.25 0.0639328858
H  H56  1  0.53624000  0.01622000  0.10401000  0.25 0.07107437
H  H57  1  0.52954000  0.19275000  0.09396000  0.25 0.0511689475
H  H58  1  0.47305000  0.15427000  0.93599000  0.25 0.0639328858
H  H59  1  0.52186000  0.35108000  0.14895000  0.25 0.0639328858
H  H60  1  0.53978000  0.35149000  0.24121000  0.25 0.07107437
H  H61  1  0.42523000  0.63040000  0.15133000  0.25 0.07107437
H  H62  1  0.37364000  0.58738000  0.23889000  0.25 0.07107437
H  H63  1  0.98575000  0.45644000  0.89881000  0.25 0.0753054554
H  H64  1  0.81004000  0.46290000  0.90846000  0.25 0.0511689475
H  H65  1  0.84133000  0.52430000  0.06615000  0.25 0.0639328858
H  H66  1  0.01622000  0.53624000  0.10401000  0.25 0.07107437
H  H67  1  0.19275000  0.52954000  0.09396000  0.25 0.0511689475
H  H68  1  0.15427000  0.47305000  0.93599000  0.25 0.0639328858
H  H69  1  0.35108000  0.52186000  0.14895000  0.25 0.0639328858
H  H70  1  0.35149000  0.53978000  0.24121000  0.25 0.07107437
H  H71  1  0.57477000  0.36960000  0.15133000  0.25 0.07107437
H  H72  1  0.62636000  0.41262000  0.23889000  0.25 0.07107437
H  H73  1  0.01425000  0.54356000  0.89881000  0.25 0.0753054554
H  H74  1  0.18996000  0.53710000  0.90846000  0.25 0.0511689475
H  H75  1  0.15867000  0.47570000  0.06615000  0.25 0.0639328858
H  H76  1  0.98378000  0.46376000  0.10401000  0.25 0.07107437
H  H77  1  0.80725000  0.47046000  0.09396000  0.25 0.0511689475
H  H78  1  0.84573000  0.52695000  0.93599000  0.25 0.0639328858
H  H79  1  0.64892000  0.47814000  0.14895000  0.25 0.0639328858
H  H80  1  0.64851000  0.46022000  0.24121000  0.25 0.07107437
H  H81  1  0.57477000  0.63040000  0.84867000  0.25 0.07107437
H  H82  1  0.62636000  0.58738000  0.76111000  0.25 0.07107437
H  H83  1  0.01425000  0.45644000  0.10119000  0.25 0.07107437
H  H84  1  0.18996000  0.46290000  0.09154000  0.25 0.0511689475
H  H85  1  0.15867000  0.52430000  0.93385000  0.25 0.0639328858
H  H86  1  0.98378000  0.53624000  0.89599000  0.25 0.07107437
H  H87  1  0.80725000  0.52954000  0.90604000  0.25 0.0511689475
H  H88  1  0.84573000  0.47305000  0.06401000  0.25 0.0639328858
H  H89  1  0.64892000  0.52186000  0.85105000  0.25 0.0639328858
H  H90  1  0.64851000  0.53978000  0.75879000  0.25 0.07107437
H  H91  1  0.42523000  0.36960000  0.84867000  0.25 0.07107437
H  H92  1  0.37364000  0.41262000  0.76111000  0.25 0.07107437
H  H93  1  0.98575000  0.54356000  0.10119000  0.25 0.07107437
H  H94  1  0.81004000  0.53710000  0.09154000  0.25 0.0511689475
H  H95  1  0.84133000  0.47570000  0.93385000  0.25 0.0639328858
H  H96  1  0.01622000  0.46376000  0.89599000  0.25 0.07107437
H  H97  1  0.19275000  0.47046000  0.90604000  0.25 0.0511689475
H  H98  1  0.15427000  0.52695000  0.06401000  0.25 0.0639328858
H  H99  1  0.35108000  0.47814000  0.85105000  0.25 0.0639328858
H  H100  1  0.35149000  0.46022000  0.75879000  0.25 0.07107437
H  H121  1  0.07477000  0.86960000  0.34867000  0.25 0.07107437
H  H122  1  0.12636000  0.91262000  0.26111000  0.25 0.07107437
H  H123  1  0.51425000  0.04356000  0.60119000  0.25 0.0753054554
H  H124  1  0.68996000  0.03710000  0.59154000  0.25 0.0511689475
H  H125  1  0.65867000  0.97570000  0.43385000  0.25 0.0639328858
H  H126  1  0.48378000  0.96376000  0.39599000  0.25 0.07107437
H  H127  1  0.30725000  0.97046000  0.40604000  0.25 0.0511689475
H  H128  1  0.34573000  0.02695000  0.56401000  0.25 0.0639328858
H  H129  1  0.14892000  0.97814000  0.35105000  0.25 0.0639328858
H  H130  1  0.14851000  0.96022000  0.25879000  0.25 0.07107437
H  H131  1  0.92523000  0.13040000  0.34867000  0.25 0.07107437
H  H132  1  0.87364000  0.08738000  0.26111000  0.25 0.07107437
H  H133  1  0.48575000  0.95644000  0.60119000  0.25 0.0753054554
H  H134  1  0.31004000  0.96290000  0.59154000  0.25 0.0511689475
H  H135  1  0.34133000  0.02430000  0.43385000  0.25 0.0639328858
H  H136  1  0.51622000  0.03624000  0.39599000  0.25 0.07107437
H  H137  1  0.69275000  0.02954000  0.40604000  0.25 0.0511689475
H  H138  1  0.65427000  0.97305000  0.56401000  0.25 0.0639328858
H  H139  1  0.85108000  0.02186000  0.35105000  0.25 0.0639328858
H  H140  1  0.85149000  0.03978000  0.25879000  0.25 0.07107437
H  H141  1  0.92523000  0.86960000  0.65133000  0.25 0.07107437
H  H142  1  0.87364000  0.91262000  0.73889000  0.25 0.07107437
H  H143  1  0.48575000  0.04356000  0.39881000  0.25 0.07107437
H  H144  1  0.31004000  0.03710000  0.40846000  0.25 0.0511689475
H  H145  1  0.34133000  0.97570000  0.56615000  0.25 0.0639328858
H  H146  1  0.51622000  0.96376000  0.60401000  0.25 0.07107437
H  H147  1  0.69275000  0.97046000  0.59396000  0.25 0.0511689475
H  H148  1  0.65427000  0.02695000  0.43599000  0.25 0.0639328858
H  H149  1  0.85108000  0.97814000  0.64895000  0.25 0.0639328858
H  H150  1  0.85149000  0.96022000  0.74121000  0.25 0.07107437
H  H151  1  0.07477000  0.13040000  0.65133000  0.25 0.07107437
H  H152  1  0.12636000  0.08738000  0.73889000  0.25 0.07107437
H  H153  1  0.51425000  0.95644000  0.39881000  0.25 0.07107437
H  H154  1  0.68996000  0.96290000  0.40846000  0.25 0.0511689475
H  H155  1  0.65867000  0.02430000  0.56615000  0.25 0.0639328858
H  H156  1  0.48378000  0.03624000  0.60401000  0.25 0.07107437
H  H157  1  0.30725000  0.02954000  0.59396000  0.25 0.0511689475
H  H158  1  0.34573000  0.97305000  0.43599000  0.25 0.0639328858
H  H159  1  0.14892000  0.02186000  0.64895000  0.25 0.0639328858
H  H160  1  0.14851000  0.03978000  0.74121000  0.25 0.07107437
H  H161  1  0.86960000  0.92523000  0.65133000  0.25 0.07107437
H  H162  1  0.91262000  0.87364000  0.73889000  0.25 0.07107437
H  H163  1  0.04356000  0.48575000  0.39881000  0.25 0.07107437
H  H164  1  0.03710000  0.31004000  0.40846000  0.25 0.0511689475
H  H165  1  0.97570000  0.34133000  0.56615000  0.25 0.0639328858
H  H166  1  0.96376000  0.51622000  0.60401000  0.25 0.07107437
H  H167  1  0.97046000  0.69275000  0.59396000  0.25 0.0511689475
H  H168  1  0.02695000  0.65427000  0.43599000  0.25 0.0639328858
H  H169  1  0.97814000  0.85108000  0.64895000  0.25 0.0639328858
H  H170  1  0.96022000  0.85149000  0.74121000  0.25 0.07107437
H  H171  1  0.13040000  0.07477000  0.65133000  0.25 0.07107437
H  H172  1  0.08738000  0.12636000  0.73889000  0.25 0.07107437
H  H173  1  0.95644000  0.51425000  0.39881000  0.25 0.07107437
H  H174  1  0.96290000  0.68996000  0.40846000  0.25 0.0511689475
H  H175  1  0.02430000  0.65867000  0.56615000  0.25 0.0639328858
H  H176  1  0.03624000  0.48378000  0.60401000  0.25 0.07107437
H  H177  1  0.02954000  0.30725000  0.59396000  0.25 0.0511689475
H  H178  1  0.97305000  0.34573000  0.43599000  0.25 0.0639328858
H  H179  1  0.02186000  0.14892000  0.64895000  0.25 0.0639328858
H  H180  1  0.03978000  0.14851000  0.74121000  0.25 0.07107437
H  H181  1  0.13040000  0.92523000  0.34867000  0.25 0.07107437
H  H182  1  0.08738000  0.87364000  0.26111000  0.25 0.07107437
H  H183  1  0.95644000  0.48575000  0.60119000  0.25 0.0753054554
H  H184  1  0.96290000  0.31004000  0.59154000  0.25 0.0511689475
H  H185  1  0.02430000  0.34133000  0.43385000  0.25 0.0639328858
H  H186  1  0.03624000  0.51622000  0.39599000  0.25 0.07107437
H  H187  1  0.02954000  0.69275000  0.40604000  0.25 0.0511689475
H  H188  1  0.97305000  0.65427000  0.56401000  0.25 0.0639328858
H  H189  1  0.02186000  0.85108000  0.35105000  0.25 0.0639328858
H  H190  1  0.03978000  0.85149000  0.25879000  0.25 0.07107437
H  H191  1  0.86960000  0.07477000  0.34867000  0.25 0.07107437
H  H192  1  0.91262000  0.12636000  0.26111000  0.25 0.07107437
H  H193  1  0.04356000  0.51425000  0.60119000  0.25 0.0753054554
H  H194  1  0.03710000  0.68996000  0.59154000  0.25 0.0511689475
H  H195  1  0.97570000  0.65867000  0.43385000  0.25 0.0639328858
H  H196  1  0.96376000  0.48378000  0.39599000  0.25 0.07107437
H  H197  1  0.97046000  0.30725000  0.40604000  0.25 0.0511689475
H  H198  1  0.02695000  0.34573000  0.56401000  0.25 0.0639328858
H  H199  1  0.97814000  0.14892000  0.35105000  0.25 0.0639328858
H  H200  1  0.96022000  0.14851000  0.25879000  0.25 0.07107437
Ru  Ru1  1  0.50000000  0.50000000  0.50000000  1.0 0.5186541984
Ru  Ru2  1  0.00000000  0.00000000  0.00000000  1.0 0.5186541984
C  C1  1  0.50000000  0.50000000  0.74810000  1.0 0.0369170802
C  C2  1  0.50000000  0.50000000  0.68900000  1.0 0.07107437
C  C3  1  0.50000000  0.50000000  0.25190000  1.0 0.0369170802
C  C4  1  0.50000000  0.50000000  0.31100000  1.0 0.07107437
C  C5  1  0.43650000  0.43650000  0.60524000  1.0 0.1800950403
C  C6  1  0.37330000  0.37330000  0.56882000  1.0 0.07107437
C  C7  1  0.33640000  0.33640000  0.47961000  1.0 -0.1091993469
C  C8  1  0.43500000  0.43500000  0.66094000  1.0 -0.3515072977
C  C9  1  0.30290000  0.30290000  0.58630000  1.0 -0.3071621833
C  C10  1  0.26420000  0.26420000  0.49520000  1.0 -0.3360808269
C  C11  1  0.24810000  0.24810000  0.54900000  1.0 -0.2384200832
C  C12  1  0.56350000  0.56350000  0.60524000  1.0 0.1800950403
C  C13  1  0.62670000  0.62670000  0.56882000  1.0 0.07107437
C  C14  1  0.66360000  0.66360000  0.47961000  1.0 -0.1091993469
C  C15  1  0.56500000  0.56500000  0.66094000  1.0 -0.3515072977
C  C16  1  0.69710000  0.69710000  0.58630000  1.0 -0.3071621833
C  C17  1  0.73580000  0.73580000  0.49520000  1.0 -0.3360808269
C  C18  1  0.75190000  0.75190000  0.54900000  1.0 -0.2384200832
C  C19  1  0.56350000  0.43650000  0.39476000  1.0 0.1800950403
C  C20  1  0.62670000  0.37330000  0.43118000  1.0 0.07107437
C  C21  1  0.66360000  0.33640000  0.52039000  1.0 -0.1091993469
C  C22  1  0.56500000  0.43500000  0.33906000  1.0 -0.3515072977
C  C23  1  0.69710000  0.30290000  0.41370000  1.0 -0.3071621833
C  C24  1  0.73580000  0.26420000  0.50480000  1.0 -0.3360808269
C  C25  1  0.75190000  0.24810000  0.45100000  1.0 -0.2384200832
C  C26  1  0.43650000  0.56350000  0.39476000  1.0 0.1800950403
C  C27  1  0.37330000  0.62670000  0.43118000  1.0 0.07107437
C  C28  1  0.33640000  0.66360000  0.52039000  1.0 -0.1091993469
C  C29  1  0.43500000  0.56500000  0.33906000  1.0 -0.3515072977
C  C30  1  0.30290000  0.69710000  0.41370000  1.0 -0.3071621833
C  C31  1  0.26420000  0.73580000  0.50480000  1.0 -0.3360808269
C  C32  1  0.24810000  0.75190000  0.45100000  1.0 -0.2384200832
C  C161  1  0.00000000  0.00000000  0.24810000  1.0 0.0369170802
C  C162  1  0.00000000  0.00000000  0.18900000  1.0 0.07107437
C  C163  1  0.00000000  0.00000000  0.75190000  1.0 0.0369170802
C  C164  1  0.00000000  0.00000000  0.81100000  1.0 0.07107437
C  C165  1  0.93650000  0.06350000  0.10524000  1.0 0.1800950403
C  C166  1  0.87330000  0.12670000  0.06882000  1.0 0.07107437
C  C167  1  0.83640000  0.16360000  0.97961000  1.0 -0.1091993469
C  C168  1  0.93500000  0.06500000  0.16094000  1.0 -0.3515072977
C  C169  1  0.80290000  0.19710000  0.08630000  1.0 -0.3071621833
C  C170  1  0.76420000  0.23580000  0.99520000  1.0 -0.3360808269
C  C171  1  0.74810000  0.25190000  0.04900000  1.0 -0.2384200832
C  C172  1  0.06350000  0.93650000  0.10524000  1.0 0.1800950403
C  C173  1  0.12670000  0.87330000  0.06882000  1.0 0.07107437
C  C174  1  0.16360000  0.83640000  0.97961000  1.0 -0.1091993469
C  C175  1  0.06500000  0.93500000  0.16094000  1.0 -0.3515072977
C  C176  1  0.19710000  0.80290000  0.08630000  1.0 -0.3071621833
C  C177  1  0.23580000  0.76420000  0.99520000  1.0 -0.3360808269
C  C178  1  0.25190000  0.74810000  0.04900000  1.0 -0.2384200832
C  C179  1  0.06350000  0.06350000  0.89476000  1.0 0.1800950403
C  C180  1  0.12670000  0.12670000  0.93118000  1.0 0.07107437
C  C181  1  0.16360000  0.16360000  0.02039000  1.0 -0.1091993469
C  C182  1  0.06500000  0.06500000  0.83906000  1.0 -0.3515072977
C  C183  1  0.19710000  0.19710000  0.91370000  1.0 -0.3071621833
C  C184  1  0.23580000  0.23580000  0.00480000  1.0 -0.3360808269
C  C185  1  0.25190000  0.25190000  0.95100000  1.0 -0.2384200832
C  C186  1  0.93650000  0.93650000  0.89476000  1.0 0.1800950403
C  C187  1  0.87330000  0.87330000  0.93118000  1.0 0.07107437
C  C188  1  0.83640000  0.83640000  0.02039000  1.0 -0.1091993469
C  C189  1  0.93500000  0.93500000  0.83906000  1.0 -0.3515072977
C  C190  1  0.80290000  0.80290000  0.91370000  1.0 -0.3071621833
C  C191  1  0.76420000  0.76420000  0.00480000  1.0 -0.3291315041
C  C192  1  0.74810000  0.74810000  0.95100000  1.0 -0.2384200832
C  C33  1  0.57200000  0.55100000  0.83170000  0.25 0.0024502042
C  C34  1  0.55800000  0.57000000  0.77750000  0.25 -0.0390377987
C  C35  1  0.50081000  0.69550000  0.99420000  0.25 0.4903486641
C  C36  1  0.50590000  0.30620000  0.00720000  0.25 0.4528499256
C  C37  1  0.47070000  0.04290000  0.06790000  0.25 -0.0390377987
C  C38  1  0.47410000  0.14790000  0.06210000  0.25 -0.0616937346
C  C39  1  0.49400000  0.19120000  0.01140000  0.25 0.0194810131
C  C40  1  0.51100000  0.12960000  0.96710000  0.25 0.0128368151
C  C41  1  0.50700000  0.02230000  0.97290000  0.25 -0.0023546761
C  C42  1  0.52330000  0.95620000  0.92960000  0.25 -0.0390377987
C  C43  1  0.52040000  0.85000000  0.93540000  0.25 -0.0616937346
C  C44  1  0.50300000  0.80980000  0.98640000  0.25 0.0194810131
C  C45  1  0.48600000  0.87360000  0.03040000  0.25 0.0194810131
C  C46  1  0.48900000  0.98000000  0.02360000  0.25 -0.0081456
C  C47  1  0.51530000  0.58780000  0.83240000  0.25 0.0024502042
C  C48  1  0.52150000  0.58900000  0.77670000  0.25 -0.0081456
C  C49  1  0.42800000  0.44900000  0.83170000  0.25 0.0024502042
C  C50  1  0.44200000  0.43000000  0.77750000  0.25 -0.0390377987
C  C51  1  0.49919000  0.30450000  0.99420000  0.25 0.4903486641
C  C52  1  0.49410000  0.69380000  0.00720000  0.25 0.4528499256
C  C53  1  0.52930000  0.95710000  0.06790000  0.25 -0.0390377987
C  C54  1  0.52590000  0.85210000  0.06210000  0.25 -0.0616937346
C  C55  1  0.50600000  0.80880000  0.01140000  0.25 0.0194810131
C  C56  1  0.48900000  0.87040000  0.96710000  0.25 0.0128368151
C  C57  1  0.49300000  0.97770000  0.97290000  0.25 -0.0023546761
C  C58  1  0.47670000  0.04380000  0.92960000  0.25 -0.0390377987
C  C59  1  0.47960000  0.15000000  0.93540000  0.25 -0.0616937346
C  C60  1  0.49700000  0.19020000  0.98640000  0.25 0.0194810131
C  C61  1  0.51400000  0.12640000  0.03040000  0.25 0.0194810131
C  C62  1  0.51100000  0.02000000  0.02360000  0.25 -0.0159429813
C  C63  1  0.48470000  0.41220000  0.83240000  0.25 0.0024502042
C  C64  1  0.47850000  0.41100000  0.77670000  0.25 -0.0081456
C  C65  1  0.42800000  0.55100000  0.16830000  0.25 0.0024502042
C  C66  1  0.44200000  0.57000000  0.22250000  0.25 -0.0390377987
C  C67  1  0.49919000  0.69550000  0.00580000  0.25 0.4903486641
C  C68  1  0.49410000  0.30620000  0.99280000  0.25 0.4528499256
C  C69  1  0.52930000  0.04290000  0.93210000  0.25 -0.0390377987
C  C70  1  0.52590000  0.14790000  0.93790000  0.25 -0.0616937346
C  C71  1  0.50600000  0.19120000  0.98860000  0.25 0.0194810131
C  C72  1  0.48900000  0.12960000  0.03290000  0.25 0.0128368151
C  C73  1  0.49300000  0.02230000  0.02710000  0.25 -0.0023546761
C  C74  1  0.47670000  0.95620000  0.07040000  0.25 -0.0390377987
C  C75  1  0.47960000  0.85000000  0.06460000  0.25 -0.0654749942
C  C76  1  0.49700000  0.80980000  0.01360000  0.25 0.0194810131
C  C77  1  0.51400000  0.87360000  0.96960000  0.25 0.0194810131
C  C78  1  0.51100000  0.98000000  0.97640000  0.25 -0.0159429813
C  C79  1  0.48470000  0.58780000  0.16760000  0.25 0.0024502042
C  C80  1  0.47850000  0.58900000  0.22330000  0.25 -0.0081456
C  C81  1  0.57200000  0.44900000  0.16830000  0.25 0.0024502042
C  C82  1  0.55800000  0.43000000  0.22250000  0.25 -0.0390377987
C  C83  1  0.50081000  0.30450000  0.00580000  0.25 0.4903486641
C  C84  1  0.50590000  0.69380000  0.99280000  0.25 0.4528499256
C  C85  1  0.47070000  0.95710000  0.93210000  0.25 -0.0390377987
C  C86  1  0.47410000  0.85210000  0.93790000  0.25 -0.0616937346
C  C87  1  0.49400000  0.80880000  0.98860000  0.25 0.0194810131
C  C88  1  0.51100000  0.87040000  0.03290000  0.25 0.0128368151
C  C89  1  0.50700000  0.97770000  0.02710000  0.25 -0.0023546761
C  C90  1  0.52330000  0.04380000  0.07040000  0.25 -0.0390377987
C  C91  1  0.52040000  0.15000000  0.06460000  0.25 -0.0654749942
C  C92  1  0.50300000  0.19020000  0.01360000  0.25 0.0194810131
C  C93  1  0.48600000  0.12640000  0.96960000  0.25 0.0194810131
C  C94  1  0.48900000  0.02000000  0.97640000  0.25 -0.0159429813
C  C95  1  0.51530000  0.41220000  0.16760000  0.25 0.0024502042
C  C96  1  0.52150000  0.41100000  0.22330000  0.25 -0.0081456
C  C97  1  0.44900000  0.57200000  0.16830000  0.25 0.0024502042
C  C98  1  0.43000000  0.55800000  0.22250000  0.25 -0.0390377987
C  C99  1  0.30450000  0.50081000  0.00580000  0.25 0.4903486641
C  C100  1  0.69380000  0.50590000  0.99280000  0.25 0.4528499256
C  C101  1  0.95710000  0.47070000  0.93210000  0.25 -0.0390377987
C  C102  1  0.85210000  0.47410000  0.93790000  0.25 -0.0616937346
C  C103  1  0.80880000  0.49400000  0.98860000  0.25 0.0194810131
C  C104  1  0.87040000  0.51100000  0.03290000  0.25 0.0128368151
C  C105  1  0.97770000  0.50700000  0.02710000  0.25 -0.0023546761
C  C106  1  0.04380000  0.52330000  0.07040000  0.25 -0.0390377987
C  C107  1  0.15000000  0.52040000  0.06460000  0.25 -0.0654749942
C  C108  1  0.19020000  0.50300000  0.01360000  0.25 0.0194810131
C  C109  1  0.12640000  0.48600000  0.96960000  0.25 0.0194810131
C  C110  1  0.02000000  0.48900000  0.97640000  0.25 -0.0159429813
C  C111  1  0.41220000  0.51530000  0.16760000  0.25 0.0024502042
C  C112  1  0.41100000  0.52150000  0.22330000  0.25 -0.0081456
C  C113  1  0.55100000  0.42800000  0.16830000  0.25 0.0024502042
C  C114  1  0.57000000  0.44200000  0.22250000  0.25 -0.0390377987
C  C115  1  0.69550000  0.49919000  0.00580000  0.25 0.4903486641
C  C116  1  0.30620000  0.49410000  0.99280000  0.25 0.4528499256
C  C117  1  0.04290000  0.52930000  0.93210000  0.25 -0.0390377987
C  C118  1  0.14790000  0.52590000  0.93790000  0.25 -0.0616937346
C  C119  1  0.19120000  0.50600000  0.98860000  0.25 0.0194810131
C  C120  1  0.12960000  0.48900000  0.03290000  0.25 0.0128368151
C  C121  1  0.02230000  0.49300000  0.02710000  0.25 -0.0023546761
C  C122  1  0.95620000  0.47670000  0.07040000  0.25 -0.0390377987
C  C123  1  0.85000000  0.47960000  0.06460000  0.25 -0.0654749942
C  C124  1  0.80980000  0.49700000  0.01360000  0.25 0.0194810131
C  C125  1  0.87360000  0.51400000  0.96960000  0.25 0.0194810131
C  C126  1  0.98000000  0.51100000  0.97640000  0.25 -0.0159429813
C  C127  1  0.58780000  0.48470000  0.16760000  0.25 0.0024502042
C  C128  1  0.58900000  0.47850000  0.22330000  0.25 -0.0081456
C  C129  1  0.55100000  0.57200000  0.83170000  0.25 0.0024502042
C  C130  1  0.57000000  0.55800000  0.77750000  0.25 -0.0390377987
C  C131  1  0.69550000  0.50081000  0.99420000  0.25 0.4903486641
C  C132  1  0.30620000  0.50590000  0.00720000  0.25 0.4528499256
C  C133  1  0.04290000  0.47070000  0.06790000  0.25 -0.0390377987
C  C134  1  0.14790000  0.47410000  0.06210000  0.25 -0.0616937346
C  C135  1  0.19120000  0.49400000  0.01140000  0.25 0.0194810131
C  C136  1  0.12960000  0.51100000  0.96710000  0.25 0.0128368151
C  C137  1  0.02230000  0.50700000  0.97290000  0.25 -0.0023546761
C  C138  1  0.95620000  0.52330000  0.92960000  0.25 -0.0390377987
C  C139  1  0.85000000  0.52040000  0.93540000  0.25 -0.0616937346
C  C140  1  0.80980000  0.50300000  0.98640000  0.25 0.0194810131
C  C141  1  0.87360000  0.48600000  0.03040000  0.25 0.0194810131
C  C142  1  0.98000000  0.48900000  0.02360000  0.25 -0.0081456
C  C143  1  0.58780000  0.51530000  0.83240000  0.25 0.0024502042
C  C144  1  0.58900000  0.52150000  0.77670000  0.25 -0.0081456
C  C145  1  0.44900000  0.42800000  0.83170000  0.25 0.0024502042
C  C146  1  0.43000000  0.44200000  0.77750000  0.25 -0.0390377987
C  C147  1  0.30450000  0.49919000  0.99420000  0.25 0.4903486641
C  C148  1  0.69380000  0.49410000  0.00720000  0.25 0.4528499256
C  C149  1  0.95710000  0.52930000  0.06790000  0.25 -0.0390377987
C  C150  1  0.85210000  0.52590000  0.06210000  0.25 -0.0616937346
C  C151  1  0.80880000  0.50600000  0.01140000  0.25 0.0194810131
C  C152  1  0.87040000  0.48900000  0.96710000  0.25 0.0128368151
C  C153  1  0.97770000  0.49300000  0.97290000  0.25 -0.0023546761
C  C154  1  0.04380000  0.47670000  0.92960000  0.25 -0.0390377987
C  C155  1  0.15000000  0.47960000  0.93540000  0.25 -0.0654749942
C  C156  1  0.19020000  0.49700000  0.98640000  0.25 0.0194810131
C  C157  1  0.12640000  0.51400000  0.03040000  0.25 0.0194810131
C  C158  1  0.02000000  0.51100000  0.02360000  0.25 -0.0159429813
C  C159  1  0.41220000  0.48470000  0.83240000  0.25 0.0024502042
C  C160  1  0.41100000  0.47850000  0.77670000  0.25 -0.0081456
C  C193  1  0.05100000  0.92800000  0.33170000  0.25 0.0024502042
C  C194  1  0.07000000  0.94200000  0.27750000  0.25 -0.0390377987
C  C195  1  0.19550000  0.99919000  0.49420000  0.25 0.4903486641
C  C196  1  0.80620000  0.99410000  0.50720000  0.25 0.4528499256
C  C197  1  0.54290000  0.02930000  0.56790000  0.25 -0.0390377987
C  C198  1  0.64790000  0.02590000  0.56210000  0.25 -0.0616937346
C  C199  1  0.69120000  0.00600000  0.51140000  0.25 0.0194810131
C  C200  1  0.62960000  0.98900000  0.46710000  0.25 0.0128368151
C  C201  1  0.52230000  0.99300000  0.47290000  0.25 -0.0023546761
C  C202  1  0.45620000  0.97670000  0.42960000  0.25 -0.0390377987
C  C203  1  0.35000000  0.97960000  0.43540000  0.25 -0.0654749942
C  C204  1  0.30980000  0.99700000  0.48640000  0.25 0.0194810131
C  C205  1  0.37360000  0.01400000  0.53040000  0.25 0.0194810131
C  C206  1  0.48000000  0.01100000  0.52360000  0.25 -0.0159429813
C  C207  1  0.08780000  0.98470000  0.33240000  0.25 0.0024502042
C  C208  1  0.08900000  0.97850000  0.27670000  0.25 -0.0081456
C  C209  1  0.94900000  0.07200000  0.33170000  0.25 0.0024502042
C  C210  1  0.93000000  0.05800000  0.27750000  0.25 -0.0390377987
C  C211  1  0.80450000  0.00081000  0.49420000  0.25 0.4903486641
C  C212  1  0.19380000  0.00590000  0.50720000  0.25 0.4528499256
C  C213  1  0.45710000  0.97070000  0.56790000  0.25 -0.0390377987
C  C214  1  0.35210000  0.97410000  0.56210000  0.25 -0.0616937346
C  C215  1  0.30880000  0.99400000  0.51140000  0.25 0.0194810131
C  C216  1  0.37040000  0.01100000  0.46710000  0.25 0.0128368151
C  C217  1  0.47770000  0.00700000  0.47290000  0.25 -0.0023546761
C  C218  1  0.54380000  0.02330000  0.42960000  0.25 -0.0390377987
C  C219  1  0.65000000  0.02040000  0.43540000  0.25 -0.0616937346
C  C220  1  0.69020000  0.00300000  0.48640000  0.25 0.0194810131
C  C221  1  0.62640000  0.98600000  0.53040000  0.25 0.0194810131
C  C222  1  0.52000000  0.98900000  0.52360000  0.25 -0.0159429813
C  C223  1  0.91220000  0.01530000  0.33240000  0.25 0.0024502042
C  C224  1  0.91100000  0.02150000  0.27670000  0.25 -0.0081456
C  C225  1  0.94900000  0.92800000  0.66830000  0.25 0.0024502042
C  C226  1  0.93000000  0.94200000  0.72250000  0.25 -0.0390377987
C  C227  1  0.80450000  0.99919000  0.50580000  0.25 0.4903486641
C  C228  1  0.19380000  0.99410000  0.49280000  0.25 0.4528499256
C  C229  1  0.45710000  0.02930000  0.43210000  0.25 -0.0390377987
C  C230  1  0.35210000  0.02590000  0.43790000  0.25 -0.0616937346
C  C231  1  0.30880000  0.00600000  0.48860000  0.25 0.0194810131
C  C232  1  0.37040000  0.98900000  0.53290000  0.25 0.0128368151
C  C233  1  0.47770000  0.99300000  0.52710000  0.25 -0.0023546761
C  C234  1  0.54380000  0.97670000  0.57040000  0.25 -0.0390377987
C  C235  1  0.65000000  0.97960000  0.56460000  0.25 -0.0654749942
C  C236  1  0.69020000  0.99700000  0.51360000  0.25 0.0194810131
C  C237  1  0.62640000  0.01400000  0.46960000  0.25 0.0194810131
C  C238  1  0.52000000  0.01100000  0.47640000  0.25 -0.0159429813
C  C239  1  0.91220000  0.98470000  0.66760000  0.25 0.0024502042
C  C240  1  0.91100000  0.97850000  0.72330000  0.25 -0.0081456
C  C241  1  0.05100000  0.07200000  0.66830000  0.25 0.0024502042
C  C242  1  0.07000000  0.05800000  0.72250000  0.25 -0.0390377987
C  C243  1  0.19550000  0.00081000  0.50580000  0.25 0.4903486641
C  C244  1  0.80620000  0.00590000  0.49280000  0.25 0.4528499256
C  C245  1  0.54290000  0.97070000  0.43210000  0.25 -0.0390377987
C  C246  1  0.64790000  0.97410000  0.43790000  0.25 -0.0616937346
C  C247  1  0.69120000  0.99400000  0.48860000  0.25 0.0194810131
C  C248  1  0.62960000  0.01100000  0.53290000  0.25 0.0128368151
C  C249  1  0.52230000  0.00700000  0.52710000  0.25 -0.0023546761
C  C250  1  0.45620000  0.02330000  0.57040000  0.25 -0.0390377987
C  C251  1  0.35000000  0.02040000  0.56460000  0.25 -0.0654749942
C  C252  1  0.30980000  0.00300000  0.51360000  0.25 0.0194810131
C  C253  1  0.37360000  0.98600000  0.46960000  0.25 0.0194810131
C  C254  1  0.48000000  0.98900000  0.47640000  0.25 -0.0159429813
C  C255  1  0.08780000  0.01530000  0.66760000  0.25 0.0024502042
C  C256  1  0.08900000  0.02150000  0.72330000  0.25 -0.0081456
C  C257  1  0.92800000  0.94900000  0.66830000  0.25 0.0024502042
C  C258  1  0.94200000  0.93000000  0.72250000  0.25 -0.0390377987
C  C259  1  0.99919000  0.80450000  0.50580000  0.25 0.4903486641
C  C260  1  0.99410000  0.19380000  0.49280000  0.25 0.4528499256
C  C261  1  0.02930000  0.45710000  0.43210000  0.25 -0.0390377987
C  C262  1  0.02590000  0.35210000  0.43790000  0.25 -0.0616937346
C  C263  1  0.00600000  0.30880000  0.48860000  0.25 0.0194810131
C  C264  1  0.98900000  0.37040000  0.53290000  0.25 0.0128368151
C  C265  1  0.99300000  0.47770000  0.52710000  0.25 -0.0023546761
C  C266  1  0.97670000  0.54380000  0.57040000  0.25 -0.0390377987
C  C267  1  0.97960000  0.65000000  0.56460000  0.25 -0.0616937346
C  C268  1  0.99700000  0.69020000  0.51360000  0.25 0.0194810131
C  C269  1  0.01400000  0.62640000  0.46960000  0.25 0.0194810131
C  C270  1  0.01100000  0.52000000  0.47640000  0.25 -0.0159429813
C  C271  1  0.98470000  0.91220000  0.66760000  0.25 0.0024502042
C  C272  1  0.97850000  0.91100000  0.72330000  0.25 -0.0081456
C  C273  1  0.07200000  0.05100000  0.66830000  0.25 0.0024502042
C  C274  1  0.05800000  0.07000000  0.72250000  0.25 -0.0390377987
C  C275  1  0.00081000  0.19550000  0.50580000  0.25 0.4903486641
C  C276  1  0.00590000  0.80620000  0.49280000  0.25 0.4528499256
C  C277  1  0.97070000  0.54290000  0.43210000  0.25 -0.0390377987
C  C278  1  0.97410000  0.64790000  0.43790000  0.25 -0.0616937346
C  C279  1  0.99400000  0.69120000  0.48860000  0.25 0.0194810131
C  C280  1  0.01100000  0.62960000  0.53290000  0.25 0.0128368151
C  C281  1  0.00700000  0.52230000  0.52710000  0.25 -0.0023546761
C  C282  1  0.02330000  0.45620000  0.57040000  0.25 -0.0390377987
C  C283  1  0.02040000  0.35000000  0.56460000  0.25 -0.0654749942
C  C284  1  0.00300000  0.30980000  0.51360000  0.25 0.0194810131
C  C285  1  0.98600000  0.37360000  0.46960000  0.25 0.0194810131
C  C286  1  0.98900000  0.48000000  0.47640000  0.25 -0.0159429813
C  C287  1  0.01530000  0.08780000  0.66760000  0.25 0.0024502042
C  C288  1  0.02150000  0.08900000  0.72330000  0.25 -0.0081456
C  C289  1  0.07200000  0.94900000  0.33170000  0.25 0.0024502042
C  C290  1  0.05800000  0.93000000  0.27750000  0.25 -0.0390377987
C  C291  1  0.00081000  0.80450000  0.49420000  0.25 0.4903486641
C  C292  1  0.00590000  0.19380000  0.50720000  0.25 0.4528499256
C  C293  1  0.97070000  0.45710000  0.56790000  0.25 -0.0390377987
C  C294  1  0.97410000  0.35210000  0.56210000  0.25 -0.0616937346
C  C295  1  0.99400000  0.30880000  0.51140000  0.25 0.0194810131
C  C296  1  0.01100000  0.37040000  0.46710000  0.25 0.0128368151
C  C297  1  0.00700000  0.47770000  0.47290000  0.25 -0.0023546761
C  C298  1  0.02330000  0.54380000  0.42960000  0.25 -0.0390377987
C  C299  1  0.02040000  0.65000000  0.43540000  0.25 -0.0654749942
C  C300  1  0.00300000  0.69020000  0.48640000  0.25 0.0194810131
C  C301  1  0.98600000  0.62640000  0.53040000  0.25 0.0194810131
C  C302  1  0.98900000  0.52000000  0.52360000  0.25 -0.0159429813
C  C303  1  0.01530000  0.91220000  0.33240000  0.25 0.0024502042
C  C304  1  0.02150000  0.91100000  0.27670000  0.25 -0.0081456
C  C305  1  0.92800000  0.05100000  0.33170000  0.25 0.0024502042
C  C306  1  0.94200000  0.07000000  0.27750000  0.25 -0.0390377987
C  C307  1  0.99919000  0.19550000  0.49420000  0.25 0.4903486641
C  C308  1  0.99410000  0.80620000  0.50720000  0.25 0.4528499256
C  C309  1  0.02930000  0.54290000  0.56790000  0.25 -0.0390377987
C  C310  1  0.02590000  0.64790000  0.56210000  0.25 -0.0616937346
C  C311  1  0.00600000  0.69120000  0.51140000  0.25 0.0194810131
C  C312  1  0.98900000  0.62960000  0.46710000  0.25 0.0128368151
C  C313  1  0.99300000  0.52230000  0.47290000  0.25 -0.0023546761
C  C314  1  0.97670000  0.45620000  0.42960000  0.25 -0.0390377987
C  C315  1  0.97960000  0.35000000  0.43540000  0.25 -0.0616937346
C  C316  1  0.99700000  0.30980000  0.48640000  0.25 0.0194810131
C  C317  1  0.01400000  0.37360000  0.53040000  0.25 0.0194810131
C  C318  1  0.01100000  0.48000000  0.52360000  0.25 -0.0159429813
C  C319  1  0.98470000  0.08780000  0.33240000  0.25 0.0024502042
C  C320  1  0.97850000  0.08900000  0.27670000  0.25 -0.0081456
N  N1  1  0.50000000  0.50000000  0.86030000  1.0 -0.1235677963
N  N2  1  0.50000000  0.50000000  0.57870000  1.0 -0.2384200832
N  N3  1  0.50000000  0.50000000  0.13970000  1.0 -0.1235677963
N  N4  1  0.50000000  0.50000000  0.42130000  1.0 -0.2384200832
N  N5  1  0.39045000  0.39045000  0.51578000  1.0 -0.0475239516
N  N6  1  0.60955000  0.60955000  0.51578000  1.0 -0.0475239516
N  N7  1  0.60955000  0.39045000  0.48422000  1.0 -0.0475239516
N  N8  1  0.39045000  0.60955000  0.48422000  1.0 -0.0475239516
N  N9  1  0.00000000  0.00000000  0.36030000  1.0 -0.1235677963
N  N10  1  0.00000000  0.00000000  0.07870000  1.0 -0.2384200832
N  N11  1  0.00000000  0.00000000  0.63970000  1.0 -0.1235677963
N  N12  1  0.00000000  0.00000000  0.92130000  1.0 -0.2384200832
N  N13  1  0.89045000  0.10955000  0.01578000  1.0 -0.0475239516
N  N14  1  0.10955000  0.89045000  0.01578000  1.0 -0.0475239516
N  N15  1  0.10955000  0.10955000  0.98422000  1.0 -0.0475239516
N  N16  1  0.89045000  0.89045000  0.98422000  1.0 -0.0475239516
O  O1  1  0.50348000  0.64300000  0.95370000  0.25 -0.4121387144
O  O2  1  0.50980000  0.34340000  0.96240000  0.25 -0.303275588
O  O3  1  0.50310000  0.35490000  0.04910000  0.25 -0.4121387144
O  O4  1  0.49685000  0.66470000  0.04040000  0.25 -0.3291315041
O  O5  1  0.49652000  0.35700000  0.95370000  0.25 -0.4121387144
O  O6  1  0.49020000  0.65660000  0.96240000  0.25 -0.303275588
O  O7  1  0.49690000  0.64510000  0.04910000  0.25 -0.4121387144
O  O8  1  0.50315000  0.33530000  0.04040000  0.25 -0.3291315041
O  O9  1  0.49652000  0.64300000  0.04630000  0.25 -0.4121387144
O  O10  1  0.49020000  0.34340000  0.03760000  0.25 -0.303275588
O  O11  1  0.49690000  0.35490000  0.95090000  0.25 -0.4121387144
O  O12  1  0.50315000  0.66470000  0.95960000  0.25 -0.3291315041
O  O13  1  0.50348000  0.35700000  0.04630000  0.25 -0.4121387144
O  O14  1  0.50980000  0.65660000  0.03760000  0.25 -0.303275588
O  O15  1  0.50310000  0.64510000  0.95090000  0.25 -0.4121387144
O  O16  1  0.49685000  0.33530000  0.95960000  0.25 -0.3291315041
O  O17  1  0.35700000  0.50348000  0.04630000  0.25 -0.4121387144
O  O18  1  0.65660000  0.50980000  0.03760000  0.25 -0.303275588
O  O19  1  0.64510000  0.50310000  0.95090000  0.25 -0.4121387144
O  O20  1  0.33530000  0.49685000  0.95960000  0.25 -0.3291315041
O  O21  1  0.64300000  0.49652000  0.04630000  0.25 -0.4121387144
O  O22  1  0.34340000  0.49020000  0.03760000  0.25 -0.303275588
O  O23  1  0.35490000  0.49690000  0.95090000  0.25 -0.4121387144
O  O24  1  0.66470000  0.50315000  0.95960000  0.25 -0.3291315041
O  O25  1  0.64300000  0.50348000  0.95370000  0.25 -0.4121387144
O  O26  1  0.34340000  0.50980000  0.96240000  0.25 -0.303275588
O  O27  1  0.35490000  0.50310000  0.04910000  0.25 -0.4121387144
O  O28  1  0.66470000  0.49685000  0.04040000  0.25 -0.3291315041
O  O29  1  0.35700000  0.49652000  0.95370000  0.25 -0.4121387144
O  O30  1  0.65660000  0.49020000  0.96240000  0.25 -0.303275588
O  O31  1  0.64510000  0.49690000  0.04910000  0.25 -0.4121387144
O  O32  1  0.33530000  0.50315000  0.04040000  0.25 -0.3291315041
O  O33  1  0.14300000  0.99652000  0.45370000  0.25 -0.4121387144
O  O34  1  0.84340000  0.99020000  0.46240000  0.25 -0.303275588
O  O35  1  0.85490000  0.99690000  0.54910000  0.25 -0.4121387144
O  O36  1  0.16470000  0.00315000  0.54040000  0.25 -0.3291315041
O  O37  1  0.85700000  0.00348000  0.45370000  0.25 -0.4121387144
O  O38  1  0.15660000  0.00980000  0.46240000  0.25 -0.303275588
O  O39  1  0.14510000  0.00310000  0.54910000  0.25 -0.4121387144
O  O40  1  0.83530000  0.99685000  0.54040000  0.25 -0.3291315041
O  O41  1  0.85700000  0.99652000  0.54630000  0.25 -0.4121387144
O  O42  1  0.15660000  0.99020000  0.53760000  0.25 -0.303275588
O  O43  1  0.14510000  0.99690000  0.45090000  0.25 -0.4121387144
O  O44  1  0.83530000  0.00315000  0.45960000  0.25 -0.3291315041
O  O45  1  0.14300000  0.00348000  0.54630000  0.25 -0.4121387144
O  O46  1  0.84340000  0.00980000  0.53760000  0.25 -0.303275588
O  O47  1  0.85490000  0.00310000  0.45090000  0.25 -0.4121387144
O  O48  1  0.16470000  0.99685000  0.45960000  0.25 -0.3291315041
O  O49  1  0.99652000  0.85700000  0.54630000  0.25 -0.4121387144
O  O50  1  0.99020000  0.15660000  0.53760000  0.25 -0.303275588
O  O51  1  0.99690000  0.14510000  0.45090000  0.25 -0.4121387144
O  O52  1  0.00315000  0.83530000  0.45960000  0.25 -0.3291315041
O  O53  1  0.00348000  0.14300000  0.54630000  0.25 -0.4121387144
O  O54  1  0.00980000  0.84340000  0.53760000  0.25 -0.303275588
O  O55  1  0.00310000  0.85490000  0.45090000  0.25 -0.4121387144
O  O56  1  0.99685000  0.16470000  0.45960000  0.25 -0.3291315041
O  O57  1  0.00348000  0.85700000  0.45370000  0.25 -0.4121387144
O  O58  1  0.00980000  0.15660000  0.46240000  0.25 -0.303275588
O  O59  1  0.00310000  0.14510000  0.54910000  0.25 -0.4121387144
O  O60  1  0.99685000  0.83530000  0.54040000  0.25 -0.3291315041
O  O61  1  0.99652000  0.14300000  0.45370000  0.25 -0.4121387144
O  O62  1  0.99020000  0.84340000  0.46240000  0.25 -0.303275588
O  O63  1  0.99690000  0.85490000  0.54910000  0.25 -0.4121387144
O  O64  1  0.00315000  0.16470000  0.54040000  0.25 -0.3291315041
