# DDEC6 charges by PACMAN v1.1 (https://github.com/mtap-research/PACMAN-charge/)
data_c8ta02857e2_FSR_pacman
_symmetry_space_group_name_H-M   'P 1'
_cell_length_a   9.55000000
_cell_length_b   27.89170000
_cell_length_c   28.65960000
_cell_angle_alpha   90.00000000
_cell_angle_beta   90.00000000
_cell_angle_gamma   90.00000000
_symmetry_Int_Tables_number   1
_chemical_formula_structural   ZnH21C27N7O
_chemical_formula_sum   'Zn8 H168 C216 N56 O8'
_cell_volume   7633.93541881
_cell_formula_units_Z   8
loop_
 _symmetry_equiv_pos_site_id
 _symmetry_equiv_pos_as_xyz
  1  'x, y, z'
loop_
 _atom_site_type_symbol
 _atom_site_label
 _atom_site_symmetry_multiplicity
 _atom_site_fract_x
 _atom_site_fract_y
 _atom_site_fract_z
 _atom_site_occupancy
 _atom_site_charge
Zn  Zn1  1  0.09816000  0.48998000  0.86904000  1.0 0.6418775902
Zn  Zn2  1  0.40184000  0.98998000  0.63096000  1.0 0.6418775902
Zn  Zn3  1  0.90184000  0.48998000  0.36904000  1.0 0.6418775902
Zn  Zn4  1  0.59816000  0.98998000  0.13096000  1.0 0.6418775902
Zn  Zn5  1  0.09816000  0.51002000  0.63096000  1.0 0.6418775902
Zn  Zn6  1  0.40184000  0.01002000  0.86904000  1.0 0.6418775902
Zn  Zn7  1  0.90184000  0.51002000  0.13096000  1.0 0.6418775902
Zn  Zn8  1  0.59816000  0.01002000  0.36904000  1.0 0.6418775902
H  H1  1  0.50400000  0.69850000  0.05820000  1.0 0.117463531
H  H2  1  0.59490000  0.77440000  0.04700000  1.0 0.117463531
H  H3  1  0.76180000  0.83850000  0.05190000  1.0 0.117463531
H  H4  1  0.51100000  0.88500000  0.15180000  1.0 0.1112672998
H  H5  1  0.22430000  0.69630000  0.07570000  1.0 0.117463531
H  H6  1  0.78680000  0.92510000  0.05910000  1.0 0.1112672998
H  H7  1  0.10440000  0.66140000  0.01530000  1.0 0.117463531
H  H8  1  0.65160000  0.64990000  0.16620000  1.0 0.1112672998
H  H9  1  0.52280000  0.80470000  0.18190000  1.0 0.1298494856
H  H10  1  0.79800000  0.54390000  0.27760000  1.0 0.1112672998
H  H11  1  0.25330000  0.53330000  0.05190000  1.0 0.117463531
H  H12  1  0.42920000  0.72890000  0.19160000  1.0 0.1298494856
H  H13  1  0.38440000  0.56930000  0.10990000  1.0 0.117463531
H  H14  1  0.23640000  0.52590000  0.96270000  1.0 0.1020265506
H  H15  1  0.73150000  0.60860000  0.23100000  1.0 0.117463531
H  H16  1  0.86240000  0.55710000  0.91670000  1.0 0.1298494856
H  H17  1  0.90220000  0.60510000  0.98490000  1.0 0.117463531
H  H18  1  0.34180000  0.56660000  0.25800000  1.0 0.1298494856
H  H19  1  0.26420000  0.60700000  0.19260000  1.0 0.1298494856
H  H20  1  0.41930000  0.54810000  0.33210000  1.0 0.1298494856
H  H21  1  0.57870000  0.50490000  0.38440000  1.0 0.1112672998
H  H22  1  0.99600000  0.19850000  0.44180000  1.0 0.117463531
H  H23  1  0.90510000  0.27440000  0.45300000  1.0 0.117463531
H  H24  1  0.73820000  0.33850000  0.44810000  1.0 0.117463531
H  H25  1  0.98900000  0.38500000  0.34820000  1.0 0.1112672998
H  H26  1  0.27570000  0.19630000  0.42430000  1.0 0.117463531
H  H27  1  0.71320000  0.42510000  0.44090000  1.0 0.1112672998
H  H28  1  0.39560000  0.16140000  0.48470000  1.0 0.117463531
H  H29  1  0.84840000  0.14990000  0.33380000  1.0 0.1112672998
H  H30  1  0.97720000  0.30470000  0.31810000  1.0 0.1298494856
H  H31  1  0.70200000  0.04390000  0.22240000  1.0 0.1112672998
H  H32  1  0.24670000  0.03330000  0.44810000  1.0 0.117463531
H  H33  1  0.07080000  0.22890000  0.30840000  1.0 0.1298494856
H  H34  1  0.11560000  0.06930000  0.39010000  1.0 0.117463531
H  H35  1  0.26360000  0.02590000  0.53730000  1.0 0.1020265506
H  H36  1  0.76850000  0.10860000  0.26900000  1.0 0.117463531
H  H37  1  0.63760000  0.05710000  0.58330000  1.0 0.1298494856
H  H38  1  0.59780000  0.10510000  0.51510000  1.0 0.117463531
H  H39  1  0.15820000  0.06660000  0.24200000  1.0 0.1298494856
H  H40  1  0.23580000  0.10700000  0.30740000  1.0 0.1298494856
H  H41  1  0.08070000  0.04810000  0.16790000  1.0 0.1298494856
H  H42  1  0.92130000  0.00490000  0.11560000  1.0 0.1112672998
H  H43  1  0.49600000  0.69850000  0.55820000  1.0 0.117463531
H  H44  1  0.40510000  0.77440000  0.54700000  1.0 0.117463531
H  H45  1  0.23820000  0.83850000  0.55190000  1.0 0.117463531
H  H46  1  0.48900000  0.88500000  0.65180000  1.0 0.1112672998
H  H47  1  0.77570000  0.69630000  0.57570000  1.0 0.117463531
H  H48  1  0.21320000  0.92510000  0.55910000  1.0 0.1112672998
H  H49  1  0.89560000  0.66140000  0.51530000  1.0 0.1112672998
H  H50  1  0.34840000  0.64990000  0.66620000  1.0 0.1112672998
H  H51  1  0.47720000  0.80470000  0.68190000  1.0 0.1298494856
H  H52  1  0.20200000  0.54390000  0.77760000  1.0 0.1112672998
H  H53  1  0.74670000  0.53330000  0.55190000  1.0 0.117463531
H  H54  1  0.57080000  0.72890000  0.69160000  1.0 0.1298494856
H  H55  1  0.61560000  0.56930000  0.60990000  1.0 0.117463531
H  H56  1  0.76360000  0.52590000  0.46270000  1.0 0.1020265506
H  H57  1  0.26850000  0.60860000  0.73100000  1.0 0.117463531
H  H58  1  0.13760000  0.55710000  0.41670000  1.0 0.1298494856
H  H59  1  0.09780000  0.60510000  0.48490000  1.0 0.117463531
H  H60  1  0.65820000  0.56660000  0.75800000  1.0 0.1298494856
H  H61  1  0.73580000  0.60700000  0.69260000  1.0 0.1298494856
H  H62  1  0.58070000  0.54810000  0.83210000  1.0 0.1298494856
H  H63  1  0.42130000  0.50490000  0.88440000  1.0 0.1112672998
H  H64  1  0.00400000  0.19850000  0.94180000  1.0 0.117463531
H  H65  1  0.09490000  0.27440000  0.95300000  1.0 0.117463531
H  H66  1  0.26180000  0.33850000  0.94810000  1.0 0.117463531
H  H67  1  0.01100000  0.38500000  0.84820000  1.0 0.1112672998
H  H68  1  0.72430000  0.19630000  0.92430000  1.0 0.117463531
H  H69  1  0.28680000  0.42510000  0.94090000  1.0 0.1112672998
H  H70  1  0.60440000  0.16140000  0.98470000  1.0 0.117463531
H  H71  1  0.15160000  0.14990000  0.83380000  1.0 0.1112672998
H  H72  1  0.02280000  0.30470000  0.81810000  1.0 0.1298494856
H  H73  1  0.29800000  0.04390000  0.72240000  1.0 0.1112672998
H  H74  1  0.75330000  0.03330000  0.94810000  1.0 0.117463531
H  H75  1  0.92920000  0.22890000  0.80840000  1.0 0.1298494856
H  H76  1  0.88440000  0.06930000  0.89010000  1.0 0.117463531
H  H77  1  0.73640000  0.02590000  0.03730000  1.0 0.1020265506
H  H78  1  0.23150000  0.10860000  0.76900000  1.0 0.117463531
H  H79  1  0.36240000  0.05710000  0.08330000  1.0 0.1298494856
H  H80  1  0.40220000  0.10510000  0.01510000  1.0 0.117463531
H  H81  1  0.84180000  0.06660000  0.74200000  1.0 0.1298494856
H  H82  1  0.76420000  0.10700000  0.80740000  1.0 0.1298494856
H  H83  1  0.91930000  0.04810000  0.66790000  1.0 0.1298494856
H  H84  1  0.07870000  0.00490000  0.61560000  1.0 0.1112672998
H  H85  1  0.50400000  0.30150000  0.44180000  1.0 0.117463531
H  H86  1  0.59490000  0.22560000  0.45300000  1.0 0.117463531
H  H87  1  0.76180000  0.16150000  0.44810000  1.0 0.117463531
H  H88  1  0.51100000  0.11500000  0.34820000  1.0 0.1112672998
H  H89  1  0.22430000  0.30370000  0.42430000  1.0 0.117463531
H  H90  1  0.78680000  0.07490000  0.44090000  1.0 0.1112672998
H  H91  1  0.10440000  0.33860000  0.48470000  1.0 0.117463531
H  H92  1  0.65160000  0.35010000  0.33380000  1.0 0.1112672998
H  H93  1  0.52280000  0.19530000  0.31810000  1.0 0.1298494856
H  H94  1  0.79800000  0.45610000  0.22240000  1.0 0.1112672998
H  H95  1  0.25330000  0.46670000  0.44810000  1.0 0.117463531
H  H96  1  0.42920000  0.27110000  0.30840000  1.0 0.1298494856
H  H97  1  0.38440000  0.43070000  0.39010000  1.0 0.117463531
H  H98  1  0.23640000  0.47410000  0.53730000  1.0 0.1020265506
H  H99  1  0.73150000  0.39140000  0.26900000  1.0 0.117463531
H  H100  1  0.86240000  0.44290000  0.58330000  1.0 0.1298494856
H  H101  1  0.90220000  0.39490000  0.51510000  1.0 0.117463531
H  H102  1  0.34180000  0.43340000  0.24200000  1.0 0.1298494856
H  H103  1  0.26420000  0.39300000  0.30740000  1.0 0.1298494856
H  H104  1  0.41930000  0.45190000  0.16790000  1.0 0.1298494856
H  H105  1  0.57870000  0.49510000  0.11560000  1.0 0.1112672998
H  H106  1  0.99600000  0.80150000  0.05820000  1.0 0.117463531
H  H107  1  0.90510000  0.72560000  0.04700000  1.0 0.117463531
H  H108  1  0.73820000  0.66150000  0.05190000  1.0 0.117463531
H  H109  1  0.98900000  0.61500000  0.15180000  1.0 0.1112672998
H  H110  1  0.27570000  0.80370000  0.07570000  1.0 0.117463531
H  H111  1  0.71320000  0.57490000  0.05910000  1.0 0.1112672998
H  H112  1  0.39560000  0.83860000  0.01530000  1.0 0.117463531
H  H113  1  0.84840000  0.85010000  0.16620000  1.0 0.1112672998
H  H114  1  0.97720000  0.69530000  0.18190000  1.0 0.1298494856
H  H115  1  0.70200000  0.95610000  0.27760000  1.0 0.1112672998
H  H116  1  0.24670000  0.96670000  0.05190000  1.0 0.117463531
H  H117  1  0.07080000  0.77110000  0.19160000  1.0 0.1298494856
H  H118  1  0.11560000  0.93070000  0.10990000  1.0 0.117463531
H  H119  1  0.26360000  0.97410000  0.96270000  1.0 0.1020265506
H  H120  1  0.76850000  0.89140000  0.23100000  1.0 0.117463531
H  H121  1  0.63760000  0.94290000  0.91670000  1.0 0.1298494856
H  H122  1  0.59780000  0.89490000  0.98490000  1.0 0.117463531
H  H123  1  0.15820000  0.93340000  0.25800000  1.0 0.1298494856
H  H124  1  0.23580000  0.89300000  0.19260000  1.0 0.1298494856
H  H125  1  0.08070000  0.95190000  0.33210000  1.0 0.1298494856
H  H126  1  0.92130000  0.99510000  0.38440000  1.0 0.1112672998
H  H127  1  0.49600000  0.30150000  0.94180000  1.0 0.117463531
H  H128  1  0.40510000  0.22560000  0.95300000  1.0 0.117463531
H  H129  1  0.23820000  0.16150000  0.94810000  1.0 0.117463531
H  H130  1  0.48900000  0.11500000  0.84820000  1.0 0.1112672998
H  H131  1  0.77570000  0.30370000  0.92430000  1.0 0.117463531
H  H132  1  0.21320000  0.07490000  0.94090000  1.0 0.1112672998
H  H133  1  0.89560000  0.33860000  0.98470000  1.0 0.117463531
H  H134  1  0.34840000  0.35010000  0.83380000  1.0 0.1112672998
H  H135  1  0.47720000  0.19530000  0.81810000  1.0 0.1298494856
H  H136  1  0.20200000  0.45610000  0.72240000  1.0 0.1112672998
H  H137  1  0.74670000  0.46670000  0.94810000  1.0 0.117463531
H  H138  1  0.57080000  0.27110000  0.80840000  1.0 0.1298494856
H  H139  1  0.61560000  0.43070000  0.89010000  1.0 0.117463531
H  H140  1  0.76360000  0.47410000  0.03730000  1.0 0.1020265506
H  H141  1  0.26850000  0.39140000  0.76900000  1.0 0.117463531
H  H142  1  0.13760000  0.44290000  0.08330000  1.0 0.1298494856
H  H143  1  0.09780000  0.39490000  0.01510000  1.0 0.117463531
H  H144  1  0.65820000  0.43340000  0.74200000  1.0 0.1298494856
H  H145  1  0.73580000  0.39300000  0.80740000  1.0 0.1298494856
H  H146  1  0.58070000  0.45190000  0.66790000  1.0 0.1298494856
H  H147  1  0.42130000  0.49510000  0.61560000  1.0 0.1112672998
H  H148  1  0.00400000  0.80150000  0.55820000  1.0 0.117463531
H  H149  1  0.09490000  0.72560000  0.54700000  1.0 0.117463531
H  H150  1  0.26180000  0.66150000  0.55190000  1.0 0.117463531
H  H151  1  0.01100000  0.61500000  0.65180000  1.0 0.1112672998
H  H152  1  0.72430000  0.80370000  0.57570000  1.0 0.117463531
H  H153  1  0.28680000  0.57490000  0.55910000  1.0 0.1112672998
H  H154  1  0.60440000  0.83860000  0.51530000  1.0 0.117463531
H  H155  1  0.15160000  0.85010000  0.66620000  1.0 0.1112672998
H  H156  1  0.02280000  0.69530000  0.68190000  1.0 0.1298494856
H  H157  1  0.29800000  0.95610000  0.77760000  1.0 0.1112672998
H  H158  1  0.75330000  0.96670000  0.55190000  1.0 0.117463531
H  H159  1  0.92920000  0.77110000  0.69160000  1.0 0.1298494856
H  H160  1  0.88440000  0.93070000  0.60990000  1.0 0.117463531
H  H161  1  0.73640000  0.97410000  0.46270000  1.0 0.1020265506
H  H162  1  0.23150000  0.89140000  0.73100000  1.0 0.117463531
H  H163  1  0.36240000  0.94290000  0.41670000  1.0 0.1298494856
H  H164  1  0.40220000  0.89490000  0.48490000  1.0 0.117463531
H  H165  1  0.84180000  0.93340000  0.75800000  1.0 0.1298494856
H  H166  1  0.76420000  0.89300000  0.69260000  1.0 0.1298494856
H  H167  1  0.91930000  0.95190000  0.83210000  1.0 0.1298494856
H  H168  1  0.07870000  0.99510000  0.88440000  1.0 0.1112672998
C  C1  1  0.16830000  0.59395000  0.02706000  1.0 0.1298494856
C  C2  1  0.50760000  0.71995000  0.08303000  1.0 -0.1881459863
C  C3  1  0.56290000  0.76516000  0.07625000  1.0 -0.1805910322
C  C4  1  0.57000000  0.79633000  0.11332000  1.0 0.1298494856
C  C5  1  0.32120000  0.63690000  0.09802000  1.0 0.1670818613
C  C6  1  0.71520000  0.85822000  0.07293000  1.0 -0.1150487899
C  C7  1  0.57720000  0.88437000  0.12798000  1.0 0.0667873357
C  C8  1  0.23380000  0.66358000  0.07026000  1.0 -0.1805910322
C  C9  1  0.45770000  0.70607000  0.12621000  1.0 0.1597595284
C  C10  1  0.54350000  0.58241000  0.25009000  1.0 0.1368298517
C  C11  1  0.72800000  0.90597000  0.07698000  1.0 -0.0657137339
C  C12  1  0.44970000  0.63263000  0.17290000  1.0 0.1597595284
C  C13  1  0.16020000  0.64261000  0.03457000  1.0 -0.1702016488
C  C14  1  0.58860000  0.63290000  0.18454000  1.0 -0.1702016488
C  C15  1  0.51930000  0.78336000  0.15704000  1.0 -0.1805910322
C  C16  1  0.72320000  0.53975000  0.29797000  1.0 0.0628638253
C  C17  1  0.25000000  0.56636000  0.05590000  1.0 -0.1805910322
C  C18  1  0.46350000  0.73798000  0.16260000  1.0 -0.1805910322
C  C19  1  0.32730000  0.58797000  0.09087000  1.0 -0.1702016488
C  C20  1  0.14830000  0.53970000  0.95945000  1.0 0.0667873357
C  C21  1  0.63700000  0.60800000  0.22328000  1.0 -0.1881459863
C  C22  1  0.94360000  0.55700000  0.93457000  1.0 -0.0527421138
C  C23  1  0.96470000  0.58330000  0.97196000  1.0 -0.1106557702
C  C24  1  0.40550000  0.58290000  0.23920000  1.0 -0.1539324797
C  C25  1  0.35890000  0.60760000  0.20020000  1.0 -0.1566232308
C  C26  1  0.51410000  0.54240000  0.32720000  1.0 -0.0976800933
C  C27  1  0.60400000  0.51850000  0.35600000  1.0 -0.0376283936
C  C28  1  0.33170000  0.09395000  0.47294000  1.0 0.1298494856
C  C29  1  0.99240000  0.21995000  0.41697000  1.0 -0.1881459863
C  C30  1  0.93710000  0.26516000  0.42375000  1.0 -0.1805910322
C  C31  1  0.93000000  0.29633000  0.38668000  1.0 0.1298494856
C  C32  1  0.17880000  0.13690000  0.40198000  1.0 0.1670818613
C  C33  1  0.78480000  0.35822000  0.42707000  1.0 -0.1150487899
C  C34  1  0.92280000  0.38437000  0.37202000  1.0 0.0667873357
C  C35  1  0.26620000  0.16358000  0.42974000  1.0 -0.1805910322
C  C36  1  0.04230000  0.20607000  0.37379000  1.0 0.1597595284
C  C37  1  0.95650000  0.08241000  0.24991000  1.0 0.1368298517
C  C38  1  0.77200000  0.40597000  0.42302000  1.0 -0.0657137339
C  C39  1  0.05030000  0.13263000  0.32710000  1.0 0.1597595284
C  C40  1  0.33980000  0.14261000  0.46543000  1.0 -0.1702016488
C  C41  1  0.91140000  0.13290000  0.31546000  1.0 -0.1702016488
C  C42  1  0.98070000  0.28336000  0.34296000  1.0 -0.1805910322
C  C43  1  0.77680000  0.03975000  0.20203000  1.0 0.0628638253
C  C44  1  0.25000000  0.06636000  0.44410000  1.0 -0.1805910322
C  C45  1  0.03650000  0.23798000  0.33740000  1.0 -0.1805910322
C  C46  1  0.17270000  0.08797000  0.40913000  1.0 -0.1702016488
C  C47  1  0.35170000  0.03970000  0.54055000  1.0 0.0667873357
C  C48  1  0.86300000  0.10800000  0.27672000  1.0 -0.1881459863
C  C49  1  0.55640000  0.05700000  0.56543000  1.0 -0.0527421138
C  C50  1  0.53530000  0.08330000  0.52804000  1.0 -0.1106557702
C  C51  1  0.09450000  0.08290000  0.26080000  1.0 -0.1539324797
C  C52  1  0.14110000  0.10760000  0.29980000  1.0 -0.1566232308
C  C53  1  0.98590000  0.04240000  0.17280000  1.0 -0.0976800933
C  C54  1  0.89600000  0.01850000  0.14400000  1.0 -0.0376283936
C  C55  1  0.83170000  0.59395000  0.52706000  1.0 0.1298494856
C  C56  1  0.49240000  0.71995000  0.58303000  1.0 -0.1881459863
C  C57  1  0.43710000  0.76516000  0.57625000  1.0 -0.1805910322
C  C58  1  0.43000000  0.79633000  0.61332000  1.0 0.1298494856
C  C59  1  0.67880000  0.63690000  0.59802000  1.0 0.1670818613
C  C60  1  0.28480000  0.85822000  0.57293000  1.0 -0.1150487899
C  C61  1  0.42280000  0.88437000  0.62798000  1.0 0.0667873357
C  C62  1  0.76620000  0.66358000  0.57026000  1.0 -0.1805910322
C  C63  1  0.54230000  0.70607000  0.62621000  1.0 0.1597595284
C  C64  1  0.45650000  0.58241000  0.75009000  1.0 0.1368298517
C  C65  1  0.27200000  0.90597000  0.57698000  1.0 -0.0657137339
C  C66  1  0.55030000  0.63263000  0.67290000  1.0 0.1597595284
C  C67  1  0.83980000  0.64261000  0.53457000  1.0 -0.1702016488
C  C68  1  0.41140000  0.63290000  0.68454000  1.0 -0.1702016488
C  C69  1  0.48070000  0.78336000  0.65704000  1.0 -0.1805910322
C  C70  1  0.27680000  0.53975000  0.79797000  1.0 0.0667873357
C  C71  1  0.75000000  0.56636000  0.55590000  1.0 -0.1805910322
C  C72  1  0.53650000  0.73798000  0.66260000  1.0 -0.1805910322
C  C73  1  0.67270000  0.58797000  0.59087000  1.0 -0.1702016488
C  C74  1  0.85170000  0.53970000  0.45945000  1.0 0.0667873357
C  C75  1  0.36300000  0.60800000  0.72328000  1.0 -0.1881459863
C  C76  1  0.05640000  0.55700000  0.43457000  1.0 -0.0527421138
C  C77  1  0.03530000  0.58330000  0.47196000  1.0 -0.1106557702
C  C78  1  0.59450000  0.58290000  0.73920000  1.0 -0.1539324797
C  C79  1  0.64110000  0.60760000  0.70020000  1.0 -0.1566232308
C  C80  1  0.48590000  0.54240000  0.82720000  1.0 -0.0976800933
C  C81  1  0.39600000  0.51850000  0.85600000  1.0 -0.0376283936
C  C82  1  0.66830000  0.09395000  0.97294000  1.0 0.1298494856
C  C83  1  0.00760000  0.21995000  0.91697000  1.0 -0.1881459863
C  C84  1  0.06290000  0.26516000  0.92375000  1.0 -0.1805910322
C  C85  1  0.07000000  0.29633000  0.88668000  1.0 0.1298494856
C  C86  1  0.82120000  0.13690000  0.90198000  1.0 0.1670818613
C  C87  1  0.21520000  0.35822000  0.92707000  1.0 -0.1150487899
C  C88  1  0.07720000  0.38437000  0.87202000  1.0 0.0667873357
C  C89  1  0.73380000  0.16358000  0.92974000  1.0 -0.1805910322
C  C90  1  0.95770000  0.20607000  0.87379000  1.0 0.1597595284
C  C91  1  0.04350000  0.08241000  0.74991000  1.0 0.1368298517
C  C92  1  0.22800000  0.40597000  0.92302000  1.0 -0.0657137339
C  C93  1  0.94970000  0.13263000  0.82710000  1.0 0.1597595284
C  C94  1  0.66020000  0.14261000  0.96543000  1.0 -0.1702016488
C  C95  1  0.08860000  0.13290000  0.81546000  1.0 -0.1702016488
C  C96  1  0.01930000  0.28336000  0.84296000  1.0 -0.1805910322
C  C97  1  0.22320000  0.03975000  0.70203000  1.0 0.0628638253
C  C98  1  0.75000000  0.06636000  0.94410000  1.0 -0.1805910322
C  C99  1  0.96350000  0.23798000  0.83740000  1.0 -0.1805910322
C  C100  1  0.82730000  0.08797000  0.90913000  1.0 -0.1702016488
C  C101  1  0.64830000  0.03970000  0.04055000  1.0 0.0667873357
C  C102  1  0.13700000  0.10800000  0.77672000  1.0 -0.1881459863
C  C103  1  0.44360000  0.05700000  0.06543000  1.0 -0.0527421138
C  C104  1  0.46470000  0.08330000  0.02804000  1.0 -0.1106557702
C  C105  1  0.90550000  0.08290000  0.76080000  1.0 -0.1539324797
C  C106  1  0.85890000  0.10760000  0.79980000  1.0 -0.1566232308
C  C107  1  0.01410000  0.04240000  0.67280000  1.0 -0.0976800933
C  C108  1  0.10400000  0.01850000  0.64400000  1.0 -0.0376283936
C  C109  1  0.16830000  0.40605000  0.47294000  1.0 0.1298494856
C  C110  1  0.50760000  0.28005000  0.41697000  1.0 -0.1881459863
C  C111  1  0.56290000  0.23484000  0.42375000  1.0 -0.1805910322
C  C112  1  0.57000000  0.20367000  0.38668000  1.0 0.1298494856
C  C113  1  0.32120000  0.36310000  0.40198000  1.0 0.1670818613
C  C114  1  0.71520000  0.14178000  0.42707000  1.0 -0.1150487899
C  C115  1  0.57720000  0.11563000  0.37202000  1.0 0.0667873357
C  C116  1  0.23380000  0.33642000  0.42974000  1.0 -0.1805910322
C  C117  1  0.45770000  0.29393000  0.37379000  1.0 0.1597595284
C  C118  1  0.54350000  0.41759000  0.24991000  1.0 0.1368298517
C  C119  1  0.72800000  0.09403000  0.42302000  1.0 -0.0657137339
C  C120  1  0.44970000  0.36737000  0.32710000  1.0 0.1597595284
C  C121  1  0.16020000  0.35739000  0.46543000  1.0 -0.1702016488
C  C122  1  0.58860000  0.36710000  0.31546000  1.0 -0.1702016488
C  C123  1  0.51930000  0.21664000  0.34296000  1.0 -0.1805910322
C  C124  1  0.72320000  0.46025000  0.20203000  1.0 0.0628638253
C  C125  1  0.25000000  0.43364000  0.44410000  1.0 -0.1805910322
C  C126  1  0.46350000  0.26202000  0.33740000  1.0 -0.1805910322
C  C127  1  0.32730000  0.41203000  0.40913000  1.0 -0.1702016488
C  C128  1  0.14830000  0.46030000  0.54055000  1.0 0.0667873357
C  C129  1  0.63700000  0.39200000  0.27672000  1.0 -0.1881459863
C  C130  1  0.94360000  0.44300000  0.56543000  1.0 -0.0527421138
C  C131  1  0.96470000  0.41670000  0.52804000  1.0 -0.1106557702
C  C132  1  0.40550000  0.41710000  0.26080000  1.0 -0.1539324797
C  C133  1  0.35890000  0.39240000  0.29980000  1.0 -0.1566232308
C  C134  1  0.51410000  0.45760000  0.17280000  1.0 -0.0976800933
C  C135  1  0.60400000  0.48150000  0.14400000  1.0 -0.0376283936
C  C136  1  0.33170000  0.90605000  0.02706000  1.0 0.1298494856
C  C137  1  0.99240000  0.78005000  0.08303000  1.0 -0.1881459863
C  C138  1  0.93710000  0.73484000  0.07625000  1.0 -0.1805910322
C  C139  1  0.93000000  0.70367000  0.11332000  1.0 0.1298494856
C  C140  1  0.17880000  0.86310000  0.09802000  1.0 0.1670818613
C  C141  1  0.78480000  0.64178000  0.07293000  1.0 -0.1150487899
C  C142  1  0.92280000  0.61563000  0.12798000  1.0 0.0667873357
C  C143  1  0.26620000  0.83642000  0.07026000  1.0 -0.1805910322
C  C144  1  0.04230000  0.79393000  0.12621000  1.0 0.1597595284
C  C145  1  0.95650000  0.91759000  0.25009000  1.0 0.1368298517
C  C146  1  0.77200000  0.59403000  0.07698000  1.0 -0.0657137339
C  C147  1  0.05030000  0.86737000  0.17290000  1.0 0.1597595284
C  C148  1  0.33980000  0.85739000  0.03457000  1.0 -0.1702016488
C  C149  1  0.91140000  0.86710000  0.18454000  1.0 -0.1702016488
C  C150  1  0.98070000  0.71664000  0.15704000  1.0 -0.1805910322
C  C151  1  0.77680000  0.96025000  0.29797000  1.0 0.0628638253
C  C152  1  0.25000000  0.93364000  0.05590000  1.0 -0.1805910322
C  C153  1  0.03650000  0.76202000  0.16260000  1.0 -0.1805910322
C  C154  1  0.17270000  0.91203000  0.09087000  1.0 -0.1702016488
C  C155  1  0.35170000  0.96030000  0.95945000  1.0 0.0667873357
C  C156  1  0.86300000  0.89200000  0.22328000  1.0 -0.1881459863
C  C157  1  0.55640000  0.94300000  0.93457000  1.0 -0.0527421138
C  C158  1  0.53530000  0.91670000  0.97196000  1.0 -0.1106557702
C  C159  1  0.09450000  0.91710000  0.23920000  1.0 -0.1539324797
C  C160  1  0.14110000  0.89240000  0.20020000  1.0 -0.1566232308
C  C161  1  0.98590000  0.95760000  0.32720000  1.0 -0.0976800933
C  C162  1  0.89600000  0.98150000  0.35600000  1.0 -0.0376283936
C  C163  1  0.83170000  0.40605000  0.97294000  1.0 0.1298494856
C  C164  1  0.49240000  0.28005000  0.91697000  1.0 -0.1881459863
C  C165  1  0.43710000  0.23484000  0.92375000  1.0 -0.1805910322
C  C166  1  0.43000000  0.20367000  0.88668000  1.0 0.1298494856
C  C167  1  0.67880000  0.36310000  0.90198000  1.0 0.1670818613
C  C168  1  0.28480000  0.14178000  0.92707000  1.0 -0.1150487899
C  C169  1  0.42280000  0.11563000  0.87202000  1.0 0.0667873357
C  C170  1  0.76620000  0.33642000  0.92974000  1.0 -0.1805910322
C  C171  1  0.54230000  0.29393000  0.87379000  1.0 0.1597595284
C  C172  1  0.45650000  0.41759000  0.74991000  1.0 0.1368298517
C  C173  1  0.27200000  0.09403000  0.92302000  1.0 -0.0657137339
C  C174  1  0.55030000  0.36737000  0.82710000  1.0 0.1597595284
C  C175  1  0.83980000  0.35739000  0.96543000  1.0 -0.1702016488
C  C176  1  0.41140000  0.36710000  0.81546000  1.0 -0.1702016488
C  C177  1  0.48070000  0.21664000  0.84296000  1.0 -0.1805910322
C  C178  1  0.27680000  0.46025000  0.70203000  1.0 0.0628638253
C  C179  1  0.75000000  0.43364000  0.94410000  1.0 -0.1805910322
C  C180  1  0.53650000  0.26202000  0.83740000  1.0 -0.1805910322
C  C181  1  0.67270000  0.41203000  0.90913000  1.0 -0.1702016488
C  C182  1  0.85170000  0.46030000  0.04055000  1.0 0.0667873357
C  C183  1  0.36300000  0.39200000  0.77672000  1.0 -0.1881459863
C  C184  1  0.05640000  0.44300000  0.06543000  1.0 -0.0527421138
C  C185  1  0.03530000  0.41670000  0.02804000  1.0 -0.1106557702
C  C186  1  0.59450000  0.41710000  0.76080000  1.0 -0.1539324797
C  C187  1  0.64110000  0.39240000  0.79980000  1.0 -0.1566232308
C  C188  1  0.48590000  0.45760000  0.67280000  1.0 -0.0976800933
C  C189  1  0.39600000  0.48150000  0.64400000  1.0 -0.0376283936
C  C190  1  0.66830000  0.90605000  0.52706000  1.0 0.1298494856
C  C191  1  0.00760000  0.78005000  0.58303000  1.0 -0.1881459863
C  C192  1  0.06290000  0.73484000  0.57625000  1.0 -0.1805910322
C  C193  1  0.07000000  0.70367000  0.61332000  1.0 0.1298494856
C  C194  1  0.82120000  0.86310000  0.59802000  1.0 0.1670818613
C  C195  1  0.21520000  0.64178000  0.57293000  1.0 -0.1150487899
C  C196  1  0.07720000  0.61563000  0.62798000  1.0 0.0667873357
C  C197  1  0.73380000  0.83642000  0.57026000  1.0 -0.1805910322
C  C198  1  0.95770000  0.79393000  0.62621000  1.0 0.1597595284
C  C199  1  0.04350000  0.91759000  0.75009000  1.0 0.1368298517
C  C200  1  0.22800000  0.59403000  0.57698000  1.0 -0.0657137339
C  C201  1  0.94970000  0.86737000  0.67290000  1.0 0.1597595284
C  C202  1  0.66020000  0.85739000  0.53457000  1.0 -0.1702016488
C  C203  1  0.08860000  0.86710000  0.68454000  1.0 -0.1702016488
C  C204  1  0.01930000  0.71664000  0.65704000  1.0 -0.1805910322
C  C205  1  0.22320000  0.96025000  0.79797000  1.0 0.0628638253
C  C206  1  0.75000000  0.93364000  0.55590000  1.0 -0.1805910322
C  C207  1  0.96350000  0.76202000  0.66260000  1.0 -0.1805910322
C  C208  1  0.82730000  0.91203000  0.59087000  1.0 -0.1702016488
C  C209  1  0.64830000  0.96030000  0.45945000  1.0 0.0667873357
C  C210  1  0.13700000  0.89200000  0.72328000  1.0 -0.1881459863
C  C211  1  0.44360000  0.94300000  0.43457000  1.0 -0.0527421138
C  C212  1  0.46470000  0.91670000  0.47196000  1.0 -0.1106557702
C  C213  1  0.90550000  0.91710000  0.73920000  1.0 -0.1539324797
C  C214  1  0.85890000  0.89240000  0.70020000  1.0 -0.1566232308
C  C215  1  0.01410000  0.95760000  0.82720000  1.0 -0.0976800933
C  C216  1  0.10400000  0.98150000  0.85600000  1.0 -0.0376283936
N  N1  1  0.62060000  0.84438000  0.10576000  1.0 -0.0028361672
N  N2  1  0.09600000  0.57267000  0.98822000  1.0 0.0125802052
N  N3  1  0.64120000  0.92207000  0.11146000  1.0 -0.2713820166
N  N4  1  0.05970000  0.52925000  0.92595000  1.0 -0.2713820166
N  N5  1  0.40210000  0.65935000  0.13352000  1.0 -0.2088702596
N  N6  1  0.59150000  0.55594000  0.29016000  1.0 0.0150230811
N  N7  1  0.73090000  0.51737000  0.33837000  1.0 -0.2552600815
N  N8  1  0.87940000  0.34438000  0.39424000  1.0 -0.0028361672
N  N9  1  0.40400000  0.07267000  0.51178000  1.0 0.0125802052
N  N10  1  0.85880000  0.42207000  0.38854000  1.0 -0.2713820166
N  N11  1  0.44030000  0.02925000  0.57405000  1.0 -0.2713820166
N  N12  1  0.09790000  0.15935000  0.36648000  1.0 -0.2088702596
N  N13  1  0.90850000  0.05594000  0.20984000  1.0 0.0125802052
N  N14  1  0.76910000  0.01737000  0.16163000  1.0 -0.2552600815
N  N15  1  0.37940000  0.84438000  0.60576000  1.0 -0.0028361672
N  N16  1  0.90400000  0.57267000  0.48822000  1.0 0.0125802052
N  N17  1  0.35880000  0.92207000  0.61146000  1.0 -0.2713820166
N  N18  1  0.94030000  0.52925000  0.42595000  1.0 -0.2713820166
N  N19  1  0.59790000  0.65935000  0.63352000  1.0 -0.2088702596
N  N20  1  0.40850000  0.55594000  0.79016000  1.0 0.0125802052
N  N21  1  0.26910000  0.51737000  0.83837000  1.0 -0.2552600815
N  N22  1  0.12060000  0.34438000  0.89424000  1.0 -0.0028361672
N  N23  1  0.59600000  0.07267000  0.01178000  1.0 0.0125802052
N  N24  1  0.14120000  0.42207000  0.88854000  1.0 -0.2713820166
N  N25  1  0.55970000  0.02925000  0.07405000  1.0 -0.2713820166
N  N26  1  0.90210000  0.15935000  0.86648000  1.0 -0.2088702596
N  N27  1  0.09150000  0.05594000  0.70984000  1.0 0.0125802052
N  N28  1  0.23090000  0.01737000  0.66163000  1.0 -0.2541272952
N  N29  1  0.62060000  0.15562000  0.39424000  1.0 -0.0028361672
N  N30  1  0.09600000  0.42733000  0.51178000  1.0 0.0125802052
N  N31  1  0.64120000  0.07793000  0.38854000  1.0 -0.2713820166
N  N32  1  0.05970000  0.47075000  0.57405000  1.0 -0.2713820166
N  N33  1  0.40210000  0.34065000  0.36648000  1.0 -0.2088702596
N  N34  1  0.59150000  0.44406000  0.20984000  1.0 0.0125802052
N  N35  1  0.73090000  0.48263000  0.16163000  1.0 -0.2541272952
N  N36  1  0.87940000  0.65562000  0.10576000  1.0 -0.0028361672
N  N37  1  0.40400000  0.92733000  0.98822000  1.0 0.0125802052
N  N38  1  0.85880000  0.57793000  0.11146000  1.0 -0.2713820166
N  N39  1  0.44030000  0.97075000  0.92595000  1.0 -0.2713820166
N  N40  1  0.09790000  0.84065000  0.13352000  1.0 -0.2088702596
N  N41  1  0.90850000  0.94406000  0.29016000  1.0 0.0150230811
N  N42  1  0.76910000  0.98263000  0.33837000  1.0 -0.2552600815
N  N43  1  0.37940000  0.15562000  0.89424000  1.0 -0.0028361672
N  N44  1  0.90400000  0.42733000  0.01178000  1.0 0.0125802052
N  N45  1  0.35880000  0.07793000  0.88854000  1.0 -0.2713820166
N  N46  1  0.94030000  0.47075000  0.07405000  1.0 -0.2713820166
N  N47  1  0.59790000  0.34065000  0.86648000  1.0 -0.2088702596
N  N48  1  0.40850000  0.44406000  0.70984000  1.0 0.0150230811
N  N49  1  0.26910000  0.48263000  0.66163000  1.0 -0.2541272952
N  N50  1  0.12060000  0.65562000  0.60576000  1.0 -0.0028361672
N  N51  1  0.59600000  0.92733000  0.48822000  1.0 0.0125802052
N  N52  1  0.14120000  0.57793000  0.61146000  1.0 -0.2713820166
N  N53  1  0.55970000  0.97075000  0.42595000  1.0 -0.2713820166
N  N54  1  0.90210000  0.84065000  0.63352000  1.0 -0.2088702596
N  N55  1  0.09150000  0.94406000  0.79016000  1.0 0.0125802052
N  N56  1  0.23090000  0.98263000  0.83837000  1.0 -0.2552600815
O  O1  1  0.91240000  0.48810000  0.82730000  1.0 -0.6523094021
O  O2  1  0.58760000  0.98810000  0.67270000  1.0 -0.6523094021
O  O3  1  0.08760000  0.48810000  0.32730000  1.0 -0.6523094021
O  O4  1  0.41240000  0.98810000  0.17270000  1.0 -0.6523094021
O  O5  1  0.91240000  0.51190000  0.67270000  1.0 -0.6523094021
O  O6  1  0.58760000  0.01190000  0.82730000  1.0 -0.6523094021
O  O7  1  0.08760000  0.51190000  0.17270000  1.0 -0.6553344741
O  O8  1  0.41240000  0.01190000  0.32730000  1.0 -0.6523094021
