# DDEC6 charges by PACMAN v1.1 (https://github.com/mtap-research/PACMAN-charge/)
data_ja9b10501_si_007_FSR_pacman
_symmetry_space_group_name_H-M   'P 1'
_cell_length_a   18.81350000
_cell_length_b   18.81350000
_cell_length_c   36.79700000
_cell_angle_alpha   90.00000000
_cell_angle_beta   90.00000000
_cell_angle_gamma   90.00000000
_symmetry_Int_Tables_number   1
_chemical_formula_structural   Al16H152.32C228.16N16.64O71.68
_chemical_formula_sum   'Al16 H152.32 C228.16 N16.64 O71.68'
_cell_volume   13024.21654345
_cell_formula_units_Z   1
loop_
 _symmetry_equiv_pos_site_id
 _symmetry_equiv_pos_as_xyz
  1  'x, y, z'
loop_
 _atom_site_type_symbol
 _atom_site_label
 _atom_site_symmetry_multiplicity
 _atom_site_fract_x
 _atom_site_fract_y
 _atom_site_fract_z
 _atom_site_occupancy
 _atom_site_charge
Al  Al1  1  0.10024000  0.87219000  0.08006000  1.0 1.4334174783
Al  Al2  1  0.89976000  0.12781000  0.08006000  1.0 1.4334174783
Al  Al3  1  0.62781000  0.60024000  0.58006000  1.0 1.4334174783
Al  Al4  1  0.37219000  0.39976000  0.58006000  1.0 1.4334174783
Al  Al5  1  0.39976000  0.37219000  0.41994000  1.0 1.4334174783
Al  Al6  1  0.60024000  0.62781000  0.41994000  1.0 1.4334174783
Al  Al7  1  0.87219000  0.10024000  0.91994000  1.0 1.4334174783
Al  Al8  1  0.12781000  0.89976000  0.91994000  1.0 1.4334174783
Al  Al9  1  0.16630000  0.83370000  0.00000000  1.0 1.2461595328
Al  Al10  1  0.83370000  0.16630000  0.00000000  1.0 1.2461595328
Al  Al11  1  0.66630000  0.66630000  0.50000000  1.0 1.2461595328
Al  Al12  1  0.33370000  0.33370000  0.50000000  1.0 1.2461595328
Al  Al13  1  0.00000000  0.00000000  0.11209000  1.0 1.641684273
Al  Al14  1  0.50000000  0.50000000  0.61209000  1.0 1.641684273
Al  Al15  1  0.50000000  0.50000000  0.38791000  1.0 1.641684273
Al  Al16  1  0.00000000  0.00000000  0.88791000  1.0 1.641684273
H  H1  1  0.13176000  0.94543000  0.02823000  1.0 0.4092328694
H  H2  1  0.36617000  0.78513000  0.04503000  1.0 0.1275690704
H  H3  1  0.25107000  0.79383000  0.13726000  1.0 0.1275690704
H  H4  1  0.47111000  0.78001000  0.07842000  1.0 0.1081843443
H  H5  1  0.60994000  0.74468000  0.32564000  1.0 0.1198512325
H  H6  1  0.45310000  0.72414000  0.19158000  1.0 0.1081843443
H  H7  1  0.84306000  0.86965000  0.14394000  1.0 0.1275690704
H  H8  1  0.70959000  0.01839000  0.10489000  1.0 0.1275690704
H  H9  1  0.35437000  0.79180000  0.17136000  1.0 0.1028024278
H  H10  1  0.61327000  0.95815000  0.12830000  1.0 0.1081843443
H  H11  1  0.61057000  0.79779000  0.26774000  1.0 0.1028024278
H  H12  1  0.49456000  0.63394000  0.22764000  1.0 0.1081843443
H  H13  1  0.49384000  0.58099000  0.28514000  1.0 0.1198512325
H  H14  1  0.74499000  0.80621000  0.16570000  1.0 0.1081843443
H  H15  1  0.65132000  0.79876000  0.20780000  1.0 0.1081843443
H  H16  1  0.54860000  0.84561000  0.11609000  1.0 0.1081843443
H  H17  1  0.99406000  0.92877000  0.05750000  1.0 0.4092328694
H  H18  1  0.86824000  0.05457000  0.02823000  1.0 0.4092328694
H  H19  1  0.63383000  0.21487000  0.04503000  1.0 0.1275690704
H  H20  1  0.74893000  0.20617000  0.13726000  1.0 0.1275690704
H  H21  1  0.52889000  0.21999000  0.07842000  1.0 0.1081843443
H  H22  1  0.39006000  0.25532000  0.32564000  1.0 0.1198512325
H  H23  1  0.54690000  0.27586000  0.19158000  1.0 0.1081843443
H  H24  1  0.15694000  0.13035000  0.14394000  1.0 0.1275690704
H  H25  1  0.29041000  0.98161000  0.10489000  1.0 0.1275690704
H  H26  1  0.64563000  0.20820000  0.17136000  1.0 0.1028024278
H  H27  1  0.38673000  0.04185000  0.12830000  1.0 0.1081843443
H  H28  1  0.38943000  0.20221000  0.26774000  1.0 0.1081843443
H  H29  1  0.50544000  0.36606000  0.22764000  1.0 0.1081843443
H  H30  1  0.50616000  0.41901000  0.28514000  1.0 0.1198512325
H  H31  1  0.25501000  0.19379000  0.16570000  1.0 0.1081843443
H  H32  1  0.34868000  0.20124000  0.20780000  1.0 0.1081843443
H  H33  1  0.45140000  0.15439000  0.11609000  1.0 0.1081843443
H  H34  1  0.00594000  0.07123000  0.05750000  1.0 0.4092328694
H  H35  1  0.55457000  0.63176000  0.52823000  1.0 0.4092328694
H  H36  1  0.71487000  0.86617000  0.54503000  1.0 0.1275690704
H  H37  1  0.70617000  0.75107000  0.63726000  1.0 0.1275690704
H  H38  1  0.71999000  0.97111000  0.57842000  1.0 0.1081843443
H  H39  1  0.75532000  0.10994000  0.82564000  1.0 0.1198512325
H  H40  1  0.77586000  0.95310000  0.69158000  1.0 0.1081843443
H  H41  1  0.63035000  0.34306000  0.64394000  1.0 0.1275690704
H  H42  1  0.48161000  0.20959000  0.60489000  1.0 0.1275690704
H  H43  1  0.70820000  0.85437000  0.67136000  1.0 0.1028024278
H  H44  1  0.54185000  0.11327000  0.62830000  1.0 0.1081843443
H  H45  1  0.70221000  0.11057000  0.76774000  1.0 0.1081843443
H  H46  1  0.86606000  0.99456000  0.72764000  1.0 0.1081843443
H  H47  1  0.91901000  0.99384000  0.78514000  1.0 0.1198512325
H  H48  1  0.69379000  0.24499000  0.66570000  1.0 0.1081843443
H  H49  1  0.70124000  0.15132000  0.70780000  1.0 0.1081843443
H  H50  1  0.65439000  0.04860000  0.61609000  1.0 0.1081843443
H  H51  1  0.57123000  0.49406000  0.55750000  1.0 0.4092328694
H  H52  1  0.44543000  0.36824000  0.52823000  1.0 0.4092328694
H  H53  1  0.28513000  0.13383000  0.54503000  1.0 0.1275690704
H  H54  1  0.29383000  0.24893000  0.63726000  1.0 0.1275690704
H  H55  1  0.28001000  0.02889000  0.57842000  1.0 0.1081843443
H  H56  1  0.24468000  0.89006000  0.82564000  1.0 0.1275690704
H  H57  1  0.22414000  0.04690000  0.69158000  1.0 0.1081843443
H  H58  1  0.36965000  0.65694000  0.64394000  1.0 0.1275690704
H  H59  1  0.51839000  0.79041000  0.60489000  1.0 0.1275690704
H  H60  1  0.29180000  0.14563000  0.67136000  1.0 0.1028024278
H  H61  1  0.45815000  0.88673000  0.62830000  1.0 0.1081843443
H  H62  1  0.29779000  0.88943000  0.76774000  1.0 0.1081843443
H  H63  1  0.13394000  0.00544000  0.72764000  1.0 0.1081843443
H  H64  1  0.08099000  0.00616000  0.78514000  1.0 0.1198512325
H  H65  1  0.30621000  0.75501000  0.66570000  1.0 0.1081843443
H  H66  1  0.29876000  0.84868000  0.70780000  1.0 0.1081843443
H  H67  1  0.34561000  0.95140000  0.61609000  1.0 0.1081843443
H  H68  1  0.42877000  0.50594000  0.55750000  1.0 0.4092328694
H  H69  1  0.36824000  0.44543000  0.47177000  1.0 0.4092328694
H  H70  1  0.13383000  0.28513000  0.45497000  1.0 0.1275690704
H  H71  1  0.24893000  0.29383000  0.36274000  1.0 0.1275690704
H  H72  1  0.02889000  0.28001000  0.42158000  1.0 0.1081843443
H  H73  1  0.89006000  0.24468000  0.17436000  1.0 0.1198512325
H  H74  1  0.04690000  0.22414000  0.30842000  1.0 0.1081843443
H  H75  1  0.65694000  0.36965000  0.35606000  1.0 0.1275690704
H  H76  1  0.79041000  0.51839000  0.39511000  1.0 0.1275690704
H  H77  1  0.14563000  0.29180000  0.32864000  1.0 0.1028024278
H  H78  1  0.88673000  0.45815000  0.37170000  1.0 0.1081843443
H  H79  1  0.88943000  0.29779000  0.23226000  1.0 0.1081843443
H  H80  1  0.00544000  0.13394000  0.27236000  1.0 0.1081843443
H  H81  1  0.00616000  0.08099000  0.21486000  1.0 0.1198512325
H  H82  1  0.75501000  0.30621000  0.33430000  1.0 0.1081843443
H  H83  1  0.84868000  0.29876000  0.29220000  1.0 0.1081843443
H  H84  1  0.95140000  0.34561000  0.38391000  1.0 0.1081843443
H  H85  1  0.50594000  0.42877000  0.44250000  1.0 0.4092328694
H  H86  1  0.63176000  0.55457000  0.47177000  1.0 0.4092328694
H  H87  1  0.86617000  0.71487000  0.45497000  1.0 0.1275690704
H  H88  1  0.75107000  0.70617000  0.36274000  1.0 0.1275690704
H  H89  1  0.97111000  0.71999000  0.42158000  1.0 0.1081843443
H  H90  1  0.10994000  0.75532000  0.17436000  1.0 0.1275690704
H  H91  1  0.95310000  0.77586000  0.30842000  1.0 0.1081843443
H  H92  1  0.34306000  0.63035000  0.35606000  1.0 0.1275690704
H  H93  1  0.20959000  0.48161000  0.39511000  1.0 0.1275690704
H  H94  1  0.85437000  0.70820000  0.32864000  1.0 0.1028024278
H  H95  1  0.11327000  0.54185000  0.37170000  1.0 0.1081843443
H  H96  1  0.11057000  0.70221000  0.23226000  1.0 0.1028024278
H  H97  1  0.99456000  0.86606000  0.27236000  1.0 0.1081843443
H  H98  1  0.99384000  0.91901000  0.21486000  1.0 0.1198512325
H  H99  1  0.24499000  0.69379000  0.33430000  1.0 0.1081843443
H  H100  1  0.15132000  0.70124000  0.29220000  1.0 0.1081843443
H  H101  1  0.04860000  0.65439000  0.38391000  1.0 0.1081843443
H  H102  1  0.49406000  0.57123000  0.44250000  1.0 0.4092328694
H  H103  1  0.94543000  0.13176000  0.97177000  1.0 0.4092328694
H  H104  1  0.78513000  0.36617000  0.95497000  1.0 0.1275690704
H  H105  1  0.79383000  0.25107000  0.86274000  1.0 0.1275690704
H  H106  1  0.78001000  0.47111000  0.92158000  1.0 0.1081843443
H  H107  1  0.74468000  0.60994000  0.67436000  1.0 0.1198512325
H  H108  1  0.72414000  0.45310000  0.80842000  1.0 0.1081843443
H  H109  1  0.86965000  0.84306000  0.85606000  1.0 0.1275690704
H  H110  1  0.01839000  0.70959000  0.89511000  1.0 0.1275690704
H  H111  1  0.79180000  0.35437000  0.82864000  1.0 0.1028024278
H  H112  1  0.95815000  0.61327000  0.87170000  1.0 0.1081843443
H  H113  1  0.79779000  0.61057000  0.73226000  1.0 0.1081843443
H  H114  1  0.63394000  0.49456000  0.77236000  1.0 0.1081843443
H  H115  1  0.58099000  0.49384000  0.71486000  1.0 0.1198512325
H  H116  1  0.80621000  0.74499000  0.83430000  1.0 0.1081843443
H  H117  1  0.79876000  0.65132000  0.79220000  1.0 0.1081843443
H  H118  1  0.84561000  0.54860000  0.88391000  1.0 0.1081843443
H  H119  1  0.92877000  0.99406000  0.94250000  1.0 0.4092328694
H  H120  1  0.05457000  0.86824000  0.97177000  1.0 0.4092328694
H  H121  1  0.21487000  0.63383000  0.95497000  1.0 0.1275690704
H  H122  1  0.20617000  0.74893000  0.86274000  1.0 0.1275690704
H  H123  1  0.21999000  0.52889000  0.92158000  1.0 0.1081843443
H  H124  1  0.25532000  0.39006000  0.67436000  1.0 0.1198512325
H  H125  1  0.27586000  0.54690000  0.80842000  1.0 0.1081843443
H  H126  1  0.13035000  0.15694000  0.85606000  1.0 0.1275690704
H  H127  1  0.98161000  0.29041000  0.89511000  1.0 0.1275690704
H  H128  1  0.20820000  0.64563000  0.82864000  1.0 0.1028024278
H  H129  1  0.04185000  0.38673000  0.87170000  1.0 0.1081843443
H  H130  1  0.20221000  0.38943000  0.73226000  1.0 0.1081843443
H  H131  1  0.36606000  0.50544000  0.77236000  1.0 0.1081843443
H  H132  1  0.41901000  0.50616000  0.71486000  1.0 0.1198512325
H  H133  1  0.19379000  0.25501000  0.83430000  1.0 0.1081843443
H  H134  1  0.20124000  0.34868000  0.79220000  1.0 0.1081843443
H  H135  1  0.15439000  0.45140000  0.88391000  1.0 0.1081843443
H  H136  1  0.07123000  0.00594000  0.94250000  1.0 0.4092328694
H  H137  1  0.01738000  0.71472000  0.03003000  0.48 0.1198512325
H  H138  1  0.98262000  0.28528000  0.03003000  0.48 0.1198512325
H  H139  1  0.78528000  0.51738000  0.53003000  0.48 0.1198512325
H  H140  1  0.21472000  0.48262000  0.53003000  0.48 0.1198512325
H  H141  1  0.48262000  0.21472000  0.46997000  0.48 0.1198512325
H  H142  1  0.51738000  0.78528000  0.46997000  0.48 0.1198512325
H  H143  1  0.71472000  0.01738000  0.96997000  0.48 0.1198512325
H  H144  1  0.28528000  0.98262000  0.96997000  0.48 0.1198512325
H  H145  1  0.91864000  0.71643000  0.08443000  0.52 0.1028024278
H  H146  1  0.98057000  0.74650000  0.10997000  0.52 0.1081843443
H  H147  1  0.93024000  0.80036000  0.08827000  0.52 0.1028024278
H  H148  1  0.08136000  0.28357000  0.08443000  0.52 0.1028024278
H  H149  1  0.01943000  0.25350000  0.10997000  0.52 0.1081843443
H  H150  1  0.06976000  0.19964000  0.08827000  0.52 0.1028024278
H  H151  1  0.78357000  0.41864000  0.58443000  0.52 0.1028024278
H  H152  1  0.75350000  0.48057000  0.60997000  0.52 0.1081843443
H  H153  1  0.69964000  0.43024000  0.58827000  0.52 0.1028024278
H  H154  1  0.21643000  0.58136000  0.58443000  0.52 0.1028024278
H  H155  1  0.24650000  0.51943000  0.60997000  0.52 0.1081843443
H  H156  1  0.30036000  0.56976000  0.58827000  0.52 0.1028024278
H  H157  1  0.58136000  0.21643000  0.41557000  0.52 0.1028024278
H  H158  1  0.51943000  0.24650000  0.39003000  0.52 0.1081843443
H  H159  1  0.56976000  0.30036000  0.41173000  0.52 0.1028024278
H  H160  1  0.41864000  0.78357000  0.41557000  0.52 0.1028024278
H  H161  1  0.48057000  0.75350000  0.39003000  0.52 0.1081843443
H  H162  1  0.43024000  0.69964000  0.41173000  0.52 0.1028024278
H  H163  1  0.71643000  0.91864000  0.91557000  0.52 0.1028024278
H  H164  1  0.74650000  0.98057000  0.89003000  0.52 0.1081843443
H  H165  1  0.80036000  0.93024000  0.91173000  0.52 0.1028024278
H  H166  1  0.28357000  0.08136000  0.91557000  0.52 0.1028024278
H  H167  1  0.25350000  0.01943000  0.89003000  0.52 0.1081843443
H  H168  1  0.19964000  0.06976000  0.91173000  0.52 0.1028024278
C  C1  1  0.29938000  0.79001000  0.08796000  1.0 -0.0288534226
C  C2  1  0.23291000  0.80014000  0.06689000  1.0 0.5745499299
C  C3  1  0.55024000  0.65913000  0.31147000  1.0 -0.0744923533
C  C4  1  0.36426000  0.78590000  0.07083000  1.0 -0.1061059142
C  C5  1  0.84878000  0.99530000  0.11267000  1.0 0.6103978545
C  C6  1  0.54862000  0.62516000  0.34694000  1.0 0.6103978545
C  C7  1  0.78473000  0.95330000  0.12413000  1.0 -0.0288534226
C  C8  1  0.29591000  0.79150000  0.12544000  1.0 -0.0990354387
C  C9  1  0.66972000  0.87430000  0.14792000  1.0 0.0706839148
C  C10  1  0.42663000  0.78300000  0.09055000  1.0 -0.1511732517
C  C11  1  0.42376000  0.78430000  0.12876000  1.0 0.0706839148
C  C12  1  0.55302000  0.72220000  0.24216000  1.0 0.0706839148
C  C13  1  0.58589000  0.72240000  0.30600000  1.0 -0.0888758528
C  C14  1  0.49169000  0.75330000  0.18423000  1.0 -0.2093820593
C  C15  1  0.79630000  0.88780000  0.14098000  1.0 -0.0990354387
C  C16  1  0.48730000  0.79080000  0.15160000  1.0 0.0706839148
C  C17  1  0.71714000  0.97590000  0.11826000  1.0 -0.1061059142
C  C18  1  0.35712000  0.78960000  0.14560000  1.0 -0.1581232756
C  C19  1  0.60737000  0.83210000  0.16074000  1.0 0.0706839148
C  C20  1  0.65978000  0.93920000  0.13101000  1.0 -0.1511732517
C  C21  1  0.58654000  0.75390000  0.27120000  1.0 -0.1581232756
C  C22  1  0.51769000  0.65660000  0.24745000  1.0 -0.1682090669
C  C23  1  0.51695000  0.62540000  0.28172000  1.0 -0.0990354387
C  C24  1  0.73784000  0.84990000  0.15330000  1.0 -0.1511732517
C  C25  1  0.55231000  0.75810000  0.20639000  1.0 0.0706839148
C  C26  1  0.60925000  0.79660000  0.19357000  1.0 -0.2093820593
C  C27  1  0.54825000  0.82560000  0.13979000  1.0 -0.2093820593
C  C28  1  0.70062000  0.20999000  0.08796000  1.0 -0.0288534226
C  C29  1  0.76709000  0.19986000  0.06689000  1.0 0.5745499299
C  C30  1  0.44976000  0.34087000  0.31147000  1.0 -0.0744923533
C  C31  1  0.63574000  0.21410000  0.07083000  1.0 -0.1061059142
C  C32  1  0.15122000  0.00470000  0.11267000  1.0 0.6103978545
C  C33  1  0.45138000  0.37484000  0.34694000  1.0 0.6103978545
C  C34  1  0.21527000  0.04670000  0.12413000  1.0 -0.0288534226
C  C35  1  0.70409000  0.20850000  0.12544000  1.0 -0.0990354387
C  C36  1  0.33028000  0.12570000  0.14792000  1.0 0.0706839148
C  C37  1  0.57337000  0.21700000  0.09055000  1.0 -0.1511732517
C  C38  1  0.57624000  0.21570000  0.12876000  1.0 0.0706839148
C  C39  1  0.44698000  0.27780000  0.24216000  1.0 0.0706839148
C  C40  1  0.41411000  0.27760000  0.30600000  1.0 -0.0888758528
C  C41  1  0.50831000  0.24670000  0.18423000  1.0 -0.2093820593
C  C42  1  0.20370000  0.11220000  0.14098000  1.0 -0.0990354387
C  C43  1  0.51270000  0.20920000  0.15160000  1.0 0.0706839148
C  C44  1  0.28286000  0.02410000  0.11826000  1.0 -0.1061059142
C  C45  1  0.64288000  0.21040000  0.14560000  1.0 -0.1581232756
C  C46  1  0.39263000  0.16790000  0.16074000  1.0 0.0706839148
C  C47  1  0.34022000  0.06080000  0.13101000  1.0 -0.1511732517
C  C48  1  0.41346000  0.24610000  0.27120000  1.0 -0.1581232756
C  C49  1  0.48231000  0.34340000  0.24745000  1.0 -0.1682090669
C  C50  1  0.48305000  0.37460000  0.28172000  1.0 -0.0990354387
C  C51  1  0.26216000  0.15010000  0.15330000  1.0 -0.1511732517
C  C52  1  0.44769000  0.24190000  0.20639000  1.0 0.0706839148
C  C53  1  0.39075000  0.20340000  0.19357000  1.0 -0.2093820593
C  C54  1  0.45175000  0.17440000  0.13979000  1.0 -0.2093820593
C  C55  1  0.70999000  0.79938000  0.58796000  1.0 -0.0288534226
C  C56  1  0.69986000  0.73291000  0.56689000  1.0 0.5745499299
C  C57  1  0.84087000  0.05024000  0.81147000  1.0 -0.0744923533
C  C58  1  0.71410000  0.86426000  0.57083000  1.0 -0.1061059142
C  C59  1  0.50470000  0.34878000  0.61267000  1.0 0.6103978545
C  C60  1  0.87484000  0.04862000  0.84694000  1.0 0.6103978545
C  C61  1  0.54670000  0.28473000  0.62413000  1.0 -0.0288534226
C  C62  1  0.70850000  0.79591000  0.62544000  1.0 -0.0990354387
C  C63  1  0.62570000  0.16972000  0.64792000  1.0 0.0706839148
C  C64  1  0.71700000  0.92663000  0.59055000  1.0 -0.1511732517
C  C65  1  0.71570000  0.92376000  0.62876000  1.0 0.0706839148
C  C66  1  0.77780000  0.05302000  0.74216000  1.0 0.0706839148
C  C67  1  0.77760000  0.08589000  0.80600000  1.0 -0.0888758528
C  C68  1  0.74670000  0.99169000  0.68423000  1.0 -0.2093820593
C  C69  1  0.61220000  0.29630000  0.64098000  1.0 -0.0990354387
C  C70  1  0.70920000  0.98730000  0.65160000  1.0 0.0706839148
C  C71  1  0.52410000  0.21714000  0.61826000  1.0 -0.1061059142
C  C72  1  0.71040000  0.85712000  0.64560000  1.0 -0.1581232756
C  C73  1  0.66790000  0.10737000  0.66074000  1.0 0.0706839148
C  C74  1  0.56080000  0.15978000  0.63101000  1.0 -0.1511732517
C  C75  1  0.74610000  0.08654000  0.77120000  1.0 -0.1581232756
C  C76  1  0.84340000  0.01769000  0.74745000  1.0 -0.1682090669
C  C77  1  0.87460000  0.01695000  0.78172000  1.0 -0.0990354387
C  C78  1  0.65010000  0.23784000  0.65330000  1.0 -0.1511732517
C  C79  1  0.74190000  0.05231000  0.70639000  1.0 0.0706839148
C  C80  1  0.70340000  0.10925000  0.69357000  1.0 -0.2093820593
C  C81  1  0.67440000  0.04825000  0.63979000  1.0 -0.2093820593
C  C82  1  0.29001000  0.20062000  0.58796000  1.0 -0.0288534226
C  C83  1  0.30014000  0.26709000  0.56689000  1.0 0.5745499299
C  C84  1  0.15913000  0.94976000  0.81147000  1.0 -0.0744923533
C  C85  1  0.28590000  0.13574000  0.57083000  1.0 -0.1061059142
C  C86  1  0.49530000  0.65122000  0.61267000  1.0 0.6103978545
C  C87  1  0.12516000  0.95138000  0.84694000  1.0 0.6103978545
C  C88  1  0.45330000  0.71527000  0.62413000  1.0 -0.0288534226
C  C89  1  0.29150000  0.20409000  0.62544000  1.0 -0.0990354387
C  C90  1  0.37430000  0.83028000  0.64792000  1.0 0.0706839148
C  C91  1  0.28300000  0.07337000  0.59055000  1.0 -0.1511732517
C  C92  1  0.28430000  0.07624000  0.62876000  1.0 0.0706839148
C  C93  1  0.22220000  0.94698000  0.74216000  1.0 0.0706839148
C  C94  1  0.22240000  0.91411000  0.80600000  1.0 -0.0888758528
C  C95  1  0.25330000  0.00831000  0.68423000  1.0 -0.2093820593
C  C96  1  0.38780000  0.70370000  0.64098000  1.0 -0.0990354387
C  C97  1  0.29080000  0.01270000  0.65160000  1.0 0.0706839148
C  C98  1  0.47590000  0.78286000  0.61826000  1.0 -0.1061059142
C  C99  1  0.28960000  0.14288000  0.64560000  1.0 -0.1581232756
C  C100  1  0.33210000  0.89263000  0.66074000  1.0 0.0706839148
C  C101  1  0.43920000  0.84022000  0.63101000  1.0 -0.1511732517
C  C102  1  0.25390000  0.91346000  0.77120000  1.0 -0.1581232756
C  C103  1  0.15660000  0.98231000  0.74745000  1.0 -0.1682090669
C  C104  1  0.12540000  0.98305000  0.78172000  1.0 -0.0990354387
C  C105  1  0.34990000  0.76216000  0.65330000  1.0 -0.1511732517
C  C106  1  0.25810000  0.94769000  0.70639000  1.0 0.0706839148
C  C107  1  0.29660000  0.89075000  0.69357000  1.0 -0.2093820593
C  C108  1  0.32560000  0.95175000  0.63979000  1.0 -0.2093820593
C  C109  1  0.20062000  0.29001000  0.41204000  1.0 -0.0288534226
C  C110  1  0.26709000  0.30014000  0.43311000  1.0 0.5745499299
C  C111  1  0.94976000  0.15913000  0.18853000  1.0 -0.0744923533
C  C112  1  0.13574000  0.28590000  0.42917000  1.0 -0.1061059142
C  C113  1  0.65122000  0.49530000  0.38733000  1.0 0.6103978545
C  C114  1  0.95138000  0.12516000  0.15306000  1.0 0.6103978545
C  C115  1  0.71527000  0.45330000  0.37587000  1.0 -0.0288534226
C  C116  1  0.20409000  0.29150000  0.37456000  1.0 -0.0990354387
C  C117  1  0.83028000  0.37430000  0.35208000  1.0 0.0706839148
C  C118  1  0.07337000  0.28300000  0.40945000  1.0 -0.1511732517
C  C119  1  0.07624000  0.28430000  0.37124000  1.0 0.0706839148
C  C120  1  0.94698000  0.22220000  0.25784000  1.0 0.0706839148
C  C121  1  0.91411000  0.22240000  0.19400000  1.0 -0.0888758528
C  C122  1  0.00831000  0.25330000  0.31577000  1.0 -0.2093820593
C  C123  1  0.70370000  0.38780000  0.35902000  1.0 -0.0990354387
C  C124  1  0.01270000  0.29080000  0.34840000  1.0 0.0706839148
C  C125  1  0.78286000  0.47590000  0.38174000  1.0 -0.1061059142
C  C126  1  0.14288000  0.28960000  0.35440000  1.0 -0.1581232756
C  C127  1  0.89263000  0.33210000  0.33926000  1.0 0.0706839148
C  C128  1  0.84022000  0.43920000  0.36899000  1.0 -0.1511732517
C  C129  1  0.91346000  0.25390000  0.22880000  1.0 -0.1581232756
C  C130  1  0.98231000  0.15660000  0.25255000  1.0 -0.1682090669
C  C131  1  0.98305000  0.12540000  0.21828000  1.0 -0.0990354387
C  C132  1  0.76216000  0.34990000  0.34670000  1.0 -0.1511732517
C  C133  1  0.94769000  0.25810000  0.29361000  1.0 0.0706839148
C  C134  1  0.89075000  0.29660000  0.30643000  1.0 -0.2093820593
C  C135  1  0.95175000  0.32560000  0.36021000  1.0 -0.2093820593
C  C136  1  0.79938000  0.70999000  0.41204000  1.0 -0.0288534226
C  C137  1  0.73291000  0.69986000  0.43311000  1.0 0.5745499299
C  C138  1  0.05024000  0.84087000  0.18853000  1.0 -0.0744923533
C  C139  1  0.86426000  0.71410000  0.42917000  1.0 -0.1061059142
C  C140  1  0.34878000  0.50470000  0.38733000  1.0 0.6103978545
C  C141  1  0.04862000  0.87484000  0.15306000  1.0 0.6103978545
C  C142  1  0.28473000  0.54670000  0.37587000  1.0 -0.0288534226
C  C143  1  0.79591000  0.70850000  0.37456000  1.0 -0.0990354387
C  C144  1  0.16972000  0.62570000  0.35208000  1.0 0.0706839148
C  C145  1  0.92663000  0.71700000  0.40945000  1.0 -0.1511732517
C  C146  1  0.92376000  0.71570000  0.37124000  1.0 0.0706839148
C  C147  1  0.05302000  0.77780000  0.25784000  1.0 0.0706839148
C  C148  1  0.08589000  0.77760000  0.19400000  1.0 -0.0888758528
C  C149  1  0.99169000  0.74670000  0.31577000  1.0 -0.2093820593
C  C150  1  0.29630000  0.61220000  0.35902000  1.0 -0.0990354387
C  C151  1  0.98730000  0.70920000  0.34840000  1.0 0.0706839148
C  C152  1  0.21714000  0.52410000  0.38174000  1.0 -0.1061059142
C  C153  1  0.85712000  0.71040000  0.35440000  1.0 -0.1581232756
C  C154  1  0.10737000  0.66790000  0.33926000  1.0 0.0706839148
C  C155  1  0.15978000  0.56080000  0.36899000  1.0 -0.1511732517
C  C156  1  0.08654000  0.74610000  0.22880000  1.0 -0.1581232756
C  C157  1  0.01769000  0.84340000  0.25255000  1.0 -0.1682090669
C  C158  1  0.01695000  0.87460000  0.21828000  1.0 -0.0990354387
C  C159  1  0.23784000  0.65010000  0.34670000  1.0 -0.1511732517
C  C160  1  0.05231000  0.74190000  0.29361000  1.0 0.0706839148
C  C161  1  0.10925000  0.70340000  0.30643000  1.0 -0.2093820593
C  C162  1  0.04825000  0.67440000  0.36021000  1.0 -0.2093820593
C  C163  1  0.79001000  0.29938000  0.91204000  1.0 -0.0288534226
C  C164  1  0.80014000  0.23291000  0.93311000  1.0 0.5745499299
C  C165  1  0.65913000  0.55024000  0.68853000  1.0 -0.0744923533
C  C166  1  0.78590000  0.36426000  0.92917000  1.0 -0.1061059142
C  C167  1  0.99530000  0.84878000  0.88733000  1.0 0.6103978545
C  C168  1  0.62516000  0.54862000  0.65306000  1.0 0.6103978545
C  C169  1  0.95330000  0.78473000  0.87587000  1.0 -0.0288534226
C  C170  1  0.79150000  0.29591000  0.87456000  1.0 -0.0990354387
C  C171  1  0.87430000  0.66972000  0.85208000  1.0 0.0706839148
C  C172  1  0.78300000  0.42663000  0.90945000  1.0 -0.1511732517
C  C173  1  0.78430000  0.42376000  0.87124000  1.0 0.0706839148
C  C174  1  0.72220000  0.55302000  0.75784000  1.0 0.0706839148
C  C175  1  0.72240000  0.58589000  0.69400000  1.0 -0.0888758528
C  C176  1  0.75330000  0.49169000  0.81577000  1.0 -0.2093820593
C  C177  1  0.88780000  0.79630000  0.85902000  1.0 -0.0990354387
C  C178  1  0.79080000  0.48730000  0.84840000  1.0 0.0706839148
C  C179  1  0.97590000  0.71714000  0.88174000  1.0 -0.1061059142
C  C180  1  0.78960000  0.35712000  0.85440000  1.0 -0.1581232756
C  C181  1  0.83210000  0.60737000  0.83926000  1.0 0.0706839148
C  C182  1  0.93920000  0.65978000  0.86899000  1.0 -0.1511732517
C  C183  1  0.75390000  0.58654000  0.72880000  1.0 -0.1581232756
C  C184  1  0.65660000  0.51769000  0.75255000  1.0 -0.1682090669
C  C185  1  0.62540000  0.51695000  0.71828000  1.0 -0.0990354387
C  C186  1  0.84990000  0.73784000  0.84670000  1.0 -0.1511732517
C  C187  1  0.75810000  0.55231000  0.79361000  1.0 0.0706839148
C  C188  1  0.79660000  0.60925000  0.80643000  1.0 -0.2093820593
C  C189  1  0.82560000  0.54825000  0.86021000  1.0 -0.2093820593
C  C190  1  0.20999000  0.70062000  0.91204000  1.0 -0.0288534226
C  C191  1  0.19986000  0.76709000  0.93311000  1.0 0.5745499299
C  C192  1  0.34087000  0.44976000  0.68853000  1.0 -0.0744923533
C  C193  1  0.21410000  0.63574000  0.92917000  1.0 -0.1061059142
C  C194  1  0.00470000  0.15122000  0.88733000  1.0 0.6103978545
C  C195  1  0.37484000  0.45138000  0.65306000  1.0 0.6103978545
C  C196  1  0.04670000  0.21527000  0.87587000  1.0 -0.0288534226
C  C197  1  0.20850000  0.70409000  0.87456000  1.0 -0.0990354387
C  C198  1  0.12570000  0.33028000  0.85208000  1.0 0.0706839148
C  C199  1  0.21700000  0.57337000  0.90945000  1.0 -0.1511732517
C  C200  1  0.21570000  0.57624000  0.87124000  1.0 0.0706839148
C  C201  1  0.27780000  0.44698000  0.75784000  1.0 0.0706839148
C  C202  1  0.27760000  0.41411000  0.69400000  1.0 -0.0888758528
C  C203  1  0.24670000  0.50831000  0.81577000  1.0 -0.2093820593
C  C204  1  0.11220000  0.20370000  0.85902000  1.0 -0.0990354387
C  C205  1  0.20920000  0.51270000  0.84840000  1.0 0.0706839148
C  C206  1  0.02410000  0.28286000  0.88174000  1.0 -0.1061059142
C  C207  1  0.21040000  0.64288000  0.85440000  1.0 -0.1581232756
C  C208  1  0.16790000  0.39263000  0.83926000  1.0 0.0706839148
C  C209  1  0.06080000  0.34022000  0.86899000  1.0 -0.1511732517
C  C210  1  0.24610000  0.41346000  0.72880000  1.0 -0.1581232756
C  C211  1  0.34340000  0.48231000  0.75255000  1.0 -0.1682090669
C  C212  1  0.37460000  0.48305000  0.71828000  1.0 -0.0990354387
C  C213  1  0.15010000  0.26216000  0.84670000  1.0 -0.1511732517
C  C214  1  0.24190000  0.44769000  0.79361000  1.0 0.0706839148
C  C215  1  0.20340000  0.39075000  0.80643000  1.0 -0.2093820593
C  C216  1  0.17440000  0.45175000  0.86021000  1.0 -0.2093820593
C  C217  1  0.00430000  0.75270000  0.05600000  0.52 0.0706839148
C  C218  1  0.95410000  0.75410000  0.08740000  0.52 -0.3178401574
C  C219  1  0.99570000  0.24730000  0.05600000  0.52 0.0706839148
C  C220  1  0.04590000  0.24590000  0.08740000  0.52 -0.3178401574
C  C221  1  0.74730000  0.50430000  0.55600000  0.52 0.0706839148
C  C222  1  0.74590000  0.45410000  0.58740000  0.52 -0.3178401574
C  C223  1  0.25270000  0.49570000  0.55600000  0.52 0.0637659148
C  C224  1  0.25410000  0.54590000  0.58740000  0.52 -0.3178401574
C  C225  1  0.49570000  0.25270000  0.44400000  0.52 0.0637659148
C  C226  1  0.54590000  0.25410000  0.41260000  0.52 -0.3178401574
C  C227  1  0.50430000  0.74730000  0.44400000  0.52 0.0706839148
C  C228  1  0.45410000  0.74590000  0.41260000  0.52 -0.3178401574
C  C229  1  0.75270000  0.00430000  0.94400000  0.52 0.0637659148
C  C230  1  0.75410000  0.95410000  0.91260000  0.52 -0.3178401574
C  C231  1  0.24730000  0.99570000  0.94400000  0.52 0.0637659148
C  C232  1  0.24590000  0.04590000  0.91260000  0.52 -0.3178401574
C  C233  1  0.05270000  0.74890000  0.03600000  0.48 0.012707062
C  C234  1  0.94730000  0.25110000  0.03600000  0.48 0.012707062
C  C235  1  0.75110000  0.55270000  0.53600000  0.48 0.012707062
C  C236  1  0.24890000  0.44730000  0.53600000  0.48 0.012707062
C  C237  1  0.44730000  0.24890000  0.46400000  0.48 0.012707062
C  C238  1  0.55270000  0.75110000  0.46400000  0.48 0.012707062
C  C239  1  0.74890000  0.05270000  0.96400000  0.48 0.012707062
C  C240  1  0.25110000  0.94730000  0.96400000  0.48 0.012707062
N  N1  1  0.05320000  0.72110000  0.00734000  0.52 -0.0806418874
N  N2  1  0.00260000  0.70320000  0.02886000  0.52 -0.0990354387
N  N3  1  0.08900000  0.77590000  0.01900000  0.52 -0.0139834748
N  N4  1  0.05430000  0.79400000  0.05250000  0.52 -0.0404661753
N  N5  1  0.94680000  0.27890000  0.00734000  0.52 -0.0806418874
N  N6  1  0.99740000  0.29680000  0.02886000  0.52 -0.0990354387
N  N7  1  0.91100000  0.22410000  0.01900000  0.52 -0.0139834748
N  N8  1  0.94570000  0.20600000  0.05250000  0.52 -0.0404661753
N  N9  1  0.77890000  0.55320000  0.50734000  0.52 -0.0806418874
N  N10  1  0.79680000  0.50260000  0.52886000  0.52 -0.0990354387
N  N11  1  0.72410000  0.58900000  0.51900000  0.52 -0.0139834748
N  N12  1  0.70600000  0.55430000  0.55250000  0.52 -0.0404661753
N  N13  1  0.22110000  0.44680000  0.50734000  0.52 -0.0806418874
N  N14  1  0.20320000  0.49740000  0.52886000  0.52 -0.0990354387
N  N15  1  0.27590000  0.41100000  0.51900000  0.52 -0.0139834748
N  N16  1  0.29400000  0.44570000  0.55250000  0.52 -0.0404661753
N  N17  1  0.44680000  0.22110000  0.49266000  0.52 -0.0806418874
N  N18  1  0.49740000  0.20320000  0.47114000  0.52 -0.0990354387
N  N19  1  0.41100000  0.27590000  0.48100000  0.52 -0.0139834748
N  N20  1  0.44570000  0.29400000  0.44750000  0.52 -0.0404661753
N  N21  1  0.55320000  0.77890000  0.49266000  0.52 -0.0806418874
N  N22  1  0.50260000  0.79680000  0.47114000  0.52 -0.0990354387
N  N23  1  0.58900000  0.72410000  0.48100000  0.52 -0.0139834748
N  N24  1  0.55430000  0.70600000  0.44750000  0.52 -0.0404661753
N  N25  1  0.72110000  0.05320000  0.99266000  0.52 -0.0806418874
N  N26  1  0.70320000  0.00260000  0.97114000  0.52 -0.0990354387
N  N27  1  0.77590000  0.08900000  0.98100000  0.52 -0.0139834748
N  N28  1  0.79400000  0.05430000  0.94750000  0.52 -0.0404661753
N  N29  1  0.27890000  0.94680000  0.99266000  0.52 -0.0806418874
N  N30  1  0.29680000  0.99740000  0.97114000  0.52 -0.0990354387
N  N31  1  0.22410000  0.91100000  0.98100000  0.52 -0.0139834748
N  N32  1  0.20600000  0.94570000  0.94750000  0.52 -0.0404661753
O  O1  1  0.23577000  0.79994000  0.03288000  1.0 -0.5451115578
O  O2  1  0.83884000  0.05803000  0.10162000  1.0 -0.5788775741
O  O3  1  0.17735000  0.80911000  0.08517000  1.0 -0.5642151221
O  O4  1  0.52302000  0.56361000  0.34914000  1.0 -0.5788775741
O  O5  1  0.90686000  0.96383000  0.11448000  1.0 -0.5788775741
O  O6  1  0.57489000  0.65951000  0.37332000  1.0 -0.5788775741
O  O7  1  0.13253000  0.89647000  0.03452000  1.0 -0.8553872316
O  O8  1  0.02414000  0.93263000  0.07815000  1.0 -0.929233162
O  O9  1  0.76423000  0.20006000  0.03288000  1.0 -0.543839237
O  O10  1  0.16116000  0.94197000  0.10162000  1.0 -0.5788775741
O  O11  1  0.82265000  0.19089000  0.08517000  1.0 -0.5642151221
O  O12  1  0.47698000  0.43639000  0.34914000  1.0 -0.5788775741
O  O13  1  0.09314000  0.03617000  0.11448000  1.0 -0.5788775741
O  O14  1  0.42511000  0.34049000  0.37332000  1.0 -0.5788775741
O  O15  1  0.86747000  0.10353000  0.03452000  1.0 -0.8553872316
O  O16  1  0.97586000  0.06737000  0.07815000  1.0 -0.929233162
O  O17  1  0.70006000  0.73577000  0.53288000  1.0 -0.5451115578
O  O18  1  0.44197000  0.33884000  0.60162000  1.0 -0.5788775741
O  O19  1  0.69089000  0.67735000  0.58517000  1.0 -0.5642151221
O  O20  1  0.93639000  0.02302000  0.84914000  1.0 -0.5788775741
O  O21  1  0.53617000  0.40686000  0.61448000  1.0 -0.5788775741
O  O22  1  0.84049000  0.07489000  0.87332000  1.0 -0.5788775741
O  O23  1  0.60353000  0.63253000  0.53452000  1.0 -0.8553872316
O  O24  1  0.56737000  0.52414000  0.57815000  1.0 -0.929233162
O  O25  1  0.29994000  0.26423000  0.53288000  1.0 -0.5451115578
O  O26  1  0.55803000  0.66116000  0.60162000  1.0 -0.5788775741
O  O27  1  0.30911000  0.32265000  0.58517000  1.0 -0.5642151221
O  O28  1  0.06361000  0.97698000  0.84914000  1.0 -0.5788775741
O  O29  1  0.46383000  0.59314000  0.61448000  1.0 -0.5788775741
O  O30  1  0.15951000  0.92511000  0.87332000  1.0 -0.5788775741
O  O31  1  0.39647000  0.36747000  0.53452000  1.0 -0.8553872316
O  O32  1  0.43263000  0.47586000  0.57815000  1.0 -0.929233162
O  O33  1  0.26423000  0.29994000  0.46712000  1.0 -0.5451115578
O  O34  1  0.66116000  0.55803000  0.39838000  1.0 -0.5788775741
O  O35  1  0.32265000  0.30911000  0.41483000  1.0 -0.5642151221
O  O36  1  0.97698000  0.06361000  0.15086000  1.0 -0.5788775741
O  O37  1  0.59314000  0.46383000  0.38552000  1.0 -0.5788775741
O  O38  1  0.92511000  0.15951000  0.12668000  1.0 -0.5788775741
O  O39  1  0.36747000  0.39647000  0.46548000  1.0 -0.8553872316
O  O40  1  0.47586000  0.43263000  0.42185000  1.0 -0.929233162
O  O41  1  0.73577000  0.70006000  0.46712000  1.0 -0.5451115578
O  O42  1  0.33884000  0.44197000  0.39838000  1.0 -0.5788775741
O  O43  1  0.67735000  0.69089000  0.41483000  1.0 -0.5642151221
O  O44  1  0.02302000  0.93639000  0.15086000  1.0 -0.5788775741
O  O45  1  0.40686000  0.53617000  0.38552000  1.0 -0.5788775741
O  O46  1  0.07489000  0.84049000  0.12668000  1.0 -0.5788775741
O  O47  1  0.63253000  0.60353000  0.46548000  1.0 -0.8553872316
O  O48  1  0.52414000  0.56737000  0.42185000  1.0 -0.929233162
O  O49  1  0.79994000  0.23577000  0.96712000  1.0 -0.543839237
O  O50  1  0.05803000  0.83884000  0.89838000  1.0 -0.5788775741
O  O51  1  0.80911000  0.17735000  0.91483000  1.0 -0.5642151221
O  O52  1  0.56361000  0.52302000  0.65086000  1.0 -0.5788775741
O  O53  1  0.96383000  0.90686000  0.88552000  1.0 -0.5788775741
O  O54  1  0.65951000  0.57489000  0.62668000  1.0 -0.5788775741
O  O55  1  0.89647000  0.13253000  0.96548000  1.0 -0.8553872316
O  O56  1  0.93263000  0.02414000  0.92185000  1.0 -0.929233162
O  O57  1  0.20006000  0.76423000  0.96712000  1.0 -0.5451115578
O  O58  1  0.94197000  0.16116000  0.89838000  1.0 -0.5788775741
O  O59  1  0.19089000  0.82265000  0.91483000  1.0 -0.5642151221
O  O60  1  0.43639000  0.47698000  0.65086000  1.0 -0.5788775741
O  O61  1  0.03617000  0.09314000  0.88552000  1.0 -0.5788775741
O  O62  1  0.34049000  0.42511000  0.62668000  1.0 -0.5788775741
O  O63  1  0.10353000  0.86747000  0.96548000  1.0 -0.8553872316
O  O64  1  0.06737000  0.97586000  0.92185000  1.0 -0.929233162
O  O65  1  0.10600000  0.75020000  0.01520000  0.48 -0.0888758528
O  O66  1  0.03750000  0.79230000  0.06780000  0.48 -0.0011695426
O  O67  1  0.89400000  0.24980000  0.01520000  0.48 -0.0888758528
O  O68  1  0.96250000  0.20770000  0.06780000  0.48 -0.0011695426
O  O69  1  0.74980000  0.60600000  0.51520000  0.48 -0.0888758528
O  O70  1  0.70770000  0.53750000  0.56780000  0.48 -0.0011695426
O  O71  1  0.25020000  0.39400000  0.51520000  0.48 -0.0888758528
O  O72  1  0.29230000  0.46250000  0.56780000  0.48 -0.0011695426
O  O73  1  0.39400000  0.25020000  0.48480000  0.48 -0.0888758528
O  O74  1  0.46250000  0.29230000  0.43220000  0.48 -0.0011695426
O  O75  1  0.60600000  0.74980000  0.48480000  0.48 -0.0888758528
O  O76  1  0.53750000  0.70770000  0.43220000  0.48 -0.0011695426
O  O77  1  0.75020000  0.10600000  0.98480000  0.48 -0.0888758528
O  O78  1  0.79230000  0.03750000  0.93220000  0.48 -0.0011695426
O  O79  1  0.24980000  0.89400000  0.98480000  0.48 -0.0888758528
O  O80  1  0.20770000  0.96250000  0.93220000  0.48 -0.0011695426
