# DDEC6 charges by PACMAN v1.1 (https://github.com/mtap-research/PACMAN-charge/)
data_2016[Ga][nan]3[ASR]3
_chemical_formula_sum              "Ga8 H32 C64 O40"
_cell_length_a       15.0535
_cell_length_b       15.0535
_cell_length_c       11.8737
_cell_angle_alpha    90
_cell_angle_beta     90
_cell_angle_gamma    90

_symmetry_space_group_name_H-M    "P 1"
_symmetry_Int_Tables_number       1

loop_
  _symmetry_equiv_pos_as_xyz
  'x, y, z'

loop_
  _atom_site_type_symbol
  _atom_site_label
  _atom_site_symmetry_multiplicity
  _atom_site_fract_x
  _atom_site_fract_y
  _atom_site_fract_z
  _atom_site_occupancy
  _atom_site_charge
Ga  Ga1       1.0  0.19466  0.19466  0.00000  1.0000 1.4321122944
Ga  Ga2       1.0  0.30534  0.30534  0.50000  1.0000 1.4321122944
Ga  Ga3       1.0  0.80534  0.69466  0.25000  1.0000 1.4321122944
Ga  Ga4       1.0  0.69466  0.80534  0.75000  1.0000 1.4321122944
Ga  Ga5       1.0  0.30534  0.19466  0.75000  1.0000 1.4321122944
Ga  Ga6       1.0  0.19466  0.30534  0.25000  1.0000 1.4321122944
Ga  Ga7       1.0  0.69466  0.69466  0.50000  1.0000 1.4321122944
Ga  Ga8       1.0  0.80534  0.80534  0.00000  1.0000 1.4321122944
H   H1        1.0  0.30790  0.25000  0.12500  1.0000 0.3985990762
H   H2        1.0  0.19210  0.25000  0.62500  1.0000 0.3985990762
H   H3        1.0  0.75000  0.80790  0.37500  1.0000 0.3985990762
H   H4        1.0  0.75000  0.69210  0.87500  1.0000 0.3985990762
H   H5        1.0  0.80790  0.75000  0.62500  1.0000 0.3985990762
H   H6        1.0  0.69210  0.75000  0.12500  1.0000 0.3985990762
H   H7        1.0  0.25000  0.30790  0.87500  1.0000 0.3985990762
H   H8        1.0  0.25000  0.19210  0.37500  1.0000 0.3985990762
H   H9        1.0  0.00000  0.50000  0.12820  1.0000 0.1405044227
H   H10       1.0  0.50000  0.00000  0.62820  1.0000 0.1405044227
H   H11       1.0  0.50000  0.50000  0.37820  1.0000 0.1405044227
H   H12       1.0  0.00000  0.00000  0.87820  1.0000 0.1405044227
H   H13       1.0  0.50000  0.50000  0.62180  1.0000 0.1405044227
H   H14       1.0  0.00000  0.00000  0.12180  1.0000 0.1405044227
H   H15       1.0  0.00000  0.50000  0.37180  1.0000 0.1405044227
H   H16       1.0  0.50000  0.00000  0.87180  1.0000 0.1405044227
H   H17       1.0  0.06500  0.38360  0.83340  1.0000 0.1213639259
H   H18       1.0  0.43500  0.11640  0.33340  1.0000 0.1213639259
H   H19       1.0  0.61640  0.56500  0.08340  1.0000 0.1213639259
H   H20       1.0  0.88360  0.93500  0.58340  1.0000 0.1213639259
H   H21       1.0  0.43500  0.38360  0.91660  1.0000 0.1213639259
H   H22       1.0  0.06500  0.11640  0.41660  1.0000 0.1213639259
H   H23       1.0  0.88360  0.56500  0.66667  1.0000 0.1213639259
H   H24       1.0  0.61640  0.93500  0.16660  1.0000 0.1213639259
H   H25       1.0  0.56500  0.88360  0.33340  1.0000 0.1213639259
H   H26       1.0  0.93500  0.61640  0.83340  1.0000 0.1213639259
H   H27       1.0  0.11640  0.06500  0.58340  1.0000 0.1213639259
H   H28       1.0  0.38360  0.43500  0.08340  1.0000 0.1213639259
H   H29       1.0  0.93500  0.88360  0.41660  1.0000 0.1213639259
H   H30       1.0  0.56500  0.61640  0.91660  1.0000 0.1213639259
H   H31       1.0  0.38360  0.06500  0.16660  1.0000 0.1213639259
H   H32       1.0  0.11640  0.43500  0.66667  1.0000 0.1213639259
C   C1        1.0  0.00000  0.50000  0.04990  1.0000 -0.105599244
C   C2        1.0  0.50000  0.00000  0.54990  1.0000 -0.105599244
C   C3        1.0  0.50000  0.50000  0.29990  1.0000 -0.105599244
C   C4        1.0  0.00000  0.00000  0.79990  1.0000 -0.105599244
C   C5        1.0  0.50000  0.50000  0.70010  1.0000 -0.105599244
C   C6        1.0  0.00000  0.00000  0.20010  1.0000 -0.105599244
C   C7        1.0  0.00000  0.50000  0.45010  1.0000 -0.105599244
C   C8        1.0  0.50000  0.00000  0.95010  1.0000 -0.105599244
C   C9        1.0  0.09270  0.36050  0.04810  1.0000 0.6088698312
C   C10       1.0  0.40730  0.13950  0.54810  1.0000 0.6088698312
C   C11       1.0  0.63950  0.59270  0.29810  1.0000 0.6088698312
C   C12       1.0  0.86050  0.90730  0.79810  1.0000 0.6088698312
C   C13       1.0  0.40730  0.36050  0.70190  1.0000 0.6088698312
C   C14       1.0  0.09270  0.13950  0.20190  1.0000 0.6088698312
C   C15       1.0  0.86050  0.59270  0.45190  1.0000 0.6088698312
C   C16       1.0  0.63950  0.90730  0.95190  1.0000 0.6088698312
C   C17       1.0  0.59270  0.86050  0.54810  1.0000 0.6088698312
C   C18       1.0  0.90730  0.63950  0.04810  1.0000 0.6088698312
C   C19       1.0  0.13950  0.09270  0.79810  1.0000 0.6088698312
C   C20       1.0  0.36050  0.40730  0.29810  1.0000 0.6088698312
C   C21       1.0  0.90730  0.86050  0.20190  1.0000 0.6088698312
C   C22       1.0  0.59270  0.63950  0.70190  1.0000 0.6088698312
C   C23       1.0  0.36050  0.09270  0.95190  1.0000 0.6088698312
C   C24       1.0  0.13950  0.40730  0.45190  1.0000 0.6088698312
C   C25       1.0  0.04130  0.43050  0.98880  1.0000 -0.0376414926
C   C26       1.0  0.45870  0.06950  0.48880  1.0000 -0.0376414926
C   C27       1.0  0.56950  0.54130  0.23880  1.0000 -0.0376414926
C   C28       1.0  0.93050  0.95870  0.73880  1.0000 -0.0376414926
C   C29       1.0  0.45870  0.43050  0.76120  1.0000 -0.0376414926
C   C30       1.0  0.04130  0.06950  0.26120  1.0000 -0.0376414926
C   C31       1.0  0.93050  0.54130  0.51120  1.0000 -0.0376414926
C   C32       1.0  0.56950  0.95870  0.01120  1.0000 -0.0376414926
C   C33       1.0  0.54130  0.93050  0.48880  1.0000 -0.0376414926
C   C34       1.0  0.95870  0.56950  0.98880  1.0000 -0.0376414926
C   C35       1.0  0.06950  0.04130  0.73880  1.0000 -0.0376414926
C   C36       1.0  0.43050  0.45870  0.23880  1.0000 -0.0376414926
C   C37       1.0  0.95870  0.93050  0.26120  1.0000 -0.0376414926
C   C38       1.0  0.54130  0.56950  0.76120  1.0000 -0.0376414926
C   C39       1.0  0.43050  0.04130  0.01120  1.0000 -0.0376414926
C   C40       1.0  0.06950  0.45870  0.51120  1.0000 -0.0376414926
C   C41       1.0  0.00000  0.50000  0.81300  1.0000 0.0696046083
C   C42       1.0  0.50000  0.00000  0.31300  1.0000 0.0696046083
C   C43       1.0  0.50000  0.50000  0.06300  1.0000 0.0696046083
C   C44       1.0  0.00000  0.00000  0.56300  1.0000 0.0696046083
C   C45       1.0  0.50000  0.50000  0.93700  1.0000 0.0696046083
C   C46       1.0  0.00000  0.00000  0.43700  1.0000 0.0696046083
C   C47       1.0  0.00000  0.50000  0.68700  1.0000 0.0696046083
C   C48       1.0  0.50000  0.00000  0.18700  1.0000 0.0696046083
C   C49       1.0  0.03950  0.43060  0.87260  1.0000 -0.1389928841
C   C50       1.0  0.46050  0.06940  0.37260  1.0000 -0.1389928841
C   C51       1.0  0.56940  0.53950  0.12260  1.0000 -0.1389928841
C   C52       1.0  0.93060  0.96050  0.62260  1.0000 -0.1389928841
C   C53       1.0  0.46050  0.43060  0.87740  1.0000 -0.1389928841
C   C54       1.0  0.03950  0.06940  0.37740  1.0000 -0.1389928841
C   C55       1.0  0.93060  0.53950  0.62740  1.0000 -0.1389928841
C   C56       1.0  0.56940  0.96050  0.12740  1.0000 -0.1389928841
C   C57       1.0  0.53950  0.93060  0.37260  1.0000 -0.1389928841
C   C58       1.0  0.96050  0.56940  0.87260  1.0000 -0.1389928841
C   C59       1.0  0.06940  0.03950  0.62260  1.0000 -0.1389928841
C   C60       1.0  0.43060  0.46050  0.12260  1.0000 -0.1389928841
C   C61       1.0  0.96050  0.93060  0.37740  1.0000 -0.1389928841
C   C62       1.0  0.53950  0.56940  0.87740  1.0000 -0.1389928841
C   C63       1.0  0.43060  0.03950  0.12740  1.0000 -0.1389928841
C   C64       1.0  0.06940  0.46050  0.62740  1.0000 -0.1389928841
O   O1        1.0  0.09970  0.28620  0.99990  1.0000 -0.5577884138
O   O2        1.0  0.40030  0.21380  0.49990  1.0000 -0.5577884138
O   O3        1.0  0.71380  0.59970  0.24990  1.0000 -0.5577884138
O   O4        1.0  0.78620  0.90030  0.74990  1.0000 -0.5577884138
O   O5        1.0  0.40030  0.28620  0.75010  1.0000 -0.5577884138
O   O6        1.0  0.09970  0.21380  0.25010  1.0000 -0.5577884138
O   O7        1.0  0.78620  0.59970  0.50010  1.0000 -0.5577884138
O   O8        1.0  0.71380  0.90030  0.00010  1.0000 -0.5577884138
O   O9        1.0  0.59970  0.78620  0.49990  1.0000 -0.5577884138
O   O10       1.0  0.90030  0.71380  0.99990  1.0000 -0.5577884138
O   O11       1.0  0.21380  0.09970  0.74990  1.0000 -0.5577884138
O   O12       1.0  0.28620  0.40030  0.24990  1.0000 -0.5577884138
O   O13       1.0  0.90030  0.78620  0.25010  1.0000 -0.5577884138
O   O14       1.0  0.59970  0.71380  0.75010  1.0000 -0.5577884138
O   O15       1.0  0.28620  0.09970  0.00010  1.0000 -0.5577884138
O   O16       1.0  0.21380  0.40030  0.50010  1.0000 -0.5577884138
O   O17       1.0  0.25230  0.25000  0.12500  1.0000 -0.8645483673
O   O18       1.0  0.24770  0.25000  0.62500  1.0000 -0.8645483673
O   O19       1.0  0.75000  0.75230  0.37500  1.0000 -0.8645483673
O   O20       1.0  0.75000  0.74770  0.87500  1.0000 -0.8645483673
O   O21       1.0  0.75230  0.75000  0.62500  1.0000 -0.8645483673
O   O22       1.0  0.74770  0.75000  0.12500  1.0000 -0.8652014554
O   O23       1.0  0.25000  0.25230  0.87500  1.0000 -0.8645483673
O   O24       1.0  0.25000  0.24770  0.37500  1.0000 -0.8645483673
O   O25       1.0  0.12610  0.11850  0.10750  1.0000 -0.5311065437
O   O26       1.0  0.37390  0.38150  0.60750  1.0000 -0.5311065437
O   O27       1.0  0.88150  0.62610  0.35750  1.0000 -0.5311065437
O   O28       1.0  0.61850  0.87390  0.85750  1.0000 -0.5311065437
O   O29       1.0  0.37390  0.11850  0.64250  1.0000 -0.5311065437
O   O30       1.0  0.12610  0.38150  0.14250  1.0000 -0.5311065437
O   O31       1.0  0.61850  0.62610  0.39250  1.0000 -0.5311065437
O   O32       1.0  0.88150  0.87390  0.89250  1.0000 -0.5311065437
O   O33       1.0  0.62610  0.61850  0.60750  1.0000 -0.5311065437
O   O34       1.0  0.87390  0.88150  0.10750  1.0000 -0.5311065437
O   O35       1.0  0.38150  0.12610  0.85750  1.0000 -0.5311065437
O   O36       1.0  0.11850  0.37390  0.35750  1.0000 -0.5311065437
O   O37       1.0  0.87390  0.61850  0.14250  1.0000 -0.5311065437
O   O38       1.0  0.62610  0.88150  0.64250  1.0000 -0.5311065437
O   O39       1.0  0.11850  0.12610  0.89250  1.0000 -0.5311065437
O   O40       1.0  0.38150  0.37390  0.39250  1.0000 -0.5311065437
