# DDEC6 charges by PACMAN v1.1 (https://github.com/mtap-research/PACMAN-charge/)
data_2017[Zn][dia]3[ASR]5
_chemical_formula_sum              "Zn4 H96 C156 S8 N8 O16 F24"
_cell_length_a       7.166
_cell_length_b       24.54
_cell_length_c       29.48
_cell_angle_alpha    90
_cell_angle_beta     90
_cell_angle_gamma    90

_symmetry_space_group_name_H-M    "P 1"
_symmetry_Int_Tables_number       1

loop_
  _symmetry_equiv_pos_as_xyz
  'x, y, z'

loop_
  _atom_site_type_symbol
  _atom_site_label
  _atom_site_symmetry_multiplicity
  _atom_site_fract_x
  _atom_site_fract_y
  _atom_site_fract_z
  _atom_site_occupancy
  _atom_site_charge
Zn  Zn1       1.0  0.91523  0.96234  0.26744  1.0000 0.7476875487
Zn  Zn2       1.0  0.58477  0.03766  0.76744  1.0000 0.7476875487
Zn  Zn3       1.0  0.41523  0.53766  0.73256  1.0000 0.7476875487
Zn  Zn4       1.0  0.08477  0.46234  0.23256  1.0000 0.7476875487
H   H1        1.0  0.76489  0.84249  0.48470  1.0000 0.1320340586
H   H2        1.0  0.73511  0.15751  0.98470  1.0000 0.1320340586
H   H3        1.0  0.26489  0.65751  0.51530  1.0000 0.1320340586
H   H4        1.0  0.23511  0.34249  0.01530  1.0000 0.1320340586
H   H5        1.0  0.73112  0.93462  0.72925  1.0000 0.1138556597
H   H6        1.0  0.76888  0.06538  0.22925  1.0000 0.1138556597
H   H7        1.0  0.23112  0.56538  0.27075  1.0000 0.1138556597
H   H8        1.0  0.26888  0.43462  0.77075  1.0000 0.1138556597
H   H9        1.0  0.12844  0.12530  0.25238  1.0000 0.1190562625
H   H10       1.0  0.37156  0.87470  0.75238  1.0000 0.1190562625
H   H11       1.0  0.62844  0.37470  0.74762  1.0000 0.1190562625
H   H12       1.0  0.87156  0.62530  0.24762  1.0000 0.1190562625
H   H13       1.0  0.18679  0.05197  0.68126  1.0000 0.1406509548
H   H14       1.0  0.31321  0.94803  0.18126  1.0000 0.1406509548
H   H15       1.0  0.68679  0.44803  0.31874  1.0000 0.1406509548
H   H16       1.0  0.81321  0.55197  0.81874  1.0000 0.1406509548
H   H17       1.0  0.53725  0.95990  0.31373  1.0000 0.1138556597
H   H18       1.0  0.96275  0.04010  0.81373  1.0000 0.1138556597
H   H19       1.0  0.03725  0.54010  0.68627  1.0000 0.1138556597
H   H20       1.0  0.46275  0.45990  0.18627  1.0000 0.1138556597
H   H21       1.0  0.47533  0.06408  0.34524  1.0000 0.1190562625
H   H22       1.0  0.02467  0.93592  0.84524  1.0000 0.1190562625
H   H23       1.0  0.97533  0.43592  0.65476  1.0000 0.1190562625
H   H24       1.0  0.52467  0.56408  0.15476  1.0000 0.1190562625
H   H25       1.0  0.01897  0.90248  0.34964  1.0000 0.1190562625
H   H26       1.0  0.48103  0.09752  0.84964  1.0000 0.1190562625
H   H27       1.0  0.51897  0.59752  0.65036  1.0000 0.1190562625
H   H28       1.0  0.98103  0.40248  0.15036  1.0000 0.1190562625
H   H29       1.0  0.63763  0.35078  0.25064  1.0000 0.1190562625
H   H30       1.0  0.86237  0.64922  0.75064  1.0000 0.1190562625
H   H31       1.0  0.13763  0.14922  0.74936  1.0000 0.1190562625
H   H32       1.0  0.36237  0.85078  0.24936  1.0000 0.1190562625
H   H33       1.0  0.87873  0.18953  0.30480  1.0000 0.1138556597
H   H34       1.0  0.62127  0.81047  0.80480  1.0000 0.1138556597
H   H35       1.0  0.37873  0.31047  0.69520  1.0000 0.1138556597
H   H36       1.0  0.12127  0.68953  0.19520  1.0000 0.1138556597
H   H37       1.0  0.40460  0.93150  0.37956  1.0000 0.1406509548
H   H38       1.0  0.09540  0.06850  0.87956  1.0000 0.1406509548
H   H39       1.0  0.90460  0.56850  0.62044  1.0000 0.1406509548
H   H40       1.0  0.59540  0.43150  0.12044  1.0000 0.1406509548
H   H41       1.0  0.31712  0.20035  0.24605  1.0000 0.1190562625
H   H42       1.0  0.18288  0.79965  0.74605  1.0000 0.1190562625
H   H43       1.0  0.81712  0.29965  0.75395  1.0000 0.1190562625
H   H44       1.0  0.68288  0.70035  0.25395  1.0000 0.1190562625
H   H45       1.0  0.26064  0.86958  0.66243  1.0000 0.1320340586
H   H46       1.0  0.23936  0.13042  0.16243  1.0000 0.1320340586
H   H47       1.0  0.76064  0.63042  0.33757  1.0000 0.1320340586
H   H48       1.0  0.73936  0.36958  0.83757  1.0000 0.1320340586
H   H49       1.0  0.98271  0.90141  0.69115  1.0000 0.1320340586
H   H50       1.0  0.51729  0.09859  0.19115  1.0000 0.1320340586
H   H51       1.0  0.48271  0.59859  0.30885  1.0000 0.1320340586
H   H52       1.0  0.01729  0.40141  0.80885  1.0000 0.1320340586
H   H53       1.0  0.66339  0.14064  0.33900  1.0000 0.1190562625
H   H54       1.0  0.83661  0.85936  0.83900  1.0000 0.1190562625
H   H55       1.0  0.16339  0.35936  0.66100  1.0000 0.1190562625
H   H56       1.0  0.33661  0.64064  0.16100  1.0000 0.1190562625
H   H57       1.0  0.82768  0.92889  0.58934  1.0000 0.1406509548
H   H58       1.0  0.67232  0.07111  0.08934  1.0000 0.1406509548
H   H59       1.0  0.32768  0.57111  0.41066  1.0000 0.1406509548
H   H60       1.0  0.17232  0.42889  0.91066  1.0000 0.1406509548
H   H61       1.0  0.76443  0.98958  0.58304  1.0000 0.1406509548
H   H62       1.0  0.73557  0.01042  0.08304  1.0000 0.1406509548
H   H63       1.0  0.26443  0.51042  0.41696  1.0000 0.1406509548
H   H64       1.0  0.23557  0.48958  0.91696  1.0000 0.1406509548
H   H65       1.0  0.69896  0.94495  0.54847  1.0000 0.1406509548
H   H66       1.0  0.80104  0.05505  0.04847  1.0000 0.1406509548
H   H67       1.0  0.19896  0.55505  0.45153  1.0000 0.1406509548
H   H68       1.0  0.30104  0.44495  0.95153  1.0000 0.1406509548
H   H69       1.0  0.07285  0.26204  0.29027  1.0000 0.1190562625
H   H70       1.0  0.42715  0.73796  0.79027  1.0000 0.1190562625
H   H71       1.0  0.57285  0.23796  0.70973  1.0000 0.1190562625
H   H72       1.0  0.92715  0.76204  0.20973  1.0000 0.1190562625
H   H73       1.0  0.90254  0.87559  0.41745  1.0000 0.1320340586
H   H74       1.0  0.59746  0.12441  0.91745  1.0000 0.1320340586
H   H75       1.0  0.40254  0.62441  0.58255  1.0000 0.1320340586
H   H76       1.0  0.09746  0.37559  0.08255  1.0000 0.1320340586
H   H77       1.0  0.91636  0.08290  0.71473  1.0000 0.1190562625
H   H78       1.0  0.58364  0.91710  0.21473  1.0000 0.1190562625
H   H79       1.0  0.41636  0.41710  0.28527  1.0000 0.1190562625
H   H80       1.0  0.08364  0.58290  0.78527  1.0000 0.1190562625
H   H81       1.0  0.44334  0.27928  0.26379  1.0000 0.1190562625
H   H82       1.0  0.05666  0.72072  0.76379  1.0000 0.1190562625
H   H83       1.0  0.94334  0.22072  0.73621  1.0000 0.1190562625
H   H84       1.0  0.55666  0.77928  0.23621  1.0000 0.1190562625
H   H85       1.0  0.19511  0.83143  0.56741  1.0000 0.1406509548
H   H86       1.0  0.30489  0.16857  0.06741  1.0000 0.1406509548
H   H87       1.0  0.69511  0.66857  0.43259  1.0000 0.1406509548
H   H88       1.0  0.80489  0.33143  0.93259  1.0000 0.1406509548
H   H89       1.0  0.06938  0.84916  0.52647  1.0000 0.1406509548
H   H90       1.0  0.43062  0.15084  0.02647  1.0000 0.1406509548
H   H91       1.0  0.56938  0.65084  0.47353  1.0000 0.1406509548
H   H92       1.0  0.93062  0.34916  0.97353  1.0000 0.1406509548
H   H93       1.0  0.14901  0.89320  0.55978  1.0000 0.1406509548
H   H94       1.0  0.35099  0.10680  0.05978  1.0000 0.1406509548
H   H95       1.0  0.64901  0.60680  0.44022  1.0000 0.1406509548
H   H96       1.0  0.85099  0.39320  0.94022  1.0000 0.1406509548
C   C1        1.0  0.57840  0.81900  0.56569  1.0000 -0.0883578544
C   C2        1.0  0.92160  0.18100  0.06569  1.0000 -0.0883578544
C   C3        1.0  0.07840  0.68100  0.43431  1.0000 -0.0883578544
C   C4        1.0  0.42160  0.31900  0.93431  1.0000 -0.0883578544
C   C5        1.0  0.55920  0.88080  0.45090  1.0000 -0.0289133179
C   C6        1.0  0.94080  0.11920  0.95090  1.0000 -0.0289133179
C   C7        1.0  0.05920  0.61920  0.54910  1.0000 -0.0289133179
C   C8        1.0  0.44080  0.38080  0.04910  1.0000 -0.0289133179
C   C9        1.0  0.28290  0.08600  0.29860  1.0000 -0.0394592469
C   C10       1.0  0.21710  0.91400  0.79860  1.0000 -0.0394592469
C   C11       1.0  0.78290  0.41400  0.70140  1.0000 -0.0394592469
C   C12       1.0  0.71710  0.58600  0.20140  1.0000 -0.0394592469
C   C13       1.0  0.87550  0.31550  0.27020  1.0000 -0.0394592469
C   C14       1.0  0.62450  0.68450  0.77020  1.0000 -0.0394592469
C   C15       1.0  0.37550  0.18450  0.72980  1.0000 -0.0394592469
C   C16       1.0  0.12450  0.81550  0.22980  1.0000 -0.0394592469
C   C17       1.0  0.00360  0.36170  0.26250  1.0000 0.5511430803
C   C18       1.0  0.49640  0.63830  0.76250  1.0000 0.5511430803
C   C19       1.0  0.50360  0.13830  0.73750  1.0000 0.5511430803
C   C20       1.0  0.99640  0.86170  0.23750  1.0000 0.5511430803
C   C21       1.0  0.64150  0.85420  0.48567  1.0000 -0.2070018349
C   C22       1.0  0.85850  0.14580  0.98567  1.0000 -0.2070018349
C   C23       1.0  0.14150  0.64580  0.51433  1.0000 -0.2070018349
C   C24       1.0  0.35850  0.35420  0.01433  1.0000 -0.2070018349
C   C25       1.0  0.82250  0.95880  0.71940  1.0000 0.0724520394
C   C26       1.0  0.67750  0.04120  0.21940  1.0000 0.0724520394
C   C27       1.0  0.32250  0.54120  0.28060  1.0000 0.0724520394
C   C28       1.0  0.17750  0.45880  0.78060  1.0000 0.0724520394
C   C29       1.0  0.55860  0.83950  0.60853  1.0000 -0.0821092424
C   C30       1.0  0.94140  0.16050  0.10853  1.0000 -0.0821092424
C   C31       1.0  0.05860  0.66050  0.39147  1.0000 -0.0821092424
C   C32       1.0  0.44140  0.33950  0.89147  1.0000 -0.0821092424
C   C33       1.0  0.23700  0.12750  0.26960  1.0000 -0.105866581
C   C34       1.0  0.26300  0.87250  0.76960  1.0000 -0.105866581
C   C35       1.0  0.73700  0.37250  0.73040  1.0000 -0.105866581
C   C36       1.0  0.76300  0.62750  0.23040  1.0000 -0.105866581
C   C37       1.0  0.63630  0.89850  0.40750  1.0000 0.1320340586
C   C38       1.0  0.86370  0.10150  0.90750  1.0000 0.1320340586
C   C39       1.0  0.13630  0.60150  0.59250  1.0000 0.1320340586
C   C40       1.0  0.36370  0.39850  0.09250  1.0000 0.1320340586
C   C41       1.0  0.27790  0.95120  0.65668  1.0000 -0.0289133179
C   C42       1.0  0.22210  0.04880  0.15668  1.0000 -0.0289133179
C   C43       1.0  0.77790  0.54880  0.34332  1.0000 -0.0289133179
C   C44       1.0  0.72210  0.45120  0.84332  1.0000 -0.0289133179
C   C45       1.0  0.09400  0.02750  0.68970  1.0000 -0.186483789
C   C46       1.0  0.40600  0.97250  0.18970  1.0000 -0.186483789
C   C47       1.0  0.59400  0.47250  0.31030  1.0000 -0.186483789
C   C48       1.0  0.90600  0.52750  0.81030  1.0000 -0.186483789
C   C49       1.0  0.52360  0.84550  0.52400  1.0000 0.0300542528
C   C50       1.0  0.97640  0.15450  0.02400  1.0000 0.0300542528
C   C51       1.0  0.02360  0.65450  0.47600  1.0000 0.0300542528
C   C52       1.0  0.47640  0.34550  0.97600  1.0000 0.0300542528
C   C53       1.0  0.61210  0.94260  0.33510  1.0000 0.0978800731
C   C54       1.0  0.88790  0.05740  0.83510  1.0000 0.0978800731
C   C55       1.0  0.11210  0.55740  0.66490  1.0000 0.0978800731
C   C56       1.0  0.38790  0.44260  0.16490  1.0000 0.0978800731
C   C57       1.0  0.51140  0.17790  0.28930  1.0000 0.0724520394
C   C58       1.0  0.98860  0.82210  0.78930  1.0000 0.0724520394
C   C59       1.0  0.01140  0.32210  0.71070  1.0000 0.0724520394
C   C60       1.0  0.48860  0.67790  0.21070  1.0000 0.0724520394
C   C61       1.0  0.44370  0.09140  0.32480  1.0000 -0.0988921688
C   C62       1.0  0.05630  0.90860  0.82480  1.0000 -0.0988921688
C   C63       1.0  0.94370  0.40860  0.67520  1.0000 -0.0988921688
C   C64       1.0  0.55630  0.59140  0.17520  1.0000 -0.0988921688
C   C65       1.0  0.34480  0.86480  0.51571  1.0000 0.0433953285
C   C66       1.0  0.15520  0.13520  0.01571  1.0000 0.0433953285
C   C67       1.0  0.84480  0.63520  0.48429  1.0000 0.0433953285
C   C68       1.0  0.65520  0.36480  0.98429  1.0000 0.0433953285
C   C69       1.0  0.62110  0.79800  0.64310  1.0000 0.3433647829
C   C70       1.0  0.87890  0.20200  0.14310  1.0000 0.3433647829
C   C71       1.0  0.12110  0.70200  0.35690  1.0000 0.3433647829
C   C72       1.0  0.37890  0.29800  0.85690  1.0000 0.3433647829
C   C73       1.0  0.11260  0.97300  0.68091  1.0000 0.1320340586
C   C74       1.0  0.38740  0.02700  0.18091  1.0000 0.1320340586
C   C75       1.0  0.61260  0.52700  0.31909  1.0000 0.1320340586
C   C76       1.0  0.88740  0.47300  0.81909  1.0000 0.1320340586
C   C77       1.0  0.66490  0.76350  0.56650  1.0000 0.3458126488
C   C78       1.0  0.83510  0.23650  0.06650  1.0000 0.3458126488
C   C79       1.0  0.16490  0.73650  0.43350  1.0000 0.3458126488
C   C80       1.0  0.33510  0.26350  0.93350  1.0000 0.3458126488
C   C81       1.0  0.48570  0.89260  0.62222  1.0000 0.0151528923
C   C82       1.0  0.01430  0.10740  0.12222  1.0000 0.0151528923
C   C83       1.0  0.98570  0.60740  0.37778  1.0000 0.0151528923
C   C84       1.0  0.51430  0.39260  0.87778  1.0000 0.0151528923
C   C85       1.0  0.89430  0.90950  0.35620  1.0000 0.0894393327
C   C86       1.0  0.60570  0.09050  0.85620  1.0000 0.0894393327
C   C87       1.0  0.39430  0.59050  0.64380  1.0000 0.0894393327
C   C88       1.0  0.10570  0.40950  0.14380  1.0000 0.0894393327
C   C89       1.0  0.68740  0.31840  0.26170  1.0000 -0.0883578544
C   C90       1.0  0.81260  0.68160  0.76170  1.0000 -0.0883578544
C   C91       1.0  0.18740  0.18160  0.73830  1.0000 -0.0883578544
C   C92       1.0  0.31260  0.81840  0.23830  1.0000 -0.0883578544
C   C93       1.0  0.71660  0.75320  0.61690  1.0000 0.2524227204
C   C94       1.0  0.78340  0.24680  0.11690  1.0000 0.2524227204
C   C95       1.0  0.21660  0.74680  0.38310  1.0000 0.2524227204
C   C96       1.0  0.28340  0.25320  0.88310  1.0000 0.2524227204
C   C97       1.0  0.63590  0.22520  0.28380  1.0000 0.0724520394
C   C98       1.0  0.86410  0.77480  0.78380  1.0000 0.0724520394
C   C99       1.0  0.13590  0.27480  0.71620  1.0000 0.0724520394
C   C100      1.0  0.36410  0.72520  0.21620  1.0000 0.0724520394
C   C101      1.0  0.82930  0.22170  0.29320  1.0000 -0.1507673342
C   C102      1.0  0.67070  0.77830  0.79320  1.0000 -0.1507673342
C   C103      1.0  0.32930  0.27830  0.70680  1.0000 -0.1507673342
C   C104      1.0  0.17070  0.72170  0.20680  1.0000 -0.1507673342
C   C105      1.0  0.53100  0.92530  0.37460  1.0000 -0.19986313
C   C106      1.0  0.96900  0.07470  0.87460  1.0000 -0.19986313
C   C107      1.0  0.03100  0.57470  0.62540  1.0000 -0.19986313
C   C108      1.0  0.46900  0.42530  0.12540  1.0000 -0.19986313
C   C109      1.0  0.55830  0.94140  0.60830  1.0000 0.0433953285
C   C110      1.0  0.94170  0.05860  0.10830  1.0000 0.0433953285
C   C111      1.0  0.05830  0.55860  0.39170  1.0000 0.0433953285
C   C112      1.0  0.44170  0.44140  0.89170  1.0000 0.0433953285
C   C113      1.0  0.35180  0.17250  0.26570  1.0000 -0.1507673342
C   C114      1.0  0.14820  0.82750  0.76570  1.0000 -0.1507673342
C   C115      1.0  0.85180  0.32750  0.73430  1.0000 -0.1507673342
C   C116      1.0  0.64820  0.67250  0.23430  1.0000 -0.1507673342
C   C117      1.0  0.32580  0.89880  0.65003  1.0000 -0.19986313
C   C118      1.0  0.17420  0.10120  0.15003  1.0000 -0.19986313
C   C119      1.0  0.82580  0.60120  0.34997  1.0000 -0.19986313
C   C120      1.0  0.67420  0.39880  0.84997  1.0000 -0.19986313
C   C121      1.0  0.97350  0.93870  0.69640  1.0000 -0.1800537703
C   C122      1.0  0.52650  0.06130  0.19640  1.0000 -0.1800537703
C   C123      1.0  0.47350  0.56130  0.30360  1.0000 -0.1800537703
C   C124      1.0  0.02650  0.43870  0.80360  1.0000 -0.1800537703
C   C125      1.0  0.17190  0.03480  0.30010  1.0000 0.5511430803
C   C126      1.0  0.32810  0.96520  0.80010  1.0000 0.5511430803
C   C127      1.0  0.67190  0.46520  0.69990  1.0000 0.5511430803
C   C128      1.0  0.82810  0.53480  0.19990  1.0000 0.5511430803
C   C129      1.0  0.55770  0.13710  0.32090  1.0000 -0.1507673342
C   C130      1.0  0.94230  0.86290  0.82090  1.0000 -0.1507673342
C   C131      1.0  0.05770  0.36290  0.67910  1.0000 -0.1507673342
C   C132      1.0  0.44230  0.63710  0.17910  1.0000 -0.1507673342
C   C133      1.0  0.72760  0.95220  0.57970  1.0000 -0.4302658138
C   C134      1.0  0.77240  0.04780  0.07970  1.0000 -0.4302658138
C   C135      1.0  0.22760  0.54780  0.42030  1.0000 -0.4302658138
C   C136      1.0  0.27240  0.45220  0.92030  1.0000 -0.4302658138
C   C137      1.0  0.94530  0.26570  0.28530  1.0000 -0.0988921688
C   C138      1.0  0.55470  0.73430  0.78530  1.0000 -0.0988921688
C   C139      1.0  0.44530  0.23430  0.71470  1.0000 -0.0988921688
C   C140      1.0  0.05470  0.76570  0.21470  1.0000 -0.0988921688
C   C141      1.0  0.82330  0.89210  0.39660  1.0000 -0.186483789
C   C142      1.0  0.67670  0.10790  0.89660  1.0000 -0.186483789
C   C143      1.0  0.32330  0.60790  0.60340  1.0000 -0.186483789
C   C144      1.0  0.17670  0.39210  0.10340  1.0000 -0.186483789
C   C145      1.0  0.93330  0.04550  0.71150  1.0000 0.0894393327
C   C146      1.0  0.56670  0.95450  0.21150  1.0000 0.0894393327
C   C147      1.0  0.43330  0.45450  0.28850  1.0000 0.0894393327
C   C148      1.0  0.06670  0.54550  0.78850  1.0000 0.0894393327
C   C149      1.0  0.57050  0.27500  0.26900  1.0000 -0.1387429831
C   C150      1.0  0.92950  0.72500  0.76900  1.0000 -0.1387429831
C   C151      1.0  0.07050  0.22500  0.73100  1.0000 -0.1387429831
C   C152      1.0  0.42950  0.77500  0.23100  1.0000 -0.1387429831
C   C153      1.0  0.17420  0.85910  0.54500  1.0000 -0.4667042789
C   C154      1.0  0.32580  0.14090  0.04500  1.0000 -0.4667042789
C   C155      1.0  0.67420  0.64090  0.45500  1.0000 -0.4667042789
C   C156      1.0  0.82580  0.35910  0.95500  1.0000 -0.4667042789
S   S1        1.0  0.43450  0.99398  0.63057  1.0000 0.1138556597
S   S2        1.0  0.06550  0.00602  0.13057  1.0000 0.1138556597
S   S3        1.0  0.93450  0.50602  0.36943  1.0000 0.1138556597
S   S4        1.0  0.56550  0.49398  0.86943  1.0000 0.1138556597
S   S5        1.0  0.32600  0.89255  0.46300  1.0000 0.078732733
S   S6        1.0  0.17400  0.10745  0.96300  1.0000 0.078732733
S   S7        1.0  0.82600  0.60745  0.53700  1.0000 0.078732733
S   S8        1.0  0.67400  0.39255  0.03700  1.0000 0.078732733
N   N1        1.0  0.80150  0.01244  0.72813  1.0000 -0.2533236292
N   N2        1.0  0.69850  0.98756  0.22813  1.0000 -0.2533236292
N   N3        1.0  0.30150  0.48756  0.27187  1.0000 -0.2533236292
N   N4        1.0  0.19850  0.51244  0.77187  1.0000 -0.2533236292
N   N5        1.0  0.79130  0.93609  0.32570  1.0000 -0.2322650736
N   N6        1.0  0.70870  0.06391  0.82570  1.0000 -0.2322650736
N   N7        1.0  0.29130  0.56391  0.67430  1.0000 -0.2322650736
N   N8        1.0  0.20870  0.43609  0.17430  1.0000 -0.2322650736
O   O1        1.0  0.03500  0.03175  0.27236  1.0000 -0.5497695205
O   O2        1.0  0.46500  0.96825  0.77236  1.0000 -0.5497695205
O   O3        1.0  0.53500  0.46825  0.72764  1.0000 -0.5497695205
O   O4        1.0  0.96500  0.53175  0.22764  1.0000 -0.5497695205
O   O5        1.0  0.91930  0.40696  0.25342  1.0000 -0.5604555604
O   O6        1.0  0.58070  0.59304  0.75342  1.0000 -0.5604555604
O   O7        1.0  0.41930  0.09304  0.74658  1.0000 -0.5604555604
O   O8        1.0  0.08070  0.90696  0.24658  1.0000 -0.5604555604
O   O9        1.0  0.21500  0.99774  0.32658  1.0000 -0.5497695205
O   O10       1.0  0.28500  0.00226  0.82658  1.0000 -0.5497695205
O   O11       1.0  0.71500  0.50226  0.67342  1.0000 -0.5497695205
O   O12       1.0  0.78500  0.49774  0.17342  1.0000 -0.5497695205
O   O13       1.0  0.17290  0.35658  0.26140  1.0000 -0.5497695205
O   O14       1.0  0.32710  0.64342  0.76140  1.0000 -0.5497695205
O   O15       1.0  0.67290  0.14342  0.73860  1.0000 -0.5497695205
O   O16       1.0  0.82710  0.85658  0.23860  1.0000 -0.5497695205
F   F1        1.0  0.54100  0.72627  0.55298  1.0000 -0.1669802067
F   F2        1.0  0.95900  0.27373  0.05298  1.0000 -0.1669802067
F   F3        1.0  0.04100  0.77373  0.44702  1.0000 -0.1669802067
F   F4        1.0  0.45900  0.22627  0.94702  1.0000 -0.1669802067
F   F5        1.0  0.81290  0.75875  0.53962  1.0000 -0.1507673342
F   F6        1.0  0.68710  0.24125  0.03962  1.0000 -0.1507673342
F   F7        1.0  0.31290  0.74125  0.46038  1.0000 -0.1507673342
F   F8        1.0  0.18710  0.25875  0.96038  1.0000 -0.1507673342
F   F9        1.0  0.47480  0.77630  0.66459  1.0000 -0.1507673342
F   F10       1.0  0.02520  0.22370  0.16459  1.0000 -0.1507673342
F   F11       1.0  0.97480  0.72370  0.33541  1.0000 -0.1507673342
F   F12       1.0  0.52520  0.27630  0.83541  1.0000 -0.1507673342
F   F13       1.0  0.69790  0.70610  0.63033  1.0000 -0.1177932767
F   F14       1.0  0.80210  0.29390  0.13033  1.0000 -0.1177932767
F   F15       1.0  0.19790  0.79390  0.36967  1.0000 -0.1177932767
F   F16       1.0  0.30210  0.20610  0.86967  1.0000 -0.1177932767
F   F17       1.0  0.72290  0.81840  0.67550  1.0000 -0.1507673342
F   F18       1.0  0.77710  0.18160  0.17550  1.0000 -0.1507673342
F   F19       1.0  0.22290  0.68160  0.32450  1.0000 -0.1507673342
F   F20       1.0  0.27710  0.31840  0.82450  1.0000 -0.1507673342
F   F21       1.0  0.90510  0.76460  0.62000  1.0000 -0.1613464129
F   F22       1.0  0.59490  0.23540  0.12000  1.0000 -0.1613464129
F   F23       1.0  0.40510  0.73540  0.38000  1.0000 -0.1613464129
F   F24       1.0  0.09490  0.26460  0.88000  1.0000 -0.1613464129
