# DDEC6 charges by PACMAN v1.1 (https://github.com/mtap-research/PACMAN-charge/)
data_2020[In][nuc]3[ASR]1
_chemical_formula_sum              "In12 H120 C192 N48 O52"
_cell_length_a       19.519
_cell_length_b       19.519
_cell_length_c       49.1068
_cell_angle_alpha    90
_cell_angle_beta     90
_cell_angle_gamma    90

_symmetry_space_group_name_H-M    "P 1"
_symmetry_Int_Tables_number       1

loop_
  _symmetry_equiv_pos_as_xyz
  'x, y, z'

loop_
  _atom_site_type_symbol
  _atom_site_label
  _atom_site_symmetry_multiplicity
  _atom_site_fract_x
  _atom_site_fract_y
  _atom_site_fract_z
  _atom_site_occupancy
  _atom_site_charge
In  In1       1.0  0.46819  0.43044  0.53326  1.0000 1.431965614
In  In2       1.0  0.53181  0.56956  0.03326  1.0000 1.431965614
In  In3       1.0  0.06956  0.96819  0.78326  1.0000 1.431965614
In  In4       1.0  0.93044  0.03181  0.28326  1.0000 1.431965614
In  In5       1.0  0.03181  0.93044  0.71674  1.0000 1.431965614
In  In6       1.0  0.96819  0.06956  0.21674  1.0000 1.431965614
In  In7       1.0  0.43044  0.46819  0.46674  1.0000 1.431965614
In  In8       1.0  0.56956  0.53181  0.96674  1.0000 1.431965614
In  In9       1.0  0.55921  0.55921  0.50000  1.0000 1.4370917327
In  In10      1.0  0.44079  0.44079  0.00000  1.0000 1.4370917327
In  In11      1.0  0.94079  0.05921  0.75000  1.0000 1.4370917327
In  In12      1.0  0.05921  0.94079  0.25000  1.0000 1.4370917327
H   H1        1.0  0.39440  0.57230  0.59540  1.0000 0.1202018081
H   H2        1.0  0.60560  0.42770  0.09540  1.0000 0.1202018081
H   H3        1.0  0.92770  0.89440  0.84540  1.0000 0.1202018081
H   H4        1.0  0.07230  0.10560  0.34540  1.0000 0.1202018081
H   H5        1.0  0.10560  0.07230  0.65460  1.0000 0.1202018081
H   H6        1.0  0.89440  0.92770  0.15460  1.0000 0.1202018081
H   H7        1.0  0.57230  0.39440  0.40460  1.0000 0.1202018081
H   H8        1.0  0.42770  0.60560  0.90460  1.0000 0.1202018081
H   H9        1.0  0.37270  0.64930  0.63010  1.0000 0.1202018081
H   H10       1.0  0.62730  0.35070  0.13010  1.0000 0.1202018081
H   H11       1.0  0.85070  0.87270  0.88010  1.0000 0.1202018081
H   H12       1.0  0.14930  0.12730  0.38010  1.0000 0.1202018081
H   H13       1.0  0.12730  0.14930  0.61990  1.0000 0.1202018081
H   H14       1.0  0.87270  0.85070  0.11990  1.0000 0.1202018081
H   H15       1.0  0.64930  0.37270  0.36990  1.0000 0.1202018081
H   H16       1.0  0.35070  0.62730  0.86990  1.0000 0.1202018081
H   H17       1.0  0.52630  0.76430  0.60480  1.0000 0.1202018081
H   H18       1.0  0.47370  0.23570  0.10480  1.0000 0.1202018081
H   H19       1.0  0.73570  0.02630  0.85480  1.0000 0.1202018081
H   H20       1.0  0.26430  0.97370  0.35480  1.0000 0.1202018081
H   H21       1.0  0.97370  0.26430  0.64520  1.0000 0.1202018081
H   H22       1.0  0.02630  0.73570  0.14520  1.0000 0.1202018081
H   H23       1.0  0.76430  0.52630  0.39520  1.0000 0.1202018081
H   H24       1.0  0.23570  0.47370  0.89520  1.0000 0.1202018081
H   H25       1.0  0.54550  0.69190  0.57020  1.0000 0.1202018081
H   H26       1.0  0.45450  0.30810  0.07020  1.0000 0.1202018081
H   H27       1.0  0.80810  0.04550  0.82020  1.0000 0.1202018081
H   H28       1.0  0.19190  0.95450  0.32020  1.0000 0.1202018081
H   H29       1.0  0.95450  0.19190  0.67980  1.0000 0.1202018081
H   H30       1.0  0.04550  0.80810  0.17980  1.0000 0.1202018081
H   H31       1.0  0.69190  0.54550  0.42980  1.0000 0.1202018081
H   H32       1.0  0.30810  0.45450  0.92980  1.0000 0.1202018081
H   H33       1.0  0.76340  0.81110  0.65550  1.0000 0.1255451648
H   H34       1.0  0.23660  0.18890  0.15550  1.0000 0.1255451648
H   H35       1.0  0.68890  0.26340  0.90550  1.0000 0.1255451648
H   H36       1.0  0.31110  0.73660  0.40550  1.0000 0.1255451648
H   H37       1.0  0.73660  0.31110  0.59450  1.0000 0.1255451648
H   H38       1.0  0.26340  0.68890  0.09450  1.0000 0.1255451648
H   H39       1.0  0.81110  0.76340  0.34450  1.0000 0.1255451648
H   H40       1.0  0.18890  0.23660  0.84450  1.0000 0.1255451648
H   H41       1.0  0.85810  0.86370  0.67210  1.0000 0.1202018081
H   H42       1.0  0.14190  0.13630  0.17210  1.0000 0.1202018081
H   H43       1.0  0.63630  0.35810  0.92210  1.0000 0.1202018081
H   H44       1.0  0.36370  0.64190  0.42210  1.0000 0.1202018081
H   H45       1.0  0.64190  0.36370  0.57790  1.0000 0.1202018081
H   H46       1.0  0.35810  0.63630  0.07790  1.0000 0.1202018081
H   H47       1.0  0.86370  0.85810  0.32790  1.0000 0.1202018081
H   H48       1.0  0.13630  0.14190  0.82790  1.0000 0.1202018081
H   H49       1.0  0.74520  0.97320  0.72150  1.0000 0.1202018081
H   H50       1.0  0.25480  0.02680  0.22150  1.0000 0.1202018081
H   H51       1.0  0.52680  0.24520  0.97150  1.0000 0.1202018081
H   H52       1.0  0.47320  0.75480  0.47150  1.0000 0.1202018081
H   H53       1.0  0.75480  0.47320  0.52850  1.0000 0.1202018081
H   H54       1.0  0.24520  0.52680  0.02850  1.0000 0.1202018081
H   H55       1.0  0.97320  0.74520  0.27850  1.0000 0.1202018081
H   H56       1.0  0.02680  0.25480  0.77850  1.0000 0.1202018081
H   H57       1.0  0.64830  0.94030  0.69990  1.0000 0.1202018081
H   H58       1.0  0.35170  0.05970  0.19990  1.0000 0.1202018081
H   H59       1.0  0.55970  0.14830  0.94990  1.0000 0.1202018081
H   H60       1.0  0.44030  0.85170  0.44990  1.0000 0.1202018081
H   H61       1.0  0.85170  0.44030  0.55010  1.0000 0.1202018081
H   H62       1.0  0.14830  0.55970  0.05010  1.0000 0.1202018081
H   H63       1.0  0.94030  0.64830  0.30010  1.0000 0.1202018081
H   H64       1.0  0.05970  0.35170  0.80010  1.0000 0.1202018081
H   H65       1.0  0.34600  0.88300  0.68360  1.0000 0.1202018081
H   H66       1.0  0.65400  0.11700  0.18360  1.0000 0.1202018081
H   H67       1.0  0.61700  0.84600  0.93360  1.0000 0.1202018081
H   H68       1.0  0.38300  0.15400  0.43360  1.0000 0.1202018081
H   H69       1.0  0.15400  0.38300  0.56640  1.0000 0.1202018081
H   H70       1.0  0.84600  0.61700  0.06640  1.0000 0.1202018081
H   H71       1.0  0.88300  0.34600  0.31640  1.0000 0.1202018081
H   H72       1.0  0.11700  0.65400  0.81640  1.0000 0.1202018081
H   H73       1.0  0.23370  0.90290  0.69720  1.0000 0.1202018081
H   H74       1.0  0.76630  0.09710  0.19720  1.0000 0.1202018081
H   H75       1.0  0.59710  0.73370  0.94720  1.0000 0.1202018081
H   H76       1.0  0.40290  0.26630  0.44720  1.0000 0.1202018081
H   H77       1.0  0.26630  0.40290  0.55280  1.0000 0.1202018081
H   H78       1.0  0.73370  0.59710  0.05280  1.0000 0.1202018081
H   H79       1.0  0.90290  0.23370  0.30280  1.0000 0.1202018081
H   H80       1.0  0.09710  0.76630  0.80280  1.0000 0.1202018081
H   H81       1.0  0.29820  0.98240  0.76540  1.0000 0.1202018081
H   H82       1.0  0.70180  0.01760  0.26540  1.0000 0.1202018081
H   H83       1.0  0.51760  0.79820  0.01540  1.0000 0.1202018081
H   H84       1.0  0.48240  0.20180  0.51540  1.0000 0.1202018081
H   H85       1.0  0.20180  0.48240  0.48460  1.0000 0.1202018081
H   H86       1.0  0.79820  0.51760  0.98460  1.0000 0.1202018081
H   H87       1.0  0.98240  0.29820  0.23460  1.0000 0.1202018081
H   H88       1.0  0.01760  0.70180  0.73460  1.0000 0.1202018081
H   H89       1.0  0.40770  0.95810  0.75370  1.0000 0.1202018081
H   H90       1.0  0.59230  0.04190  0.25370  1.0000 0.1202018081
H   H91       1.0  0.54190  0.90770  0.00370  1.0000 0.1202018081
H   H92       1.0  0.45810  0.09230  0.50370  1.0000 0.1202018081
H   H93       1.0  0.09230  0.45810  0.49630  1.0000 0.1202018081
H   H94       1.0  0.90770  0.54190  0.99630  1.0000 0.1202018081
H   H95       1.0  0.95810  0.40770  0.24630  1.0000 0.1202018081
H   H96       1.0  0.04190  0.59230  0.74630  1.0000 0.1202018081
H   H97       1.0  0.65160  0.81970  0.64810  1.0000 0.2807471811
H   H98       1.0  0.34840  0.18030  0.14810  1.0000 0.2807471811
H   H99       1.0  0.68030  0.15160  0.89810  1.0000 0.2807471811
H   H100      1.0  0.31970  0.84840  0.39810  1.0000 0.2807471811
H   H101      1.0  0.84840  0.31970  0.60190  1.0000 0.2807471811
H   H102      1.0  0.15160  0.68030  0.10190  1.0000 0.2807471811
H   H103      1.0  0.81970  0.65160  0.35190  1.0000 0.2807471811
H   H104      1.0  0.18030  0.34840  0.85190  1.0000 0.2807471811
H   H105      1.0  0.48390  0.93120  0.72070  1.0000 0.2807471811
H   H106      1.0  0.51610  0.06880  0.22070  1.0000 0.2807471811
H   H107      1.0  0.56880  0.98390  0.97070  1.0000 0.2807471811
H   H108      1.0  0.43120  0.01610  0.47070  1.0000 0.2807471811
H   H109      1.0  0.01610  0.43120  0.52930  1.0000 0.2807471811
H   H110      1.0  0.98390  0.56880  0.02930  1.0000 0.2807471811
H   H111      1.0  0.93120  0.48390  0.27930  1.0000 0.2807471811
H   H112      1.0  0.06880  0.51610  0.77930  1.0000 0.2807471811
H   H113      1.0  0.39140  0.75790  0.64690  1.0000 0.2745211369
H   H114      1.0  0.60860  0.24210  0.14690  1.0000 0.2745211369
H   H115      1.0  0.74210  0.89140  0.89690  1.0000 0.2745211369
H   H116      1.0  0.25790  0.10860  0.39690  1.0000 0.2745211369
H   H117      1.0  0.10860  0.25790  0.60310  1.0000 0.2745211369
H   H118      1.0  0.89140  0.74210  0.10310  1.0000 0.2745211369
H   H119      1.0  0.75790  0.39140  0.35310  1.0000 0.2745211369
H   H120      1.0  0.24210  0.60860  0.85310  1.0000 0.2745211369
C   C1        1.0  0.48780  0.57510  0.55702  1.0000 0.6001603401
C   C2        1.0  0.51220  0.42490  0.05702  1.0000 0.6001603401
C   C3        1.0  0.92490  0.98780  0.80702  1.0000 0.6001603401
C   C4        1.0  0.07510  0.01220  0.30702  1.0000 0.6001603401
C   C5        1.0  0.01220  0.07510  0.69298  1.0000 0.6001603401
C   C6        1.0  0.98780  0.92490  0.19298  1.0000 0.6001603401
C   C7        1.0  0.57510  0.48780  0.44298  1.0000 0.6001603401
C   C8        1.0  0.42490  0.51220  0.94298  1.0000 0.6001603401
C   C9        1.0  0.47510  0.62290  0.57992  1.0000 -0.0693303054
C   C10       1.0  0.52490  0.37710  0.07992  1.0000 -0.0693303054
C   C11       1.0  0.87710  0.97510  0.82992  1.0000 -0.0693303054
C   C12       1.0  0.12290  0.02490  0.32992  1.0000 -0.0693303054
C   C13       1.0  0.02490  0.12290  0.67008  1.0000 -0.0693303054
C   C14       1.0  0.97510  0.87710  0.17008  1.0000 -0.0693303054
C   C15       1.0  0.62290  0.47510  0.42008  1.0000 -0.0693303054
C   C16       1.0  0.37710  0.52490  0.92008  1.0000 -0.0693303054
C   C17       1.0  0.42170  0.61100  0.59749  1.0000 -0.0787082327
C   C18       1.0  0.57830  0.38900  0.09749  1.0000 -0.0787082327
C   C19       1.0  0.88900  0.92170  0.84749  1.0000 -0.0787082327
C   C20       1.0  0.11100  0.07830  0.34749  1.0000 -0.0787082327
C   C21       1.0  0.07830  0.11100  0.65251  1.0000 -0.0787082327
C   C22       1.0  0.92170  0.88900  0.15251  1.0000 -0.0787082327
C   C23       1.0  0.61100  0.42170  0.40251  1.0000 -0.0787082327
C   C24       1.0  0.38900  0.57830  0.90251  1.0000 -0.0787082327
C   C25       1.0  0.40890  0.65660  0.61809  1.0000 -0.2074890604
C   C26       1.0  0.59110  0.34340  0.11809  1.0000 -0.2074890604
C   C27       1.0  0.84340  0.90890  0.86809  1.0000 -0.2074890604
C   C28       1.0  0.15660  0.09110  0.36809  1.0000 -0.2074890604
C   C29       1.0  0.09110  0.15660  0.63191  1.0000 -0.2074890604
C   C30       1.0  0.90890  0.84340  0.13191  1.0000 -0.2074890604
C   C31       1.0  0.65660  0.40890  0.38191  1.0000 -0.2074890604
C   C32       1.0  0.34340  0.59110  0.88191  1.0000 -0.2074890604
C   C33       1.0  0.44860  0.71120  0.62080  1.0000 0.1759411565
C   C34       1.0  0.55140  0.28880  0.12080  1.0000 0.1759411565
C   C35       1.0  0.78880  0.94860  0.87080  1.0000 0.1759411565
C   C36       1.0  0.21120  0.05140  0.37080  1.0000 0.1759411565
C   C37       1.0  0.05140  0.21120  0.62920  1.0000 0.1759411565
C   C38       1.0  0.94860  0.78880  0.12920  1.0000 0.1759411565
C   C39       1.0  0.71120  0.44860  0.37920  1.0000 0.1759411565
C   C40       1.0  0.28880  0.55140  0.87920  1.0000 0.1759411565
C   C41       1.0  0.49990  0.72500  0.60288  1.0000 -0.176394955
C   C42       1.0  0.50010  0.27500  0.10288  1.0000 -0.176394955
C   C43       1.0  0.77500  0.99990  0.85288  1.0000 -0.176394955
C   C44       1.0  0.22500  0.00010  0.35288  1.0000 -0.176394955
C   C45       1.0  0.00010  0.22500  0.64712  1.0000 -0.176394955
C   C46       1.0  0.99990  0.77500  0.14712  1.0000 -0.176394955
C   C47       1.0  0.72500  0.49990  0.39712  1.0000 -0.176394955
C   C48       1.0  0.27500  0.50010  0.89712  1.0000 -0.176394955
C   C49       1.0  0.51140  0.68180  0.58277  1.0000 -0.0787082327
C   C50       1.0  0.48860  0.31820  0.08277  1.0000 -0.0787082327
C   C51       1.0  0.81820  0.01140  0.83277  1.0000 -0.0787082327
C   C52       1.0  0.18180  0.98860  0.33277  1.0000 -0.0787082327
C   C53       1.0  0.98860  0.18180  0.66723  1.0000 -0.0787082327
C   C54       1.0  0.01140  0.81820  0.16723  1.0000 -0.0787082327
C   C55       1.0  0.68180  0.51140  0.41723  1.0000 -0.0787082327
C   C56       1.0  0.31820  0.48860  0.91723  1.0000 -0.0787082327
C   C57       1.0  0.47510  0.79650  0.65758  1.0000 0.495888049
C   C58       1.0  0.52490  0.20350  0.15758  1.0000 0.495888049
C   C59       1.0  0.70350  0.97510  0.90758  1.0000 0.495888049
C   C60       1.0  0.29650  0.02490  0.40758  1.0000 0.495888049
C   C61       1.0  0.02490  0.29650  0.59242  1.0000 0.495888049
C   C62       1.0  0.97510  0.70350  0.09242  1.0000 0.495888049
C   C63       1.0  0.79650  0.47510  0.34242  1.0000 0.495888049
C   C64       1.0  0.20350  0.52490  0.84242  1.0000 0.495888049
C   C65       1.0  0.57410  0.83770  0.66917  1.0000 0.4879037014
C   C66       1.0  0.42590  0.16230  0.16917  1.0000 0.4879037014
C   C67       1.0  0.66230  0.07410  0.91917  1.0000 0.4879037014
C   C68       1.0  0.33770  0.92590  0.41917  1.0000 0.4879037014
C   C69       1.0  0.92590  0.33770  0.58083  1.0000 0.4879037014
C   C70       1.0  0.07410  0.66230  0.08083  1.0000 0.4879037014
C   C71       1.0  0.83770  0.57410  0.33083  1.0000 0.4879037014
C   C72       1.0  0.16230  0.42590  0.83083  1.0000 0.4879037014
C   C73       1.0  0.48360  0.86900  0.69119  1.0000 0.4879037014
C   C74       1.0  0.51640  0.13100  0.19119  1.0000 0.4879037014
C   C75       1.0  0.63100  0.98360  0.94119  1.0000 0.4879037014
C   C76       1.0  0.36900  0.01640  0.44119  1.0000 0.4879037014
C   C77       1.0  0.01640  0.36900  0.55881  1.0000 0.4879037014
C   C78       1.0  0.98360  0.63100  0.05881  1.0000 0.4879037014
C   C79       1.0  0.86900  0.48360  0.30881  1.0000 0.4879037014
C   C80       1.0  0.13100  0.51640  0.80881  1.0000 0.4879037014
C   C81       1.0  0.69650  0.86950  0.67589  1.0000 0.2035996162
C   C82       1.0  0.30350  0.13050  0.17589  1.0000 0.2035996162
C   C83       1.0  0.63050  0.19650  0.92589  1.0000 0.2035996162
C   C84       1.0  0.36950  0.80350  0.42589  1.0000 0.2035996162
C   C85       1.0  0.80350  0.36950  0.57411  1.0000 0.2035996162
C   C86       1.0  0.19650  0.63050  0.07411  1.0000 0.2035996162
C   C87       1.0  0.86950  0.69650  0.32411  1.0000 0.2035996162
C   C88       1.0  0.13050  0.30350  0.82411  1.0000 0.2035996162
C   C89       1.0  0.75930  0.84650  0.66814  1.0000 -0.2047392779
C   C90       1.0  0.24070  0.15350  0.16814  1.0000 -0.2074890604
C   C91       1.0  0.65350  0.25930  0.91814  1.0000 -0.2047392779
C   C92       1.0  0.34650  0.74070  0.41814  1.0000 -0.2047392779
C   C93       1.0  0.74070  0.34650  0.58186  1.0000 -0.2047392779
C   C94       1.0  0.25930  0.65350  0.08186  1.0000 -0.2047392779
C   C95       1.0  0.84650  0.75930  0.33186  1.0000 -0.2047392779
C   C96       1.0  0.15350  0.24070  0.83186  1.0000 -0.2047392779
C   C97       1.0  0.81520  0.87540  0.67889  1.0000 -0.0787082327
C   C98       1.0  0.18480  0.12460  0.17889  1.0000 -0.0787082327
C   C99       1.0  0.62460  0.31520  0.92889  1.0000 -0.0787082327
C   C100      1.0  0.37540  0.68480  0.42889  1.0000 -0.0787082327
C   C101      1.0  0.68480  0.37540  0.57111  1.0000 -0.0787082327
C   C102      1.0  0.31520  0.62460  0.07111  1.0000 -0.0787082327
C   C103      1.0  0.87540  0.81520  0.32111  1.0000 -0.0787082327
C   C104      1.0  0.12460  0.18480  0.82111  1.0000 -0.0787082327
C   C105      1.0  0.81020  0.92360  0.70034  1.0000 -0.0693303054
C   C106      1.0  0.18980  0.07640  0.20034  1.0000 -0.0693303054
C   C107      1.0  0.57640  0.31020  0.95034  1.0000 -0.0693303054
C   C108      1.0  0.42360  0.68980  0.45034  1.0000 -0.0693303054
C   C109      1.0  0.68980  0.42360  0.54966  1.0000 -0.0693303054
C   C110      1.0  0.31020  0.57640  0.04966  1.0000 -0.0693303054
C   C111      1.0  0.92360  0.81020  0.29966  1.0000 -0.0693303054
C   C112      1.0  0.07640  0.18980  0.79966  1.0000 -0.0693303054
C   C113      1.0  0.74910  0.94240  0.70717  1.0000 -0.0787082327
C   C114      1.0  0.25090  0.05760  0.20717  1.0000 -0.0787082327
C   C115      1.0  0.55760  0.24910  0.95717  1.0000 -0.0787082327
C   C116      1.0  0.44240  0.75090  0.45717  1.0000 -0.0787082327
C   C117      1.0  0.75090  0.44240  0.54283  1.0000 -0.0787082327
C   C118      1.0  0.24910  0.55760  0.04283  1.0000 -0.0787082327
C   C119      1.0  0.94240  0.74910  0.29283  1.0000 -0.0787082327
C   C120      1.0  0.05760  0.25090  0.79283  1.0000 -0.0787082327
C   C121      1.0  0.69050  0.92130  0.69536  1.0000 -0.176394955
C   C122      1.0  0.30950  0.07870  0.19536  1.0000 -0.176394955
C   C123      1.0  0.57870  0.19050  0.94536  1.0000 -0.176394955
C   C124      1.0  0.42130  0.80950  0.44536  1.0000 -0.176394955
C   C125      1.0  0.80950  0.42130  0.55464  1.0000 -0.176394955
C   C126      1.0  0.19050  0.57870  0.05464  1.0000 -0.176394955
C   C127      1.0  0.92130  0.69050  0.30464  1.0000 -0.176394955
C   C128      1.0  0.07870  0.30950  0.80464  1.0000 -0.176394955
C   C129      1.0  0.38810  0.91890  0.71752  1.0000 0.2035996162
C   C130      1.0  0.61190  0.08110  0.21752  1.0000 0.2035996162
C   C131      1.0  0.58110  0.88810  0.96752  1.0000 0.2035996162
C   C132      1.0  0.41890  0.11190  0.46752  1.0000 0.2035996162
C   C133      1.0  0.11190  0.41890  0.53248  1.0000 0.2035996162
C   C134      1.0  0.88810  0.58110  0.03248  1.0000 0.2035996162
C   C135      1.0  0.91890  0.38810  0.28248  1.0000 0.2035996162
C   C136      1.0  0.08110  0.61190  0.78248  1.0000 0.2035996162
C   C137      1.0  0.33690  0.90180  0.70058  1.0000 -0.1872459852
C   C138      1.0  0.66310  0.09820  0.20058  1.0000 -0.1872459852
C   C139      1.0  0.59820  0.83690  0.95058  1.0000 -0.1872459852
C   C140      1.0  0.40180  0.16310  0.45058  1.0000 -0.1872459852
C   C141      1.0  0.16310  0.40180  0.54942  1.0000 -0.1872459852
C   C142      1.0  0.83690  0.59820  0.04942  1.0000 -0.1872459852
C   C143      1.0  0.90180  0.33690  0.29942  1.0000 -0.1872459852
C   C144      1.0  0.09820  0.66310  0.79942  1.0000 -0.1872459852
C   C145      1.0  0.26930  0.91300  0.70920  1.0000 -0.0861533915
C   C146      1.0  0.73070  0.08700  0.20920  1.0000 -0.0861533915
C   C147      1.0  0.58700  0.76930  0.95920  1.0000 -0.0861533915
C   C148      1.0  0.41300  0.23070  0.45920  1.0000 -0.0861533915
C   C149      1.0  0.23070  0.41300  0.54080  1.0000 -0.0861533915
C   C150      1.0  0.76930  0.58700  0.04080  1.0000 -0.0861533915
C   C151      1.0  0.91300  0.26930  0.29080  1.0000 -0.0861533915
C   C152      1.0  0.08700  0.73070  0.79080  1.0000 -0.0861533915
C   C153      1.0  0.25370  0.93730  0.73382  1.0000 -0.0787082327
C   C154      1.0  0.74630  0.06270  0.23382  1.0000 -0.0787082327
C   C155      1.0  0.56270  0.75370  0.98382  1.0000 -0.0787082327
C   C156      1.0  0.43730  0.24630  0.48382  1.0000 -0.0787082327
C   C157      1.0  0.24630  0.43730  0.51618  1.0000 -0.0787082327
C   C158      1.0  0.75370  0.56270  0.01618  1.0000 -0.0787082327
C   C159      1.0  0.93730  0.25370  0.26618  1.0000 -0.0787082327
C   C160      1.0  0.06270  0.74630  0.76618  1.0000 -0.0787082327
C   C161      1.0  0.30690  0.95890  0.74931  1.0000 -0.0693303054
C   C162      1.0  0.69310  0.04110  0.24931  1.0000 -0.0693303054
C   C163      1.0  0.54110  0.80690  0.99931  1.0000 -0.0693303054
C   C164      1.0  0.45890  0.19310  0.49931  1.0000 -0.0693303054
C   C165      1.0  0.19310  0.45890  0.50069  1.0000 -0.0693303054
C   C166      1.0  0.80690  0.54110  0.00069  1.0000 -0.0693303054
C   C167      1.0  0.95890  0.30690  0.25069  1.0000 -0.0693303054
C   C168      1.0  0.04110  0.69310  0.75069  1.0000 -0.0693303054
C   C169      1.0  0.37250  0.94680  0.74179  1.0000 -0.2271454909
C   C170      1.0  0.62750  0.05320  0.24179  1.0000 -0.2271454909
C   C171      1.0  0.55320  0.87250  0.99179  1.0000 -0.2271454909
C   C172      1.0  0.44680  0.12750  0.49179  1.0000 -0.2271454909
C   C173      1.0  0.12750  0.44680  0.50821  1.0000 -0.2271454909
C   C174      1.0  0.87250  0.55320  0.00821  1.0000 -0.2271454909
C   C175      1.0  0.94680  0.37250  0.25821  1.0000 -0.2271454909
C   C176      1.0  0.05320  0.62750  0.75821  1.0000 -0.2271454909
C   C177      1.0  0.87280  0.94940  0.71359  1.0000 0.6001603401
C   C178      1.0  0.12720  0.05060  0.21359  1.0000 0.6001603401
C   C179      1.0  0.55060  0.37280  0.96359  1.0000 0.6001603401
C   C180      1.0  0.44940  0.62720  0.46359  1.0000 0.6001603401
C   C181      1.0  0.62720  0.44940  0.53641  1.0000 0.6001603401
C   C182      1.0  0.37280  0.55060  0.03641  1.0000 0.6001603401
C   C183      1.0  0.94940  0.87280  0.28641  1.0000 0.6001603401
C   C184      1.0  0.05060  0.12720  0.78641  1.0000 0.6001603401
C   C185      1.0  0.18080  0.94750  0.74076  1.0000 0.5906373507
C   C186      1.0  0.81920  0.05250  0.24076  1.0000 0.5906373507
C   C187      1.0  0.55250  0.68080  0.99076  1.0000 0.5906373507
C   C188      1.0  0.44750  0.31920  0.49076  1.0000 0.5906373507
C   C189      1.0  0.31920  0.44750  0.50924  1.0000 0.5906373507
C   C190      1.0  0.68080  0.55250  0.00924  1.0000 0.5906373507
C   C191      1.0  0.94750  0.18080  0.25924  1.0000 0.5906373507
C   C192      1.0  0.05250  0.81920  0.75924  1.0000 0.5906373507
N   N1        1.0  0.53840  0.79560  0.65253  1.0000 -0.5022968405
N   N2        1.0  0.46160  0.20440  0.15253  1.0000 -0.5022968405
N   N3        1.0  0.70440  0.03840  0.90253  1.0000 -0.5022968405
N   N4        1.0  0.29560  0.96160  0.40253  1.0000 -0.5022968405
N   N5        1.0  0.96160  0.29560  0.59747  1.0000 -0.5022968405
N   N6        1.0  0.03840  0.70440  0.09747  1.0000 -0.5022968405
N   N7        1.0  0.79560  0.53840  0.34747  1.0000 -0.5022968405
N   N8        1.0  0.20440  0.46160  0.84747  1.0000 -0.5022968405
N   N9        1.0  0.54980  0.87690  0.68775  1.0000 -0.4868889542
N   N10       1.0  0.45020  0.12310  0.18775  1.0000 -0.4868889542
N   N11       1.0  0.62310  0.04980  0.93775  1.0000 -0.4868889542
N   N12       1.0  0.37690  0.95020  0.43775  1.0000 -0.4868889542
N   N13       1.0  0.95020  0.37690  0.56225  1.0000 -0.4868889542
N   N14       1.0  0.04980  0.62310  0.06225  1.0000 -0.4868889542
N   N15       1.0  0.87690  0.54980  0.31225  1.0000 -0.4868889542
N   N16       1.0  0.12310  0.45020  0.81225  1.0000 -0.4868889542
N   N17       1.0  0.44130  0.83170  0.67616  1.0000 -0.5135831364
N   N18       1.0  0.55870  0.16830  0.17616  1.0000 -0.5135831364
N   N19       1.0  0.66830  0.94130  0.92616  1.0000 -0.5135831364
N   N20       1.0  0.33170  0.05870  0.42616  1.0000 -0.5135831364
N   N21       1.0  0.05870  0.33170  0.57384  1.0000 -0.5135831364
N   N22       1.0  0.94130  0.66830  0.07384  1.0000 -0.5135831364
N   N23       1.0  0.83170  0.44130  0.32384  1.0000 -0.5135831364
N   N24       1.0  0.16830  0.55870  0.82384  1.0000 -0.5135831364
N   N25       1.0  0.64130  0.84030  0.66300  1.0000 -0.3611206969
N   N26       1.0  0.35870  0.15970  0.16300  1.0000 -0.3611206969
N   N27       1.0  0.65970  0.14130  0.91300  1.0000 -0.3611206969
N   N28       1.0  0.34030  0.85870  0.41300  1.0000 -0.3611206969
N   N29       1.0  0.85870  0.34030  0.58700  1.0000 -0.3611206969
N   N30       1.0  0.14130  0.65970  0.08700  1.0000 -0.3611206969
N   N31       1.0  0.84030  0.64130  0.33700  1.0000 -0.3611206969
N   N32       1.0  0.15970  0.35870  0.83700  1.0000 -0.3611206969
N   N33       1.0  0.45504  0.90890  0.71090  1.0000 -0.3611206969
N   N34       1.0  0.54496  0.09110  0.21090  1.0000 -0.3611206969
N   N35       1.0  0.59110  0.95504  0.96090  1.0000 -0.3611206969
N   N36       1.0  0.40890  0.04496  0.46090  1.0000 -0.3611206969
N   N37       1.0  0.04496  0.40890  0.53910  1.0000 -0.3611206969
N   N38       1.0  0.95504  0.59110  0.03910  1.0000 -0.3611206969
N   N39       1.0  0.90890  0.45504  0.28910  1.0000 -0.3611206969
N   N40       1.0  0.09110  0.54496  0.78910  1.0000 -0.3611206969
N   N41       1.0  0.43410  0.75600  0.64249  1.0000 -0.3777126053
N   N42       1.0  0.56590  0.24400  0.14249  1.0000 -0.3777126053
N   N43       1.0  0.74400  0.93410  0.89249  1.0000 -0.3777126053
N   N44       1.0  0.25600  0.06590  0.39249  1.0000 -0.3777126053
N   N45       1.0  0.06590  0.25600  0.60751  1.0000 -0.3777126053
N   N46       1.0  0.93410  0.74400  0.10751  1.0000 -0.3777126053
N   N47       1.0  0.75600  0.43410  0.35751  1.0000 -0.3777126053
N   N48       1.0  0.24400  0.56590  0.85751  1.0000 -0.3777126053
O   O1        1.0  0.52855  0.59428  0.53934  1.0000 -0.5567711049
O   O2        1.0  0.47145  0.40572  0.03934  1.0000 -0.5567711049
O   O3        1.0  0.90572  0.02855  0.78934  1.0000 -0.5567711049
O   O4        1.0  0.09428  0.97145  0.28934  1.0000 -0.5567711049
O   O5        1.0  0.97145  0.09428  0.71066  1.0000 -0.5567711049
O   O6        1.0  0.02855  0.90572  0.21066  1.0000 -0.5567711049
O   O7        1.0  0.59428  0.52855  0.46066  1.0000 -0.5567711049
O   O8        1.0  0.40572  0.47145  0.96066  1.0000 -0.5567711049
O   O9        1.0  0.45794  0.51910  0.55819  1.0000 -0.5567711049
O   O10       1.0  0.54206  0.48090  0.05819  1.0000 -0.5567711049
O   O11       1.0  0.98090  0.95794  0.80819  1.0000 -0.5567711049
O   O12       1.0  0.01910  0.04206  0.30819  1.0000 -0.5567711049
O   O13       1.0  0.04206  0.01910  0.69181  1.0000 -0.5567711049
O   O14       1.0  0.95794  0.98090  0.19181  1.0000 -0.5567711049
O   O15       1.0  0.51910  0.45794  0.44181  1.0000 -0.5567711049
O   O16       1.0  0.48090  0.54206  0.94181  1.0000 -0.5567711049
O   O17       1.0  0.92836  0.92368  0.70539  1.0000 -0.5775966102
O   O18       1.0  0.07164  0.07632  0.20539  1.0000 -0.5775966102
O   O19       1.0  0.57632  0.42836  0.95539  1.0000 -0.5775966102
O   O20       1.0  0.42368  0.57164  0.45539  1.0000 -0.5775966102
O   O21       1.0  0.57164  0.42368  0.54461  1.0000 -0.5775966102
O   O22       1.0  0.42836  0.57632  0.04461  1.0000 -0.5775966102
O   O23       1.0  0.92368  0.92836  0.29461  1.0000 -0.5775966102
O   O24       1.0  0.07632  0.07164  0.79461  1.0000 -0.5775966102
O   O25       1.0  0.86615  0.99307  0.73118  1.0000 -0.5399588549
O   O26       1.0  0.13385  0.00693  0.23118  1.0000 -0.5399588549
O   O27       1.0  0.50693  0.36615  0.98118  1.0000 -0.5399588549
O   O28       1.0  0.49307  0.63385  0.48118  1.0000 -0.5399588549
O   O29       1.0  0.63385  0.49307  0.51882  1.0000 -0.5399588549
O   O30       1.0  0.36615  0.50693  0.01882  1.0000 -0.5399588549
O   O31       1.0  0.99307  0.86615  0.26882  1.0000 -0.5399588549
O   O32       1.0  0.00693  0.13385  0.76882  1.0000 -0.5399588549
O   O33       1.0  0.16799  0.97092  0.76312  1.0000 -0.5192340963
O   O34       1.0  0.83201  0.02908  0.26312  1.0000 -0.5192340963
O   O35       1.0  0.52908  0.66799  0.01312  1.0000 -0.5192340963
O   O36       1.0  0.47092  0.33201  0.51312  1.0000 -0.5192340963
O   O37       1.0  0.33201  0.47092  0.48688  1.0000 -0.5192340963
O   O38       1.0  0.66799  0.52908  0.98688  1.0000 -0.5192340963
O   O39       1.0  0.97092  0.16799  0.23688  1.0000 -0.5192340963
O   O40       1.0  0.02908  0.83201  0.73688  1.0000 -0.5192340963
O   O41       1.0  0.14009  0.93025  0.72366  1.0000 -0.5283698195
O   O42       1.0  0.85991  0.06975  0.22366  1.0000 -0.5283698195
O   O43       1.0  0.56975  0.64009  0.97366  1.0000 -0.5283698195
O   O44       1.0  0.43025  0.35991  0.47366  1.0000 -0.5283698195
O   O45       1.0  0.35991  0.43025  0.52634  1.0000 -0.5283698195
O   O46       1.0  0.64009  0.56975  0.02634  1.0000 -0.5283698195
O   O47       1.0  0.93025  0.14009  0.27634  1.0000 -0.5283698195
O   O48       1.0  0.06975  0.85991  0.77634  1.0000 -0.5283698195
O   O49       1.0  0.48594  0.48594  0.50000  1.0000 -1.0624449306
O   O50       1.0  0.51406  0.51406  0.00000  1.0000 -1.0624449306
O   O51       1.0  0.01406  0.98594  0.75000  1.0000 -1.0624449306
O   O52       1.0  0.98594  0.01406  0.25000  1.0000 -1.0624449306
