# DDEC6 charges by PACMAN v1.1 (https://github.com/mtap-research/PACMAN-charge/)
data_d0dt03012k2_2_FSR_pacman
_symmetry_space_group_name_H-M   'P 1'
_cell_length_a   29.97000000
_cell_length_b   29.97000000
_cell_length_c   29.97000000
_cell_angle_alpha   90.00000000
_cell_angle_beta   90.00000000
_cell_angle_gamma   90.00000000
_symmetry_Int_Tables_number   1
_chemical_formula_structural   Zn95C425O246
_chemical_formula_sum   'Zn95 C425 O246'
_cell_volume   26919.08097300
_cell_formula_units_Z   1
loop_
 _symmetry_equiv_pos_site_id
 _symmetry_equiv_pos_as_xyz
  1  'x, y, z'
loop_
 _atom_site_type_symbol
 _atom_site_label
 _atom_site_symmetry_multiplicity
 _atom_site_fract_x
 _atom_site_fract_y
 _atom_site_fract_z
 _atom_site_occupancy
 _atom_site_charge
Zn  Zn1  1  0.91203000  0.41203000  0.08797000  1.0 0.7543852315
Zn  Zn2  1  0.91203000  0.33797000  0.16203000  1.0 0.8690319196
Zn  Zn3  1  0.33797000  0.33797000  0.58797000  1.0 0.8972450927
Zn  Zn4  1  0.33797000  0.41203000  0.66203000  1.0 0.8914882973
Zn  Zn5  1  0.41203000  0.91203000  0.08797000  1.0 0.5418230387
Zn  Zn6  1  0.83797000  0.83797000  0.58797000  1.0 0.5994494791
Zn  Zn7  1  0.41203000  0.83797000  0.16203000  1.0 0.5520810538
Zn  Zn8  1  0.83797000  0.91203000  0.66203000  1.0 0.5903636451
Zn  Zn9  1  0.91203000  0.91203000  0.58797000  1.0 0.5418230387
Zn  Zn10  1  0.83797000  0.41203000  0.16203000  1.0 0.805956705
Zn  Zn11  1  0.91203000  0.83797000  0.66203000  1.0 0.5903636451
Zn  Zn12  1  0.33797000  0.83797000  0.08797000  1.0 0.5829956666
Zn  Zn13  1  0.33797000  0.91203000  0.16203000  1.0 0.5016800399
Zn  Zn14  1  0.41203000  0.41203000  0.58797000  1.0 0.8914882973
Zn  Zn15  1  0.83797000  0.33797000  0.08797000  1.0 0.7543852315
Zn  Zn16  1  0.41203000  0.33797000  0.66203000  1.0 0.8914882973
Zn  Zn17  1  0.83797000  0.83797000  0.08797000  1.0 0.3601672635
Zn  Zn18  1  0.33797000  0.33797000  0.08797000  1.0 0.2686244831
Zn  Zn19  1  0.33797000  0.83797000  0.58797000  1.0 0.3098512788
Zn  Zn20  1  0.91203000  0.83797000  0.16203000  1.0 0.3098512788
Zn  Zn21  1  0.41203000  0.33797000  0.16203000  1.0 0.2686244831
Zn  Zn22  1  0.83797000  0.41203000  0.66203000  1.0 0.2626682833
Zn  Zn23  1  0.83797000  0.33797000  0.58797000  1.0 0.2626682833
Zn  Zn24  1  0.83797000  0.91203000  0.16203000  1.0 0.3009565756
Zn  Zn25  1  0.91163000  0.83837000  0.08837000  1.0 0.5994494791
Zn  Zn26  1  0.91163000  0.91163000  0.16163000  1.0 0.5994494791
Zn  Zn27  1  0.33837000  0.91163000  0.58837000  1.0 0.6763540045
Zn  Zn28  1  0.33837000  0.83837000  0.66163000  1.0 0.7268705503
Zn  Zn29  1  0.83837000  0.91163000  0.08837000  1.0 0.5903636451
Zn  Zn30  1  0.41163000  0.83837000  0.58837000  1.0 0.7268705503
Zn  Zn31  1  0.83837000  0.83837000  0.16163000  1.0 0.5688252882
Zn  Zn32  1  0.41163000  0.91163000  0.66163000  1.0 0.8591460422
Zn  Zn33  1  0.83837000  0.41163000  0.58837000  1.0 0.7064690576
Zn  Zn34  1  0.91163000  0.33837000  0.58837000  1.0 0.7000970081
Zn  Zn35  1  0.91163000  0.41163000  0.66163000  1.0 0.7000970081
Zn  Zn36  1  0.33837000  0.41163000  0.08837000  1.0 0.7558378116
Zn  Zn37  1  0.33837000  0.33837000  0.16163000  1.0 0.6615694598
Zn  Zn38  1  0.41163000  0.33837000  0.08837000  1.0 0.6615694598
Zn  Zn39  1  0.83837000  0.33837000  0.66163000  1.0 0.6388126647
Zn  Zn40  1  0.41163000  0.41163000  0.16163000  1.0 0.7558378116
Zn  Zn41  1  0.41163000  0.83837000  0.08837000  1.0 0.3601672635
Zn  Zn42  1  0.33837000  0.91163000  0.08837000  1.0 0.349016467
Zn  Zn43  1  0.33837000  0.83837000  0.16163000  1.0 0.3797268853
Zn  Zn44  1  0.41163000  0.91163000  0.16163000  1.0 0.3293477879
Zn  Zn45  1  0.83837000  0.41163000  0.08837000  1.0 0.2221888339
Zn  Zn46  1  0.91163000  0.83837000  0.58837000  1.0 0.3098512788
Zn  Zn47  1  0.83837000  0.91163000  0.58837000  1.0 0.3797268853
Zn  Zn48  1  0.83837000  0.83837000  0.66163000  1.0 0.3398095381
Zn  Zn49  1  0.58797000  0.66203000  0.33797000  1.0 0.5418230387
Zn  Zn50  1  0.66203000  0.66203000  0.41203000  1.0 0.5324951843
Zn  Zn51  1  0.66203000  0.08797000  0.83797000  1.0 0.805956705
Zn  Zn52  1  0.58797000  0.08797000  0.91203000  1.0 0.7543852315
Zn  Zn53  1  0.08797000  0.16203000  0.33797000  1.0 0.8914882973
Zn  Zn54  1  0.08797000  0.58797000  0.91203000  1.0 0.6388126647
Zn  Zn55  1  0.16203000  0.58797000  0.83797000  1.0 0.7215665018
Zn  Zn56  1  0.16203000  0.16203000  0.41203000  1.0 0.8914882973
Zn  Zn57  1  0.08797000  0.08797000  0.41203000  1.0 0.8914882973
Zn  Zn58  1  0.66203000  0.58797000  0.33797000  1.0 0.4901474551
Zn  Zn59  1  0.16203000  0.66203000  0.91203000  1.0 0.7215665018
Zn  Zn60  1  0.58797000  0.16203000  0.83797000  1.0 0.8690319196
Zn  Zn61  1  0.66203000  0.16203000  0.91203000  1.0 0.7543852315
Zn  Zn62  1  0.58797000  0.58797000  0.41203000  1.0 0.4901474551
Zn  Zn63  1  0.08797000  0.66203000  0.83797000  1.0 0.7215665018
Zn  Zn64  1  0.16203000  0.08797000  0.33797000  1.0 0.8914882973
Zn  Zn65  1  0.16203000  0.16203000  0.91203000  1.0 0.2221888339
Zn  Zn66  1  0.66203000  0.66203000  0.91203000  1.0 0.3398095381
Zn  Zn67  1  0.58797000  0.16203000  0.33797000  1.0 0.3098512788
Zn  Zn68  1  0.08797000  0.66203000  0.33797000  1.0 0.2626682833
Zn  Zn69  1  0.66203000  0.58797000  0.83797000  1.0 0.2626682833
Zn  Zn70  1  0.66203000  0.16203000  0.41203000  1.0 0.3098512788
Zn  Zn71  1  0.16203000  0.66203000  0.41203000  1.0 0.2626682833
Zn  Zn72  1  0.66203000  0.08797000  0.33797000  1.0 0.2891361848
Zn  Zn73  1  0.16163000  0.66163000  0.33837000  1.0 0.6742756203
Zn  Zn74  1  0.08837000  0.66163000  0.41163000  1.0 0.6742756203
Zn  Zn75  1  0.08837000  0.08837000  0.83837000  1.0 0.8591460422
Zn  Zn76  1  0.16163000  0.08837000  0.91163000  1.0 0.7881354526
Zn  Zn77  1  0.08837000  0.58837000  0.33837000  1.0 0.7064690576
Zn  Zn78  1  0.08837000  0.16163000  0.91163000  1.0 0.73764859
Zn  Zn79  1  0.16163000  0.16163000  0.83837000  1.0 0.73764859
Zn  Zn80  1  0.16163000  0.58837000  0.41163000  1.0 0.7064690576
Zn  Zn81  1  0.66163000  0.58837000  0.91163000  1.0 0.6168302134
Zn  Zn82  1  0.66163000  0.08837000  0.41163000  1.0 0.6763540045
Zn  Zn83  1  0.66163000  0.66163000  0.83837000  1.0 0.6168302134
Zn  Zn84  1  0.58837000  0.66163000  0.91163000  1.0 0.7000970081
Zn  Zn85  1  0.58837000  0.08837000  0.33837000  1.0 0.6388126647
Zn  Zn86  1  0.58837000  0.58837000  0.83837000  1.0 0.7064690576
Zn  Zn87  1  0.58837000  0.16163000  0.41163000  1.0 0.6325726346
Zn  Zn88  1  0.66163000  0.16163000  0.33837000  1.0 0.5829956666
Zn  Zn89  1  0.16163000  0.58837000  0.91163000  1.0 0.2686244831
Zn  Zn90  1  0.08837000  0.66163000  0.91163000  1.0 0.2686244831
Zn  Zn91  1  0.66163000  0.66163000  0.33837000  1.0 0.3968680337
Zn  Zn92  1  0.58837000  0.58837000  0.33837000  1.0 0.3398095381
Zn  Zn93  1  0.66163000  0.58837000  0.41163000  1.0 0.3860627845
Zn  Zn94  1  0.58837000  0.66163000  0.41163000  1.0 0.349016467
Zn  Zn95  1  0.66163000  0.08837000  0.91163000  1.0 0.2221888339
C  C1  1  0.87500000  0.49280000  0.12500000  1.0 0.5228678818
C  C2  1  0.87500000  0.25720000  0.12500000  1.0 0.5418230387
C  C3  1  0.37500000  0.25720000  0.62500000  1.0 0.5560156092
C  C4  1  0.37500000  0.49280000  0.62500000  1.0 0.5520810538
C  C5  1  0.49280000  0.87500000  0.12500000  1.0 0.2503706351
C  C6  1  0.75720000  0.87500000  0.62500000  1.0 0.5016800399
C  C7  1  0.87500000  0.87500000  0.50720000  1.0 0.2760774926
C  C8  1  0.87500000  0.37500000  0.24280000  1.0 0.5520810538
C  C9  1  0.87500000  0.99280000  0.62500000  1.0 0.3009565756
C  C10  1  0.87500000  0.75720000  0.62500000  1.0 0.5075512961
C  C11  1  0.37500000  0.75720000  0.12500000  1.0 0.5016800399
C  C12  1  0.37500000  0.99280000  0.12500000  1.0 0.3098512788
C  C13  1  0.49280000  0.37500000  0.62500000  1.0 0.5520810538
C  C14  1  0.75720000  0.37500000  0.12500000  1.0 0.5228678818
C  C15  1  0.87500000  0.37500000  0.00720000  1.0 0.3205283419
C  C16  1  0.87500000  0.87500000  0.74280000  1.0 0.2891361848
C  C17  1  0.99280000  0.87500000  0.62500000  1.0 0.3009565756
C  C18  1  0.25720000  0.87500000  0.12500000  1.0 0.2686244831
C  C19  1  0.37500000  0.87500000  0.00720000  1.0 0.5075512961
C  C20  1  0.37500000  0.37500000  0.74280000  1.0 0.5520810538
C  C21  1  0.99280000  0.37500000  0.12500000  1.0 0.5418230387
C  C22  1  0.25720000  0.37500000  0.62500000  1.0 0.5560156092
C  C23  1  0.37500000  0.37500000  0.50720000  1.0 0.5560156092
C  C24  1  0.37500000  0.87500000  0.24280000  1.0 0.2760774926
C  C25  1  0.75720000  0.87500000  0.12500000  1.0 0.3205283419
C  C26  1  0.37500000  0.25720000  0.12500000  1.0 0.3205283419
C  C27  1  0.37500000  0.87500000  0.50720000  1.0 0.3293477879
C  C28  1  0.99280000  0.87500000  0.12500000  1.0 0.3205283419
C  C29  1  0.87500000  0.37500000  0.74280000  1.0 0.3098512788
C  C30  1  0.25720000  0.87500000  0.62500000  1.0 0.3293477879
C  C31  1  0.87500000  0.25720000  0.62500000  1.0 0.3098512788
C  C32  1  0.87500000  0.87500000  0.24280000  1.0 0.3098512788
C  C33  1  0.87500000  0.87500000  0.00720000  1.0 0.3205283419
C  C34  1  0.87500000  0.54030000  0.12500000  1.0 -0.2191740587
C  C35  1  0.87500000  0.20970000  0.12500000  1.0 -0.2191740587
C  C36  1  0.37500000  0.20970000  0.62500000  1.0 -0.2105892451
C  C37  1  0.37500000  0.54030000  0.62500000  1.0 -0.2191740587
C  C38  1  0.54030000  0.87500000  0.12500000  1.0 -0.0279742966
C  C39  1  0.70970000  0.87500000  0.62500000  1.0 -0.2105892451
C  C40  1  0.87500000  0.87500000  0.45970000  1.0 -0.0487414574
C  C41  1  0.87500000  0.37500000  0.29030000  1.0 -0.2191740587
C  C42  1  0.87500000  0.04030000  0.62500000  1.0 -0.0413047187
C  C43  1  0.87500000  0.70970000  0.62500000  1.0 -0.2191740587
C  C44  1  0.37500000  0.70970000  0.12500000  1.0 -0.2105892451
C  C45  1  0.37500000  0.04030000  0.12500000  1.0 -0.0197836554
C  C46  1  0.54030000  0.37500000  0.62500000  1.0 -0.2191740587
C  C47  1  0.70970000  0.37500000  0.12500000  1.0 -0.2191740587
C  C48  1  0.87500000  0.37500000  0.95970000  1.0 -0.0279742966
C  C49  1  0.87500000  0.87500000  0.79030000  1.0 -0.0279742966
C  C50  1  0.04030000  0.87500000  0.62500000  1.0 -0.0413047187
C  C51  1  0.20970000  0.87500000  0.12500000  1.0 -0.0413047187
C  C52  1  0.37500000  0.87500000  0.95970000  1.0 -0.2105892451
C  C53  1  0.37500000  0.37500000  0.79030000  1.0 -0.2105892451
C  C54  1  0.04030000  0.37500000  0.12500000  1.0 -0.2191740587
C  C55  1  0.20970000  0.37500000  0.62500000  1.0 -0.2105892451
C  C56  1  0.37500000  0.37500000  0.45970000  1.0 -0.2105892451
C  C57  1  0.37500000  0.87500000  0.29030000  1.0 -0.0487414574
C  C58  1  0.70970000  0.87500000  0.12500000  1.0 0.0024703796
C  C59  1  0.37500000  0.20970000  0.12500000  1.0 -0.0105160473
C  C60  1  0.37500000  0.87500000  0.45970000  1.0 -0.0026664781
C  C61  1  0.04030000  0.87500000  0.12500000  1.0 0.0092909264
C  C62  1  0.87500000  0.37500000  0.79030000  1.0 0.0092909264
C  C63  1  0.20970000  0.87500000  0.62500000  1.0 -0.0026664781
C  C64  1  0.87500000  0.20970000  0.62500000  1.0 0.0092909264
C  C65  1  0.87500000  0.87500000  0.29030000  1.0 0.0024703796
C  C66  1  0.87500000  0.87500000  0.95970000  1.0 0.0092909264
C  C67  1  0.87500000  0.75990000  0.12500000  1.0 0.4604759305
C  C68  1  0.87500000  0.99010000  0.12500000  1.0 0.4604759305
C  C69  1  0.37500000  0.99010000  0.62500000  1.0 0.4819002346
C  C70  1  0.37500000  0.75990000  0.62500000  1.0 0.4604759305
C  C71  1  0.75990000  0.87500000  0.12500000  1.0 0.3398095381
C  C72  1  0.49010000  0.87500000  0.62500000  1.0 0.4819002346
C  C73  1  0.87500000  0.87500000  0.24010000  1.0 0.3293477879
C  C74  1  0.87500000  0.37500000  0.50990000  1.0 0.4510400695
C  C75  1  0.87500000  0.25990000  0.62500000  1.0 0.3398095381
C  C76  1  0.87500000  0.49010000  0.62500000  1.0 0.4510400695
C  C77  1  0.37500000  0.49010000  0.12500000  1.0 0.4604759305
C  C78  1  0.37500000  0.25990000  0.12500000  1.0 0.3398095381
C  C79  1  0.75990000  0.37500000  0.62500000  1.0 0.4510400695
C  C80  1  0.49010000  0.37500000  0.12500000  1.0 0.4604759305
C  C81  1  0.87500000  0.37500000  0.74010000  1.0 0.3398095381
C  C82  1  0.87500000  0.87500000  0.00990000  1.0 0.3398095381
C  C83  1  0.25990000  0.87500000  0.62500000  1.0 0.3601672635
C  C84  1  0.99010000  0.87500000  0.12500000  1.0 0.3398095381
C  C85  1  0.37500000  0.87500000  0.74010000  1.0 0.4819002346
C  C86  1  0.37500000  0.37500000  0.00990000  1.0 0.4604759305
C  C87  1  0.25990000  0.37500000  0.12500000  1.0 0.4510400695
C  C88  1  0.99010000  0.37500000  0.62500000  1.0 0.469160004
C  C89  1  0.37500000  0.37500000  0.24010000  1.0 0.4510400695
C  C90  1  0.37500000  0.87500000  0.50990000  1.0 0.3601672635
C  C91  1  0.49010000  0.87500000  0.12500000  1.0 0.3098512788
C  C92  1  0.37500000  0.99010000  0.12500000  1.0 0.3205283419
C  C93  1  0.37500000  0.87500000  0.24010000  1.0 0.3293477879
C  C94  1  0.25990000  0.87500000  0.12500000  1.0 0.3205283419
C  C95  1  0.87500000  0.37500000  0.00990000  1.0 0.349016467
C  C96  1  0.99010000  0.87500000  0.62500000  1.0 0.349016467
C  C97  1  0.87500000  0.99010000  0.62500000  1.0 0.349016467
C  C98  1  0.87500000  0.87500000  0.50990000  1.0 0.3293477879
C  C99  1  0.87500000  0.87500000  0.74010000  1.0 0.3398095381
C  C390  1  0.50720000  0.62500000  0.37500000  1.0 0.2686244831
C  C391  1  0.74280000  0.62500000  0.37500000  1.0 0.2686244831
C  C392  1  0.74280000  0.12500000  0.87500000  1.0 0.5228678818
C  C393  1  0.50720000  0.12500000  0.87500000  1.0 0.5418230387
C  C394  1  0.12500000  0.24280000  0.37500000  1.0 0.5560156092
C  C395  1  0.12500000  0.50720000  0.87500000  1.0 0.3098512788
C  C396  1  0.12500000  0.12500000  0.49280000  1.0 0.5520810538
C  C397  1  0.12500000  0.12500000  0.25720000  1.0 0.5520810538
C  C398  1  0.62500000  0.62500000  0.25720000  1.0 0.2686244831
C  C399  1  0.12500000  0.62500000  0.99280000  1.0 0.5075512961
C  C400  1  0.12500000  0.74280000  0.87500000  1.0 0.5228678818
C  C401  1  0.12500000  0.00720000  0.37500000  1.0 0.5520810538
C  C402  1  0.12500000  0.62500000  0.75720000  1.0 0.5324951843
C  C403  1  0.62500000  0.12500000  0.75720000  1.0 0.5520810538
C  C404  1  0.00720000  0.62500000  0.87500000  1.0 0.3009565756
C  C405  1  0.24280000  0.62500000  0.87500000  1.0 0.5228678818
C  C406  1  0.24280000  0.12500000  0.37500000  1.0 0.5520810538
C  C407  1  0.00720000  0.12500000  0.37500000  1.0 0.5520810538
C  C408  1  0.62500000  0.24280000  0.87500000  1.0 0.5418230387
C  C409  1  0.62500000  0.50720000  0.37500000  1.0 0.3205283419
C  C410  1  0.62500000  0.12500000  0.99280000  1.0 0.3098512788
C  C411  1  0.62500000  0.62500000  0.49280000  1.0 0.2891361848
C  C412  1  0.62500000  0.74280000  0.37500000  1.0 0.5075512961
C  C413  1  0.62500000  0.00720000  0.87500000  1.0 0.5228678818
C  C414  1  0.12500000  0.24280000  0.87500000  1.0 0.3098512788
C  C415  1  0.74280000  0.62500000  0.87500000  1.0 0.3205283419
C  C416  1  0.62500000  0.62500000  0.99280000  1.0 0.3205283419
C  C417  1  0.62500000  0.24280000  0.37500000  1.0 0.3205283419
C  C418  1  0.00720000  0.62500000  0.37500000  1.0 0.3009565756
C  C419  1  0.62500000  0.62500000  0.75720000  1.0 0.3205283419
C  C420  1  0.24280000  0.62500000  0.37500000  1.0 0.3009565756
C  C421  1  0.62500000  0.12500000  0.25720000  1.0 0.2891361848
C  C422  1  0.45970000  0.62500000  0.37500000  1.0 -0.0487414574
C  C423  1  0.79030000  0.62500000  0.37500000  1.0 -0.0487414574
C  C424  1  0.79030000  0.12500000  0.87500000  1.0 -0.2191740587
C  C425  1  0.45970000  0.12500000  0.87500000  1.0 -0.2191740587
C  C426  1  0.12500000  0.29030000  0.37500000  1.0 -0.2105892451
C  C427  1  0.12500000  0.45970000  0.87500000  1.0 -0.0279742966
C  C428  1  0.12500000  0.12500000  0.54030000  1.0 -0.2105892451
C  C429  1  0.12500000  0.12500000  0.20970000  1.0 -0.2191740587
C  C430  1  0.62500000  0.62500000  0.20970000  1.0 -0.0487414574
C  C431  1  0.12500000  0.62500000  0.04030000  1.0 -0.2191740587
C  C432  1  0.12500000  0.79030000  0.87500000  1.0 -0.2191740587
C  C433  1  0.12500000  0.95970000  0.37500000  1.0 -0.2105892451
C  C434  1  0.12500000  0.62500000  0.70970000  1.0 -0.2191740587
C  C435  1  0.62500000  0.12500000  0.70970000  1.0 -0.2105892451
C  C436  1  0.95970000  0.62500000  0.87500000  1.0 -0.0279742966
C  C437  1  0.29030000  0.62500000  0.87500000  1.0 -0.2191740587
C  C438  1  0.29030000  0.12500000  0.37500000  1.0 -0.2191740587
C  C439  1  0.95970000  0.12500000  0.37500000  1.0 -0.2105892451
C  C440  1  0.62500000  0.29030000  0.87500000  1.0 -0.2191740587
C  C441  1  0.62500000  0.45970000  0.37500000  1.0 -0.0279742966
C  C442  1  0.62500000  0.12500000  0.04030000  1.0 -0.0197836554
C  C443  1  0.62500000  0.62500000  0.54030000  1.0 -0.0487414574
C  C444  1  0.62500000  0.79030000  0.37500000  1.0 -0.2105892451
C  C445  1  0.62500000  0.95970000  0.87500000  1.0 -0.2191740587
C  C446  1  0.12500000  0.29030000  0.87500000  1.0 -0.0026664781
C  C447  1  0.79030000  0.62500000  0.87500000  1.0 -0.0026664781
C  C448  1  0.62500000  0.62500000  0.04030000  1.0 0.0092909264
C  C449  1  0.62500000  0.29030000  0.37500000  1.0 -0.0105160473
C  C450  1  0.95970000  0.62500000  0.37500000  1.0 0.0092909264
C  C451  1  0.62500000  0.62500000  0.70970000  1.0 0.0092909264
C  C452  1  0.29030000  0.62500000  0.37500000  1.0 0.0092909264
C  C453  1  0.62500000  0.12500000  0.20970000  1.0 0.0024703796
C  C454  1  0.24010000  0.62500000  0.37500000  1.0 0.3293477879
C  C455  1  0.00990000  0.62500000  0.37500000  1.0 0.3293477879
C  C456  1  0.00990000  0.12500000  0.87500000  1.0 0.4819002346
C  C457  1  0.24010000  0.12500000  0.87500000  1.0 0.4604759305
C  C458  1  0.12500000  0.50990000  0.37500000  1.0 0.4604759305
C  C459  1  0.12500000  0.24010000  0.87500000  1.0 0.3398095381
C  C460  1  0.12500000  0.12500000  0.75990000  1.0 0.4819002346
C  C461  1  0.12500000  0.12500000  0.99010000  1.0 0.4604759305
C  C462  1  0.62500000  0.62500000  0.99010000  1.0 0.3398095381
C  C463  1  0.12500000  0.62500000  0.25990000  1.0 0.4604759305
C  C464  1  0.12500000  0.00990000  0.87500000  1.0 0.469160004
C  C465  1  0.12500000  0.74010000  0.37500000  1.0 0.4510400695
C  C466  1  0.12500000  0.62500000  0.49010000  1.0 0.4604759305
C  C467  1  0.62500000  0.12500000  0.49010000  1.0 0.4510400695
C  C468  1  0.74010000  0.62500000  0.87500000  1.0 0.349016467
C  C469  1  0.50990000  0.62500000  0.87500000  1.0 0.469160004
C  C470  1  0.50990000  0.12500000  0.37500000  1.0 0.4510400695
C  C471  1  0.74010000  0.12500000  0.37500000  1.0 0.4444934264
C  C472  1  0.62500000  0.50990000  0.87500000  1.0 0.4604759305
C  C473  1  0.62500000  0.24010000  0.37500000  1.0 0.3398095381
C  C474  1  0.62500000  0.12500000  0.25990000  1.0 0.3098512788
C  C475  1  0.62500000  0.62500000  0.75990000  1.0 0.3398095381
C  C476  1  0.62500000  0.00990000  0.37500000  1.0 0.4510400695
C  C477  1  0.62500000  0.74010000  0.87500000  1.0 0.4604759305
C  C478  1  0.12500000  0.50990000  0.87500000  1.0 0.3398095381
C  C479  1  0.00990000  0.62500000  0.87500000  1.0 0.3398095381
C  C480  1  0.62500000  0.62500000  0.25990000  1.0 0.3293477879
C  C481  1  0.62500000  0.50990000  0.37500000  1.0 0.3293477879
C  C482  1  0.74010000  0.62500000  0.37500000  1.0 0.3293477879
C  C483  1  0.62500000  0.62500000  0.49010000  1.0 0.3398095381
C  C484  1  0.50990000  0.62500000  0.37500000  1.0 0.3293477879
C  C485  1  0.62500000  0.12500000  0.99010000  1.0 0.349016467
C  C100  1  0.89920000  0.61620000  0.10080000  0.25 0.0092909264
C  C101  1  0.89920000  0.13380000  0.14920000  0.25 0.0092909264
C  C102  1  0.35080000  0.13380000  0.60080000  0.25 0.0092909264
C  C103  1  0.35080000  0.61620000  0.64920000  0.25 0.0092909264
C  C104  1  0.61620000  0.89920000  0.10080000  0.25 -0.0026664781
C  C105  1  0.63380000  0.85080000  0.60080000  0.25 0.0092909264
C  C106  1  0.61620000  0.85080000  0.14920000  0.25 -0.0197836554
C  C107  1  0.63380000  0.89920000  0.64920000  0.25 0.0092909264
C  C108  1  0.89920000  0.89920000  0.38380000  0.25 -0.0105160473
C  C109  1  0.85080000  0.39920000  0.36620000  0.25 0.0024703796
C  C110  1  0.85080000  0.85080000  0.38380000  0.25 -0.0197836554
C  C111  1  0.89920000  0.35080000  0.36620000  0.25 0.0092909264
C  C112  1  0.89920000  0.11620000  0.60080000  0.25 -0.0105160473
C  C113  1  0.89920000  0.63380000  0.64920000  0.25 0.0092909264
C  C114  1  0.35080000  0.63380000  0.10080000  0.25 0.0092909264
C  C115  1  0.35080000  0.11620000  0.14920000  0.25 0.0024703796
C  C116  1  0.61620000  0.39920000  0.60080000  0.25 0.0024703796
C  C117  1  0.63380000  0.35080000  0.10080000  0.25 0.0092909264
C  C118  1  0.61620000  0.35080000  0.64920000  0.25 0.0199003512
C  C119  1  0.63380000  0.39920000  0.14920000  0.25 0.0024703796
C  C120  1  0.89920000  0.39920000  0.88380000  0.25 -0.0197836554
C  C121  1  0.85080000  0.89920000  0.86620000  0.25 -0.0105160473
C  C122  1  0.85080000  0.35080000  0.88380000  0.25 -0.0197836554
C  C123  1  0.89920000  0.85080000  0.86620000  0.25 -0.0197836554
C  C124  1  0.39920000  0.61620000  0.60080000  0.25 0.0092909264
C  C125  1  0.39920000  0.13380000  0.64920000  0.25 0.0092909264
C  C126  1  0.85080000  0.13380000  0.10080000  0.25 0.0024703796
C  C127  1  0.85080000  0.61620000  0.14920000  0.25 0.0024703796
C  C128  1  0.11620000  0.89920000  0.60080000  0.25 -0.0197836554
C  C129  1  0.13380000  0.85080000  0.10080000  0.25 -0.0105160473
C  C130  1  0.11620000  0.85080000  0.64920000  0.25 -0.0197836554
C  C131  1  0.13380000  0.89920000  0.14920000  0.25 -0.0026664781
C  C132  1  0.39920000  0.89920000  0.88380000  0.25 0.0092909264
C  C133  1  0.35080000  0.39920000  0.86620000  0.25 0.0092909264
C  C134  1  0.35080000  0.85080000  0.88380000  0.25 0.0092909264
C  C135  1  0.39920000  0.35080000  0.86620000  0.25 0.0092909264
C  C136  1  0.39920000  0.11620000  0.10080000  0.25 0.0024703796
C  C137  1  0.39920000  0.63380000  0.14920000  0.25 0.0092909264
C  C138  1  0.85080000  0.63380000  0.60080000  0.25 0.0092909264
C  C139  1  0.85080000  0.11620000  0.64920000  0.25 -0.0105160473
C  C140  1  0.11620000  0.39920000  0.10080000  0.25 0.0092909264
C  C141  1  0.13380000  0.35080000  0.60080000  0.25 0.0024703796
C  C142  1  0.11620000  0.35080000  0.14920000  0.25 0.0092909264
C  C143  1  0.13380000  0.39920000  0.64920000  0.25 0.0092909264
C  C144  1  0.39920000  0.39920000  0.38380000  0.25 0.0024703796
C  C145  1  0.35080000  0.89920000  0.36620000  0.25 0.0024703796
C  C146  1  0.35080000  0.35080000  0.38380000  0.25 0.0092909264
C  C147  1  0.39920000  0.85080000  0.36620000  0.25 -0.0197836554
C  C148  1  0.63380000  0.85080000  0.10080000  0.25 0.0309044993
C  C149  1  0.35080000  0.13380000  0.10080000  0.25 -0.0197836554
C  C150  1  0.35080000  0.85080000  0.38380000  0.25 0.0199003512
C  C151  1  0.11620000  0.85080000  0.14920000  0.25 0.0199003512
C  C152  1  0.39920000  0.13380000  0.14920000  0.25 -0.0197836554
C  C153  1  0.85080000  0.39920000  0.86620000  0.25 0.0199003512
C  C154  1  0.13380000  0.85080000  0.60080000  0.25 0.0309044993
C  C155  1  0.85080000  0.13380000  0.60080000  0.25 0.0309044993
C  C156  1  0.85080000  0.89920000  0.36620000  0.25 0.0309044993
C  C157  1  0.85080000  0.85080000  0.88380000  0.25 0.0199003512
C  C158  1  0.89480000  0.62600000  0.10520000  0.25 0.0309044993
C  C159  1  0.89480000  0.12400000  0.14480000  0.25 0.0309044993
C  C160  1  0.35520000  0.12400000  0.60520000  0.25 0.0309044993
C  C161  1  0.35520000  0.62600000  0.64480000  0.25 0.0309044993
C  C162  1  0.62600000  0.89480000  0.10520000  0.25 -0.0197836554
C  C163  1  0.62400000  0.85520000  0.60520000  0.25 0.0384026596
C  C164  1  0.62600000  0.85520000  0.14480000  0.25 -0.0197836554
C  C165  1  0.62400000  0.89480000  0.64480000  0.25 0.0384026596
C  C166  1  0.89480000  0.89480000  0.37400000  0.25 -0.0197836554
C  C167  1  0.85520000  0.39480000  0.37600000  0.25 0.0309044993
C  C168  1  0.85520000  0.85520000  0.37400000  0.25 -0.0197836554
C  C169  1  0.89480000  0.35520000  0.37600000  0.25 0.0384026596
C  C170  1  0.89480000  0.12600000  0.60520000  0.25 -0.0197836554
C  C171  1  0.89480000  0.62400000  0.64480000  0.25 0.0384026596
C  C172  1  0.35520000  0.62400000  0.10520000  0.25 0.0384026596
C  C173  1  0.35520000  0.12600000  0.14480000  0.25 -0.0487414574
C  C174  1  0.62600000  0.39480000  0.60520000  0.25 0.0309044993
C  C175  1  0.62400000  0.35520000  0.10520000  0.25 0.0384026596
C  C176  1  0.62600000  0.35520000  0.64480000  0.25 0.0384026596
C  C177  1  0.62400000  0.39480000  0.14480000  0.25 0.0309044993
C  C178  1  0.89480000  0.39480000  0.87400000  0.25 -0.0197836554
C  C179  1  0.85520000  0.89480000  0.87600000  0.25 -0.0197836554
C  C180  1  0.85520000  0.35520000  0.87400000  0.25 -0.0197836554
C  C181  1  0.89480000  0.85520000  0.87600000  0.25 -0.0197836554
C  C182  1  0.39480000  0.62600000  0.60520000  0.25 0.0309044993
C  C183  1  0.39480000  0.12400000  0.64480000  0.25 0.0309044993
C  C184  1  0.85520000  0.12400000  0.10520000  0.25 0.0309044993
C  C185  1  0.85520000  0.62600000  0.14480000  0.25 0.0309044993
C  C186  1  0.12600000  0.89480000  0.60520000  0.25 -0.0197836554
C  C187  1  0.12400000  0.85520000  0.10520000  0.25 -0.0197836554
C  C188  1  0.12600000  0.85520000  0.64480000  0.25 -0.0197836554
C  C189  1  0.12400000  0.89480000  0.14480000  0.25 -0.0197836554
C  C190  1  0.39480000  0.89480000  0.87400000  0.25 0.0384026596
C  C191  1  0.35520000  0.39480000  0.87600000  0.25 0.0309044993
C  C192  1  0.35520000  0.85520000  0.87400000  0.25 0.0384026596
C  C193  1  0.39480000  0.35520000  0.87600000  0.25 0.0384026596
C  C194  1  0.39480000  0.12600000  0.10520000  0.25 -0.0594830056
C  C195  1  0.39480000  0.62400000  0.14480000  0.25 0.0384026596
C  C196  1  0.85520000  0.62400000  0.60520000  0.25 0.0309044993
C  C197  1  0.85520000  0.12600000  0.64480000  0.25 -0.0197836554
C  C198  1  0.12600000  0.39480000  0.10520000  0.25 0.0309044993
C  C199  1  0.12400000  0.35520000  0.60520000  0.25 0.0309044993
C  C200  1  0.12600000  0.35520000  0.14480000  0.25 0.0384026596
C  C201  1  0.12400000  0.39480000  0.64480000  0.25 0.0309044993
C  C202  1  0.39480000  0.39480000  0.37400000  0.25 0.0309044993
C  C203  1  0.35520000  0.89480000  0.37600000  0.25 -0.0105160473
C  C204  1  0.35520000  0.35520000  0.37400000  0.25 0.0384026596
C  C205  1  0.39480000  0.85520000  0.37600000  0.25 -0.0197836554
C  C206  1  0.62400000  0.85520000  0.10520000  0.25 -0.0487414574
C  C207  1  0.35520000  0.12400000  0.10520000  0.25 -0.0703071531
C  C208  1  0.35520000  0.85520000  0.37400000  0.25 -0.0487414574
C  C209  1  0.12600000  0.85520000  0.14480000  0.25 -0.0487414574
C  C210  1  0.39480000  0.12400000  0.14480000  0.25 -0.0703071531
C  C211  1  0.85520000  0.39480000  0.87600000  0.25 -0.0487414574
C  C212  1  0.12400000  0.85520000  0.60520000  0.25 -0.0487414574
C  C213  1  0.85520000  0.12400000  0.60520000  0.25 -0.0487414574
C  C214  1  0.85520000  0.89480000  0.37600000  0.25 -0.0487414574
C  C215  1  0.85520000  0.85520000  0.87400000  0.25 -0.0487414574
C  C486  1  0.38380000  0.64920000  0.35080000  0.25 -0.0197836554
C  C487  1  0.86620000  0.64920000  0.39920000  0.25 -0.0105160473
C  C488  1  0.86620000  0.10080000  0.85080000  0.25 0.0092909264
C  C489  1  0.38380000  0.10080000  0.89920000  0.25 -0.0026664781
C  C490  1  0.10080000  0.36620000  0.35080000  0.25 0.0092909264
C  C491  1  0.10080000  0.38380000  0.89920000  0.25 -0.0197836554
C  C492  1  0.14920000  0.38380000  0.85080000  0.25 -0.0197836554
C  C493  1  0.14920000  0.36620000  0.39920000  0.25 0.0092909264
C  C494  1  0.10080000  0.10080000  0.61620000  0.25 0.0092909264
C  C495  1  0.10080000  0.14920000  0.13380000  0.25 0.0199003512
C  C496  1  0.64920000  0.60080000  0.13380000  0.25 -0.0105160473
C  C497  1  0.14920000  0.64920000  0.11620000  0.25 0.0092909264
C  C498  1  0.38380000  0.14920000  0.85080000  0.25 0.0092909264
C  C499  1  0.86620000  0.14920000  0.89920000  0.25 0.0092909264
C  C500  1  0.86620000  0.60080000  0.35080000  0.25 -0.0105160473
C  C501  1  0.38380000  0.60080000  0.39920000  0.25 -0.0105160473
C  C502  1  0.10080000  0.86620000  0.85080000  0.25 0.0092909264
C  C503  1  0.10080000  0.88380000  0.39920000  0.25 0.0092909264
C  C504  1  0.14920000  0.88380000  0.35080000  0.25 0.0092909264
C  C505  1  0.14920000  0.86620000  0.89920000  0.25 0.0092909264
C  C506  1  0.10080000  0.60080000  0.11620000  0.25 0.0092909264
C  C507  1  0.10080000  0.64920000  0.63380000  0.25 0.0024703796
C  C508  1  0.64920000  0.10080000  0.63380000  0.25 0.0024703796
C  C509  1  0.14920000  0.14920000  0.61620000  0.25 0.0199003512
C  C510  1  0.88380000  0.64920000  0.85080000  0.25 -0.0197836554
C  C511  1  0.36620000  0.64920000  0.89920000  0.25 0.0092909264
C  C512  1  0.36620000  0.10080000  0.35080000  0.25 0.0092909264
C  C513  1  0.88380000  0.10080000  0.39920000  0.25 0.0024703796
C  C514  1  0.60080000  0.36620000  0.85080000  0.25 0.0024703796
C  C515  1  0.60080000  0.38380000  0.39920000  0.25 -0.0105160473
C  C516  1  0.64920000  0.38380000  0.35080000  0.25 -0.0105160473
C  C517  1  0.64920000  0.36620000  0.89920000  0.25 0.0092909264
C  C518  1  0.60080000  0.10080000  0.11620000  0.25 -0.0197836554
C  C519  1  0.60080000  0.14920000  0.63380000  0.25 0.0092909264
C  C520  1  0.14920000  0.60080000  0.63380000  0.25 0.0024703796
C  C521  1  0.64920000  0.64920000  0.61620000  0.25 -0.0026664781
C  C522  1  0.88380000  0.14920000  0.35080000  0.25 0.0092909264
C  C523  1  0.36620000  0.14920000  0.39920000  0.25 0.0199003512
C  C524  1  0.36620000  0.60080000  0.85080000  0.25 0.0092909264
C  C525  1  0.88380000  0.60080000  0.89920000  0.25 -0.0197836554
C  C526  1  0.60080000  0.86620000  0.35080000  0.25 0.0199003512
C  C527  1  0.60080000  0.88380000  0.89920000  0.25 0.0092909264
C  C528  1  0.64920000  0.88380000  0.85080000  0.25 0.0092909264
C  C529  1  0.64920000  0.86620000  0.39920000  0.25 0.0092909264
C  C530  1  0.60080000  0.60080000  0.61620000  0.25 -0.0105160473
C  C531  1  0.60080000  0.64920000  0.13380000  0.25 -0.0197836554
C  C532  1  0.14920000  0.10080000  0.13380000  0.25 0.0092909264
C  C533  1  0.64920000  0.14920000  0.11620000  0.25 -0.0026664781
C  C534  1  0.14920000  0.36620000  0.89920000  0.25 0.0309044993
C  C535  1  0.86620000  0.64920000  0.89920000  0.25 0.0309044993
C  C536  1  0.64920000  0.64920000  0.11620000  0.25 0.0309044993
C  C537  1  0.60080000  0.36620000  0.35080000  0.25 -0.0197836554
C  C538  1  0.88380000  0.64920000  0.35080000  0.25 0.0199003512
C  C539  1  0.64920000  0.60080000  0.63380000  0.25 0.0199003512
C  C540  1  0.64920000  0.36620000  0.39920000  0.25 -0.0105160473
C  C541  1  0.36620000  0.64920000  0.39920000  0.25 0.0309044993
C  C542  1  0.64920000  0.10080000  0.13380000  0.25 0.0309044993
C  C543  1  0.37400000  0.64480000  0.35520000  0.25 -0.0279742966
C  C544  1  0.87600000  0.64480000  0.39480000  0.25 -0.0197836554
C  C545  1  0.87600000  0.10520000  0.85520000  0.25 0.0309044993
C  C546  1  0.37400000  0.10520000  0.89480000  0.25 0.0309044993
C  C547  1  0.10520000  0.37600000  0.35520000  0.25 0.0309044993
C  C548  1  0.10520000  0.37400000  0.89480000  0.25 -0.0279742966
C  C549  1  0.14480000  0.37400000  0.85520000  0.25 -0.0279742966
C  C550  1  0.14480000  0.37600000  0.39480000  0.25 0.0309044993
C  C551  1  0.10520000  0.10520000  0.62600000  0.25 0.0309044993
C  C552  1  0.10520000  0.14480000  0.12400000  0.25 0.0309044993
C  C553  1  0.64480000  0.60520000  0.12400000  0.25 -0.0197836554
C  C554  1  0.14480000  0.64480000  0.12600000  0.25 0.0309044993
C  C555  1  0.37400000  0.14480000  0.85520000  0.25 0.0309044993
C  C556  1  0.87600000  0.14480000  0.89480000  0.25 0.0384026596
C  C557  1  0.87600000  0.60520000  0.35520000  0.25 -0.0105160473
C  C558  1  0.37400000  0.60520000  0.39480000  0.25 -0.0197836554
C  C559  1  0.10520000  0.87600000  0.85520000  0.25 0.0384026596
C  C560  1  0.10520000  0.87400000  0.39480000  0.25 0.0309044993
C  C561  1  0.14480000  0.87400000  0.35520000  0.25 0.0309044993
C  C562  1  0.14480000  0.87600000  0.89480000  0.25 0.0384026596
C  C563  1  0.10520000  0.60520000  0.12600000  0.25 0.0384026596
C  C564  1  0.10520000  0.64480000  0.62400000  0.25 0.0309044993
C  C565  1  0.64480000  0.10520000  0.62400000  0.25 0.0309044993
C  C566  1  0.14480000  0.14480000  0.62600000  0.25 0.0384026596
C  C567  1  0.87400000  0.64480000  0.85520000  0.25 -0.0197836554
C  C568  1  0.37600000  0.64480000  0.89480000  0.25 0.0384026596
C  C569  1  0.37600000  0.10520000  0.35520000  0.25 0.0309044993
C  C570  1  0.87400000  0.10520000  0.39480000  0.25 0.0309044993
C  C571  1  0.60520000  0.37600000  0.85520000  0.25 0.0309044993
C  C572  1  0.60520000  0.37400000  0.39480000  0.25 -0.0594830056
C  C573  1  0.64480000  0.37400000  0.35520000  0.25 -0.0594830056
C  C574  1  0.64480000  0.37600000  0.89480000  0.25 0.0309044993
C  C575  1  0.60520000  0.10520000  0.12600000  0.25 -0.0279742966
C  C576  1  0.60520000  0.14480000  0.62400000  0.25 0.0384026596
C  C577  1  0.14480000  0.60520000  0.62400000  0.25 0.0384026596
C  C578  1  0.64480000  0.64480000  0.62600000  0.25 -0.0197836554
C  C579  1  0.87400000  0.14480000  0.35520000  0.25 0.0384026596
C  C580  1  0.37600000  0.14480000  0.39480000  0.25 0.0384026596
C  C581  1  0.37600000  0.60520000  0.85520000  0.25 0.0384026596
C  C582  1  0.87400000  0.60520000  0.89480000  0.25 -0.0197836554
C  C583  1  0.60520000  0.87600000  0.35520000  0.25 0.050950492
C  C584  1  0.60520000  0.87400000  0.89480000  0.25 0.0309044993
C  C585  1  0.64480000  0.87400000  0.85520000  0.25 0.0309044993
C  C586  1  0.64480000  0.87600000  0.39480000  0.25 0.0384026596
C  C587  1  0.60520000  0.60520000  0.62600000  0.25 -0.0105160473
C  C588  1  0.60520000  0.64480000  0.12400000  0.25 -0.0197836554
C  C589  1  0.14480000  0.10520000  0.12400000  0.25 0.0309044993
C  C590  1  0.64480000  0.14480000  0.12600000  0.25 -0.0197836554
C  C591  1  0.14480000  0.37600000  0.89480000  0.25 -0.0487414574
C  C592  1  0.87600000  0.64480000  0.89480000  0.25 -0.0487414574
C  C593  1  0.64480000  0.64480000  0.12600000  0.25 -0.0487414574
C  C594  1  0.60520000  0.37600000  0.35520000  0.25 -0.0594830056
C  C595  1  0.87400000  0.64480000  0.35520000  0.25 -0.0487414574
C  C596  1  0.64480000  0.60520000  0.62400000  0.25 -0.0487414574
C  C597  1  0.64480000  0.37600000  0.39480000  0.25 -0.0594830056
C  C598  1  0.37600000  0.64480000  0.39480000  0.25 -0.0487414574
C  C599  1  0.64480000  0.10520000  0.12400000  0.25 -0.0487414574
C  C216  1  0.90180000  0.57110000  0.09820000  0.5 -0.0105160473
C  C217  1  0.90180000  0.17890000  0.15180000  0.5 -0.0105160473
C  C218  1  0.34820000  0.17890000  0.59820000  0.5 -0.0197836554
C  C219  1  0.34820000  0.57110000  0.65180000  0.5 -0.0197836554
C  C220  1  0.57110000  0.90180000  0.09820000  0.5 -0.0703071531
C  C221  1  0.67890000  0.84820000  0.59820000  0.5 0.0092909264
C  C222  1  0.57110000  0.84820000  0.15180000  0.5 -0.0703071531
C  C223  1  0.67890000  0.90180000  0.65180000  0.5 0.0024703796
C  C224  1  0.90180000  0.90180000  0.42890000  0.5 -0.0703071531
C  C225  1  0.84820000  0.40180000  0.32110000  0.5 -0.0105160473
C  C226  1  0.84820000  0.84820000  0.42890000  0.5 -0.0594830056
C  C227  1  0.90180000  0.34820000  0.32110000  0.5 -0.0105160473
C  C228  1  0.90180000  0.07110000  0.59820000  0.5 -0.0778145376
C  C229  1  0.90180000  0.67890000  0.65180000  0.5 0.0024703796
C  C230  1  0.34820000  0.67890000  0.09820000  0.5 0.0092909264
C  C231  1  0.34820000  0.07110000  0.15180000  0.5 -0.0279742966
C  C232  1  0.57110000  0.40180000  0.59820000  0.5 -0.0105160473
C  C233  1  0.67890000  0.34820000  0.09820000  0.5 -0.0105160473
C  C234  1  0.57110000  0.34820000  0.65180000  0.5 -0.0197836554
C  C235  1  0.67890000  0.40180000  0.15180000  0.5 0.0024703796
C  C236  1  0.90180000  0.40180000  0.92890000  0.5 -0.0703071531
C  C237  1  0.84820000  0.90180000  0.82110000  0.5 -0.0703071531
C  C238  1  0.84820000  0.34820000  0.92890000  0.5 -0.0703071531
C  C239  1  0.90180000  0.84820000  0.82110000  0.5 -0.0703071531
C  C240  1  0.40180000  0.57110000  0.59820000  0.5 -0.0105160473
C  C241  1  0.40180000  0.17890000  0.65180000  0.5 -0.0197836554
C  C242  1  0.84820000  0.17890000  0.09820000  0.5 -0.0026664781
C  C243  1  0.84820000  0.57110000  0.15180000  0.5 0.0024703796
C  C244  1  0.07110000  0.90180000  0.59820000  0.5 -0.0778145376
C  C245  1  0.17890000  0.84820000  0.09820000  0.5 -0.0703071531
C  C246  1  0.07110000  0.84820000  0.65180000  0.5 -0.0778145376
C  C247  1  0.17890000  0.90180000  0.15180000  0.5 -0.0703071531
C  C248  1  0.40180000  0.90180000  0.92890000  0.5 0.0024703796
C  C249  1  0.34820000  0.40180000  0.82110000  0.5 -0.0105160473
C  C250  1  0.34820000  0.84820000  0.92890000  0.5 0.0092909264
C  C251  1  0.40180000  0.34820000  0.82110000  0.5 -0.0105160473
C  C252  1  0.40180000  0.07110000  0.09820000  0.5 -0.0197836554
C  C253  1  0.40180000  0.67890000  0.15180000  0.5 0.0024703796
C  C254  1  0.84820000  0.67890000  0.59820000  0.5 0.0092909264
C  C255  1  0.84820000  0.07110000  0.65180000  0.5 -0.0703071531
C  C256  1  0.07110000  0.40180000  0.09820000  0.5 -0.0105160473
C  C257  1  0.17890000  0.34820000  0.59820000  0.5 -0.0197836554
C  C258  1  0.07110000  0.34820000  0.15180000  0.5 -0.0105160473
C  C259  1  0.17890000  0.40180000  0.65180000  0.5 -0.0197836554
C  C260  1  0.40180000  0.40180000  0.42890000  0.5 -0.0105160473
C  C261  1  0.34820000  0.90180000  0.32110000  0.5 -0.0703071531
C  C262  1  0.34820000  0.34820000  0.42890000  0.5 -0.0197836554
C  C263  1  0.40180000  0.84820000  0.32110000  0.5 -0.0703071531
C  C264  1  0.67890000  0.84820000  0.09820000  0.5 -0.0487414574
C  C265  1  0.34820000  0.17890000  0.09820000  0.5 -0.0105160473
C  C266  1  0.34820000  0.84820000  0.42890000  0.5 -0.0487414574
C  C267  1  0.07110000  0.84820000  0.15180000  0.5 -0.0413047187
C  C268  1  0.40180000  0.17890000  0.15180000  0.5 -0.0105160473
C  C269  1  0.84820000  0.40180000  0.82110000  0.5 -0.0413047187
C  C270  1  0.17890000  0.84820000  0.59820000  0.5 -0.0413047187
C  C271  1  0.84820000  0.17890000  0.59820000  0.5 -0.0413047187
C  C272  1  0.84820000  0.90180000  0.32110000  0.5 -0.0413047187
C  C273  1  0.84820000  0.84820000  0.92890000  0.5 -0.0487414574
C  C274  1  0.90820000  0.66666667  0.09180000  0.5 -0.10077941
C  C275  1  0.90820000  0.08330000  0.15820000  0.5 -0.10077941
C  C276  1  0.34180000  0.08330000  0.59180000  0.5 -0.1084848644
C  C277  1  0.34180000  0.66666667  0.65820000  0.5 -0.10077941
C  C278  1  0.66666667  0.90820000  0.09180000  0.5 -0.0279742966
C  C279  1  0.58330000  0.84180000  0.59180000  0.5 -0.1184162786
C  C280  1  0.66666667  0.84180000  0.15820000  0.5 -0.0279742966
C  C281  1  0.58330000  0.90820000  0.65820000  0.5 -0.1184162786
C  C282  1  0.90820000  0.90820000  0.33333333  0.5 -0.0197836554
C  C283  1  0.84180000  0.40820000  0.41670000  0.5 -0.10077941
C  C284  1  0.84180000  0.84180000  0.33333333  0.5 -0.0197836554
C  C285  1  0.90820000  0.34180000  0.41670000  0.5 -0.1084848644
C  C286  1  0.90820000  0.16670000  0.59180000  0.5 -0.0105160473
C  C287  1  0.90820000  0.58330000  0.65820000  0.5 -0.1084848644
C  C288  1  0.34180000  0.58330000  0.09180000  0.5 -0.1184162786
C  C289  1  0.34180000  0.16670000  0.15820000  0.5 0.0199003512
C  C290  1  0.66666667  0.40820000  0.59180000  0.5 -0.0903360352
C  C291  1  0.58330000  0.34180000  0.09180000  0.5 -0.1084848644
C  C292  1  0.66666667  0.34180000  0.65820000  0.5 -0.0903360352
C  C293  1  0.58330000  0.40820000  0.15820000  0.5 -0.1084848644
C  C294  1  0.90820000  0.40820000  0.83330000  0.5 -0.0105160473
C  C295  1  0.84180000  0.90820000  0.91670000  0.5 -0.0105160473
C  C296  1  0.84180000  0.34180000  0.83330000  0.5 -0.0026664781
C  C297  1  0.90820000  0.84180000  0.91670000  0.5 -0.0197836554
C  C298  1  0.40820000  0.66666667  0.59180000  0.5 -0.10077941
C  C299  1  0.40820000  0.08330000  0.65820000  0.5 -0.1084848644
C  C300  1  0.84180000  0.08330000  0.09180000  0.5 -0.1084848644
C  C301  1  0.84180000  0.66666667  0.15820000  0.5 -0.1084848644
C  C302  1  0.16670000  0.90820000  0.59180000  0.5 -0.0105160473
C  C303  1  0.08330000  0.84180000  0.09180000  0.5 -0.0197836554
C  C304  1  0.16670000  0.84180000  0.65820000  0.5 -0.0105160473
C  C305  1  0.08330000  0.90820000  0.15820000  0.5 -0.0197836554
C  C306  1  0.40820000  0.90820000  0.83330000  0.5 -0.1184162786
C  C307  1  0.34180000  0.40820000  0.91670000  0.5 -0.1084848644
C  C308  1  0.34180000  0.84180000  0.83330000  0.5 -0.1184162786
C  C309  1  0.40820000  0.34180000  0.91670000  0.5 -0.10077941
C  C310  1  0.40820000  0.16670000  0.09180000  0.5 0.0199003512
C  C311  1  0.40820000  0.58330000  0.15820000  0.5 -0.1184162786
C  C312  1  0.84180000  0.58330000  0.59180000  0.5 -0.1184162786
C  C313  1  0.84180000  0.16670000  0.65820000  0.5 -0.0105160473
C  C314  1  0.16670000  0.40820000  0.09180000  0.5 -0.1184162786
C  C315  1  0.08330000  0.34180000  0.59180000  0.5 -0.1084848644
C  C316  1  0.16670000  0.34180000  0.15820000  0.5 -0.1084848644
C  C317  1  0.08330000  0.40820000  0.65820000  0.5 -0.1084848644
C  C318  1  0.40820000  0.40820000  0.33333333  0.5 -0.10077941
C  C319  1  0.34180000  0.90820000  0.41670000  0.5 -0.0197836554
C  C320  1  0.34180000  0.34180000  0.33333333  0.5 -0.1084848644
C  C321  1  0.40820000  0.84180000  0.41670000  0.5 -0.0197836554
C  C322  1  0.58330000  0.84180000  0.09180000  0.5 -0.0197836554
C  C323  1  0.34180000  0.08330000  0.09180000  0.5 0.0199003512
C  C324  1  0.34180000  0.84180000  0.33333333  0.5 -0.0197836554
C  C325  1  0.16670000  0.84180000  0.15820000  0.5 -0.0197836554
C  C326  1  0.40820000  0.08330000  0.15820000  0.5 0.0199003512
C  C327  1  0.84180000  0.40820000  0.91670000  0.5 -0.0026664781
C  C328  1  0.08330000  0.84180000  0.59180000  0.5 -0.0105160473
C  C329  1  0.84180000  0.08330000  0.59180000  0.5 -0.0197836554
C  C330  1  0.84180000  0.90820000  0.41670000  0.5 -0.0197836554
C  C331  1  0.84180000  0.84180000  0.83330000  0.5 -0.0105160473
C  C332  1  0.88400000  0.70410000  0.11600000  0.5 -0.0105160473
C  C333  1  0.88400000  0.04590000  0.13400000  0.5 -0.0105160473
C  C334  1  0.36600000  0.04590000  0.61600000  0.5 -0.0105160473
C  C335  1  0.36600000  0.70410000  0.63400000  0.5 -0.0197836554
C  C336  1  0.70410000  0.88400000  0.11600000  0.5 0.050950492
C  C337  1  0.54590000  0.86600000  0.61600000  0.5 -0.0105160473
C  C338  1  0.70410000  0.86600000  0.13400000  0.5 0.050950492
C  C339  1  0.54590000  0.88400000  0.63400000  0.5 -0.0026664781
C  C340  1  0.88400000  0.88400000  0.29590000  0.5 0.050950492
C  C341  1  0.86600000  0.38400000  0.45410000  0.5 -0.0279742966
C  C342  1  0.86600000  0.86600000  0.29590000  0.5 0.050950492
C  C343  1  0.88400000  0.36600000  0.45410000  0.5 -0.0197836554
C  C344  1  0.88400000  0.20410000  0.61600000  0.5 0.050950492
C  C345  1  0.88400000  0.54590000  0.63400000  0.5 -0.0105160473
C  C346  1  0.36600000  0.54590000  0.11600000  0.5 -0.0105160473
C  C347  1  0.36600000  0.20410000  0.13400000  0.5 0.0384026596
C  C348  1  0.70410000  0.38400000  0.61600000  0.5 -0.0413047187
C  C349  1  0.54590000  0.36600000  0.11600000  0.5 -0.0105160473
C  C350  1  0.70410000  0.36600000  0.63400000  0.5 -0.0197836554
C  C351  1  0.54590000  0.38400000  0.13400000  0.5 -0.0197836554
C  C352  1  0.88400000  0.38400000  0.79590000  0.5 0.0567155404
C  C353  1  0.86600000  0.88400000  0.95410000  0.5 0.050950492
C  C354  1  0.86600000  0.36600000  0.79590000  0.5 0.050950492
C  C355  1  0.88400000  0.86600000  0.95410000  0.5 0.050950492
C  C356  1  0.38400000  0.70410000  0.61600000  0.5 -0.0279742966
C  C357  1  0.38400000  0.04590000  0.63400000  0.5 -0.0026664781
C  C358  1  0.86600000  0.04590000  0.11600000  0.5 -0.0197836554
C  C359  1  0.86600000  0.70410000  0.13400000  0.5 -0.0197836554
C  C360  1  0.20410000  0.88400000  0.61600000  0.5 0.050950492
C  C361  1  0.04590000  0.86600000  0.11600000  0.5 0.050950492
C  C362  1  0.20410000  0.86600000  0.63400000  0.5 0.050950492
C  C363  1  0.04590000  0.88400000  0.13400000  0.5 0.050950492
C  C364  1  0.38400000  0.88400000  0.79590000  0.5 -0.0026664781
C  C365  1  0.36600000  0.38400000  0.95410000  0.5 -0.0197836554
C  C366  1  0.36600000  0.86600000  0.79590000  0.5 -0.0105160473
C  C367  1  0.38400000  0.36600000  0.95410000  0.5 -0.0197836554
C  C368  1  0.38400000  0.20410000  0.11600000  0.5 0.0384026596
C  C369  1  0.38400000  0.54590000  0.13400000  0.5 -0.0105160473
C  C370  1  0.86600000  0.54590000  0.61600000  0.5 -0.0279742966
C  C371  1  0.86600000  0.20410000  0.63400000  0.5 0.050950492
C  C372  1  0.20410000  0.38400000  0.11600000  0.5 -0.0197836554
C  C373  1  0.04590000  0.36600000  0.61600000  0.5 -0.0105160473
C  C374  1  0.20410000  0.36600000  0.13400000  0.5 -0.0197836554
C  C375  1  0.04590000  0.38400000  0.63400000  0.5 -0.0105160473
C  C376  1  0.38400000  0.38400000  0.29590000  0.5 -0.0197836554
C  C377  1  0.36600000  0.88400000  0.45410000  0.5 0.050950492
C  C378  1  0.36600000  0.36600000  0.29590000  0.5 -0.0197836554
C  C379  1  0.38400000  0.86600000  0.45410000  0.5 0.050950492
C  C380  1  0.54590000  0.86600000  0.11600000  0.5 0.0309044993
C  C381  1  0.36600000  0.04590000  0.11600000  0.5 0.0309044993
C  C382  1  0.36600000  0.86600000  0.29590000  0.5 0.0309044993
C  C383  1  0.20410000  0.86600000  0.13400000  0.5 0.0309044993
C  C384  1  0.38400000  0.04590000  0.13400000  0.5 0.0309044993
C  C385  1  0.86600000  0.38400000  0.95410000  0.5 0.0384026596
C  C386  1  0.04590000  0.86600000  0.61600000  0.5 0.0309044993
C  C387  1  0.86600000  0.04590000  0.61600000  0.5 0.0309044993
C  C388  1  0.86600000  0.88400000  0.45410000  0.5 0.0309044993
C  C389  1  0.86600000  0.86600000  0.79590000  0.5 0.0384026596
C  C600  1  0.42890000  0.65180000  0.34820000  0.5 -0.0703071531
C  C601  1  0.82110000  0.65180000  0.40180000  0.5 -0.0703071531
C  C602  1  0.82110000  0.09820000  0.84820000  0.5 -0.0026664781
C  C603  1  0.42890000  0.09820000  0.90180000  0.5 0.0024703796
C  C604  1  0.09820000  0.32110000  0.34820000  0.5 -0.0197836554
C  C605  1  0.09820000  0.42890000  0.90180000  0.5 -0.0703071531
C  C606  1  0.15180000  0.42890000  0.84820000  0.5 -0.0703071531
C  C607  1  0.15180000  0.32110000  0.40180000  0.5 -0.0197836554
C  C608  1  0.09820000  0.09820000  0.57110000  0.5 -0.0197836554
C  C609  1  0.09820000  0.15180000  0.17890000  0.5 -0.0197836554
C  C610  1  0.65180000  0.59820000  0.17890000  0.5 -0.0703071531
C  C611  1  0.15180000  0.65180000  0.07110000  0.5 0.0092909264
C  C612  1  0.42890000  0.15180000  0.84820000  0.5 -0.0105160473
C  C613  1  0.82110000  0.15180000  0.90180000  0.5 -0.0105160473
C  C614  1  0.82110000  0.59820000  0.34820000  0.5 -0.0703071531
C  C615  1  0.42890000  0.59820000  0.40180000  0.5 -0.0703071531
C  C616  1  0.09820000  0.82110000  0.84820000  0.5 -0.0026664781
C  C617  1  0.09820000  0.92890000  0.40180000  0.5 -0.0197836554
C  C618  1  0.15180000  0.92890000  0.34820000  0.5 -0.0197836554
C  C619  1  0.15180000  0.82110000  0.90180000  0.5 -0.0026664781
C  C620  1  0.09820000  0.59820000  0.07110000  0.5 0.0024703796
C  C621  1  0.09820000  0.65180000  0.67890000  0.5 0.0024703796
C  C622  1  0.65180000  0.09820000  0.67890000  0.5 -0.0105160473
C  C623  1  0.15180000  0.15180000  0.57110000  0.5 -0.0197836554
C  C624  1  0.92890000  0.65180000  0.84820000  0.5 -0.0703071531
C  C625  1  0.32110000  0.65180000  0.90180000  0.5 -0.0026664781
C  C626  1  0.32110000  0.09820000  0.34820000  0.5 -0.0105160473
C  C627  1  0.92890000  0.09820000  0.40180000  0.5 -0.0105160473
C  C628  1  0.59820000  0.32110000  0.84820000  0.5 -0.0105160473
C  C629  1  0.59820000  0.42890000  0.40180000  0.5 -0.0279742966
C  C630  1  0.65180000  0.42890000  0.34820000  0.5 -0.0197836554
C  C631  1  0.65180000  0.32110000  0.90180000  0.5 -0.0105160473
C  C632  1  0.59820000  0.09820000  0.07110000  0.5 -0.0703071531
C  C633  1  0.59820000  0.15180000  0.67890000  0.5 -0.0105160473
C  C634  1  0.15180000  0.59820000  0.67890000  0.5 -0.0105160473
C  C635  1  0.65180000  0.65180000  0.57110000  0.5 -0.0703071531
C  C636  1  0.92890000  0.15180000  0.34820000  0.5 -0.0197836554
C  C637  1  0.32110000  0.15180000  0.40180000  0.5 -0.0197836554
C  C638  1  0.32110000  0.59820000  0.84820000  0.5 -0.0105160473
C  C639  1  0.92890000  0.59820000  0.90180000  0.5 -0.0703071531
C  C640  1  0.59820000  0.82110000  0.34820000  0.5 -0.0026664781
C  C641  1  0.59820000  0.92890000  0.90180000  0.5 -0.0026664781
C  C642  1  0.65180000  0.92890000  0.84820000  0.5 0.0024703796
C  C643  1  0.65180000  0.82110000  0.40180000  0.5 0.0024703796
C  C644  1  0.59820000  0.59820000  0.57110000  0.5 -0.0778145376
C  C645  1  0.59820000  0.65180000  0.17890000  0.5 -0.0594830056
C  C646  1  0.15180000  0.09820000  0.17890000  0.5 -0.0105160473
C  C647  1  0.65180000  0.15180000  0.07110000  0.5 -0.0703071531
C  C648  1  0.15180000  0.32110000  0.90180000  0.5 -0.0413047187
C  C649  1  0.82110000  0.65180000  0.90180000  0.5 -0.0487414574
C  C650  1  0.65180000  0.65180000  0.07110000  0.5 -0.0487414574
C  C651  1  0.59820000  0.32110000  0.34820000  0.5 -0.0105160473
C  C652  1  0.92890000  0.65180000  0.34820000  0.5 -0.0413047187
C  C653  1  0.65180000  0.59820000  0.67890000  0.5 -0.0413047187
C  C654  1  0.65180000  0.32110000  0.40180000  0.5 -0.0105160473
C  C655  1  0.32110000  0.65180000  0.40180000  0.5 -0.0487414574
C  C656  1  0.65180000  0.09820000  0.17890000  0.5 -0.0413047187
C  C657  1  0.33333333  0.65820000  0.34180000  0.5 -0.0105160473
C  C658  1  0.91670000  0.65820000  0.40820000  0.5 -0.0105160473
C  C659  1  0.91670000  0.09180000  0.84180000  0.5 -0.1084848644
C  C660  1  0.33333333  0.09180000  0.90820000  0.5 -0.10077941
C  C661  1  0.09180000  0.41670000  0.34180000  0.5 -0.1084848644
C  C662  1  0.09180000  0.33333333  0.90820000  0.5 0.0024703796
C  C663  1  0.15820000  0.33333333  0.84180000  0.5 0.0024703796
C  C664  1  0.15820000  0.41670000  0.40820000  0.5 -0.10077941
C  C665  1  0.09180000  0.09180000  0.66666667  0.5 -0.1084848644
C  C666  1  0.09180000  0.15820000  0.08330000  0.5 -0.10077941
C  C667  1  0.65820000  0.59180000  0.08330000  0.5 -0.0105160473
C  C668  1  0.15820000  0.65820000  0.16670000  0.5 -0.1184162786
C  C669  1  0.33333333  0.15820000  0.84180000  0.5 -0.10077941
C  C670  1  0.91670000  0.15820000  0.90820000  0.5 -0.10077941
C  C671  1  0.91670000  0.59180000  0.34180000  0.5 -0.0105160473
C  C672  1  0.33333333  0.59180000  0.40820000  0.5 -0.0105160473
C  C673  1  0.09180000  0.91670000  0.84180000  0.5 -0.1184162786
C  C674  1  0.09180000  0.83330000  0.40820000  0.5 -0.0903360352
C  C675  1  0.15820000  0.83330000  0.34180000  0.5 -0.1084848644
C  C676  1  0.15820000  0.91670000  0.90820000  0.5 -0.10077941
C  C677  1  0.09180000  0.59180000  0.16670000  0.5 -0.10077941
C  C678  1  0.09180000  0.65820000  0.58330000  0.5 -0.1084848644
C  C679  1  0.65820000  0.09180000  0.58330000  0.5 -0.1084848644
C  C680  1  0.15820000  0.15820000  0.66666667  0.5 -0.1184162786
C  C681  1  0.83330000  0.65820000  0.84180000  0.5 -0.0197836554
C  C682  1  0.41670000  0.65820000  0.90820000  0.5 -0.1084848644
C  C683  1  0.41670000  0.09180000  0.34180000  0.5 -0.1084848644
C  C684  1  0.83330000  0.09180000  0.40820000  0.5 -0.1084848644
C  C685  1  0.59180000  0.41670000  0.84180000  0.5 -0.0903360352
C  C686  1  0.59180000  0.33333333  0.40820000  0.5 0.0092909264
C  C687  1  0.65820000  0.33333333  0.34180000  0.5 0.0199003512
C  C688  1  0.65820000  0.41670000  0.90820000  0.5 -0.1084848644
C  C689  1  0.59180000  0.09180000  0.16670000  0.5 -0.0105160473
C  C690  1  0.59180000  0.15820000  0.58330000  0.5 -0.10077941
C  C691  1  0.15820000  0.59180000  0.58330000  0.5 -0.10077941
C  C692  1  0.65820000  0.65820000  0.66666667  0.5 -0.0105160473
C  C693  1  0.83330000  0.15820000  0.34180000  0.5 -0.0903360352
C  C694  1  0.41670000  0.15820000  0.40820000  0.5 -0.10077941
C  C695  1  0.41670000  0.59180000  0.84180000  0.5 -0.10077941
C  C696  1  0.83330000  0.59180000  0.90820000  0.5 -0.0197836554
C  C697  1  0.59180000  0.91670000  0.34180000  0.5 -0.1084848644
C  C698  1  0.59180000  0.83330000  0.90820000  0.5 -0.10077941
C  C699  1  0.65820000  0.83330000  0.84180000  0.5 -0.10077941
C  C700  1  0.65820000  0.91670000  0.40820000  0.5 -0.1184162786
C  C701  1  0.59180000  0.59180000  0.66666667  0.5 -0.0197836554
C  C702  1  0.59180000  0.65820000  0.08330000  0.5 -0.0197836554
C  C703  1  0.15820000  0.09180000  0.08330000  0.5 -0.10077941
C  C704  1  0.65820000  0.15820000  0.16670000  0.5 -0.0105160473
C  C705  1  0.15820000  0.41670000  0.90820000  0.5 0.0024703796
C  C706  1  0.91670000  0.65820000  0.90820000  0.5 -0.0105160473
C  C707  1  0.65820000  0.65820000  0.16670000  0.5 -0.0197836554
C  C708  1  0.59180000  0.41670000  0.34180000  0.5 0.0199003512
C  C709  1  0.83330000  0.65820000  0.34180000  0.5 -0.0197836554
C  C710  1  0.65820000  0.59180000  0.58330000  0.5 -0.0197836554
C  C711  1  0.65820000  0.41670000  0.40820000  0.5 0.0092909264
C  C712  1  0.41670000  0.65820000  0.40820000  0.5 -0.0105160473
C  C713  1  0.65820000  0.09180000  0.08330000  0.5 -0.0105160473
C  C714  1  0.29590000  0.63400000  0.36600000  0.5 0.0567155404
C  C715  1  0.95410000  0.63400000  0.38400000  0.5 0.0567155404
C  C716  1  0.95410000  0.11600000  0.86600000  0.5 -0.0026664781
C  C717  1  0.29590000  0.11600000  0.88400000  0.5 -0.0197836554
C  C718  1  0.11600000  0.45410000  0.36600000  0.5 -0.0105160473
C  C719  1  0.11600000  0.29590000  0.88400000  0.5 0.0567155404
C  C720  1  0.13400000  0.29590000  0.86600000  0.5 0.050950492
C  C721  1  0.13400000  0.45410000  0.38400000  0.5 -0.0105160473
C  C722  1  0.11600000  0.11600000  0.70410000  0.5 -0.0105160473
C  C723  1  0.11600000  0.13400000  0.04590000  0.5 -0.0197836554
C  C724  1  0.63400000  0.61600000  0.04590000  0.5 0.050950492
C  C725  1  0.13400000  0.63400000  0.20410000  0.5 -0.0197836554
C  C726  1  0.29590000  0.13400000  0.86600000  0.5 -0.0197836554
C  C727  1  0.95410000  0.13400000  0.88400000  0.5 -0.0026664781
C  C728  1  0.95410000  0.61600000  0.36600000  0.5 0.0567155404
C  C729  1  0.29590000  0.61600000  0.38400000  0.5 0.0567155404
C  C730  1  0.11600000  0.95410000  0.86600000  0.5 -0.0105160473
C  C731  1  0.11600000  0.79590000  0.38400000  0.5 -0.0197836554
C  C732  1  0.13400000  0.79590000  0.36600000  0.5 -0.0279742966
C  C733  1  0.13400000  0.95410000  0.88400000  0.5 -0.0105160473
C  C734  1  0.11600000  0.61600000  0.20410000  0.5 -0.0105160473
C  C735  1  0.11600000  0.63400000  0.54590000  0.5 -0.0197836554
C  C736  1  0.63400000  0.11600000  0.54590000  0.5 -0.0197836554
C  C737  1  0.13400000  0.13400000  0.70410000  0.5 -0.0105160473
C  C738  1  0.79590000  0.63400000  0.86600000  0.5 0.0384026596
C  C739  1  0.45410000  0.63400000  0.88400000  0.5 -0.0105160473
C  C740  1  0.45410000  0.11600000  0.36600000  0.5 -0.0197836554
C  C741  1  0.79590000  0.11600000  0.38400000  0.5 -0.0279742966
C  C742  1  0.61600000  0.45410000  0.86600000  0.5 -0.0105160473
C  C743  1  0.61600000  0.29590000  0.38400000  0.5 0.0384026596
C  C744  1  0.63400000  0.29590000  0.36600000  0.5 0.0384026596
C  C745  1  0.63400000  0.45410000  0.88400000  0.5 -0.0197836554
C  C746  1  0.61600000  0.11600000  0.20410000  0.5 0.050950492
C  C747  1  0.61600000  0.13400000  0.54590000  0.5 -0.0197836554
C  C748  1  0.13400000  0.61600000  0.54590000  0.5 -0.0197836554
C  C749  1  0.63400000  0.63400000  0.70410000  0.5 0.050950492
C  C750  1  0.79590000  0.13400000  0.36600000  0.5 -0.0105160473
C  C751  1  0.45410000  0.13400000  0.38400000  0.5 -0.0105160473
C  C752  1  0.45410000  0.61600000  0.86600000  0.5 -0.0105160473
C  C753  1  0.79590000  0.61600000  0.88400000  0.5 0.0384026596
C  C754  1  0.61600000  0.95410000  0.36600000  0.5 -0.0197836554
C  C755  1  0.61600000  0.79590000  0.88400000  0.5 -0.0197836554
C  C756  1  0.63400000  0.79590000  0.86600000  0.5 -0.0197836554
C  C757  1  0.63400000  0.95410000  0.38400000  0.5 -0.0197836554
C  C758  1  0.61600000  0.61600000  0.70410000  0.5 0.050950492
C  C759  1  0.61600000  0.63400000  0.04590000  0.5 0.050950492
C  C760  1  0.13400000  0.11600000  0.04590000  0.5 -0.0197836554
C  C761  1  0.63400000  0.13400000  0.20410000  0.5 0.050950492
C  C762  1  0.13400000  0.45410000  0.88400000  0.5 0.0384026596
C  C763  1  0.95410000  0.63400000  0.88400000  0.5 0.0384026596
C  C764  1  0.63400000  0.63400000  0.20410000  0.5 0.0309044993
C  C765  1  0.61600000  0.45410000  0.36600000  0.5 0.0309044993
C  C766  1  0.79590000  0.63400000  0.36600000  0.5 0.0309044993
C  C767  1  0.63400000  0.61600000  0.54590000  0.5 0.0309044993
C  C768  1  0.63400000  0.45410000  0.38400000  0.5 0.0309044993
C  C769  1  0.45410000  0.63400000  0.38400000  0.5 0.0309044993
C  C770  1  0.63400000  0.11600000  0.04590000  0.5 0.0384026596
O  O1  1  0.87500000  0.37500000  0.12500000  1.0 -0.92841302
O  O2  1  0.37500000  0.37500000  0.62500000  1.0 -1.0747797653
O  O3  1  0.37500000  0.87500000  0.12500000  1.0 -0.741384165
O  O4  1  0.87500000  0.87500000  0.62500000  1.0 -0.7972312733
O  O5  1  0.87500000  0.87500000  0.12500000  1.0 -0.7768849894
O  O6  1  0.37500000  0.37500000  0.12500000  1.0 -0.8404427334
O  O7  1  0.37500000  0.87500000  0.62500000  1.0 -0.9189743861
O  O8  1  0.87500000  0.37500000  0.62500000  1.0 -0.8296377028
O  O9  1  0.90020000  0.47420000  0.09980000  1.0 -0.4599041588
O  O10  1  0.90020000  0.27580000  0.15020000  1.0 -0.490963941
O  O11  1  0.34980000  0.27580000  0.59980000  1.0 -0.4979536101
O  O12  1  0.34980000  0.47420000  0.65020000  1.0 -0.4979536101
O  O13  1  0.47420000  0.90020000  0.09980000  1.0 -0.2191740587
O  O14  1  0.77580000  0.84980000  0.59980000  1.0 -0.4399842783
O  O15  1  0.47420000  0.84980000  0.15020000  1.0 -0.2285522157
O  O16  1  0.77580000  0.90020000  0.65020000  1.0 -0.4599041588
O  O17  1  0.90020000  0.90020000  0.52580000  1.0 -0.2386064917
O  O18  1  0.84980000  0.40020000  0.22420000  1.0 -0.4691484436
O  O19  1  0.84980000  0.84980000  0.52580000  1.0 -0.2285522157
O  O20  1  0.90020000  0.34980000  0.22420000  1.0 -0.490963941
O  O21  1  0.90020000  0.97420000  0.59980000  1.0 -0.2191740587
O  O22  1  0.90020000  0.77580000  0.65020000  1.0 -0.447345452
O  O23  1  0.34980000  0.77580000  0.09980000  1.0 -0.4399842783
O  O24  1  0.34980000  0.97420000  0.15020000  1.0 -0.2001131251
O  O25  1  0.47420000  0.40020000  0.59980000  1.0 -0.4979536101
O  O26  1  0.77580000  0.34980000  0.09980000  1.0 -0.4599041588
O  O27  1  0.47420000  0.34980000  0.65020000  1.0 -0.4979536101
O  O28  1  0.77580000  0.40020000  0.15020000  1.0 -0.4599041588
O  O29  1  0.90020000  0.40020000  0.02580000  1.0 -0.2539201602
O  O30  1  0.84980000  0.90020000  0.72420000  1.0 -0.2285522157
O  O31  1  0.84980000  0.34980000  0.02580000  1.0 -0.2539201602
O  O32  1  0.90020000  0.84980000  0.72420000  1.0 -0.2285522157
O  O33  1  0.40020000  0.47420000  0.59980000  1.0 -0.4979536101
O  O34  1  0.40020000  0.27580000  0.65020000  1.0 -0.4979536101
O  O35  1  0.84980000  0.27580000  0.09980000  1.0 -0.4691484436
O  O36  1  0.84980000  0.47420000  0.15020000  1.0 -0.4599041588
O  O37  1  0.97420000  0.90020000  0.59980000  1.0 -0.2285522157
O  O38  1  0.27580000  0.84980000  0.09980000  1.0 -0.2191740587
O  O39  1  0.97420000  0.84980000  0.65020000  1.0 -0.2191740587
O  O40  1  0.27580000  0.90020000  0.15020000  1.0 -0.2285522157
O  O41  1  0.40020000  0.90020000  0.02580000  1.0 -0.4289487714
O  O42  1  0.34980000  0.40020000  0.72420000  1.0 -0.4979536101
O  O43  1  0.34980000  0.84980000  0.02580000  1.0 -0.4289487714
O  O44  1  0.40020000  0.34980000  0.72420000  1.0 -0.4979536101
O  O45  1  0.40020000  0.97420000  0.09980000  1.0 -0.2001131251
O  O46  1  0.40020000  0.77580000  0.15020000  1.0 -0.4399842783
O  O47  1  0.84980000  0.77580000  0.59980000  1.0 -0.4399842783
O  O48  1  0.84980000  0.97420000  0.65020000  1.0 -0.2105892451
O  O49  1  0.97420000  0.40020000  0.09980000  1.0 -0.4599041588
O  O50  1  0.27580000  0.34980000  0.59980000  1.0 -0.4979536101
O  O51  1  0.97420000  0.34980000  0.15020000  1.0 -0.490963941
O  O52  1  0.27580000  0.40020000  0.65020000  1.0 -0.4979536101
O  O53  1  0.40020000  0.40020000  0.52580000  1.0 -0.4979536101
O  O54  1  0.34980000  0.90020000  0.22420000  1.0 -0.2191740587
O  O55  1  0.34980000  0.34980000  0.52580000  1.0 -0.4979536101
O  O56  1  0.40020000  0.84980000  0.22420000  1.0 -0.2105892451
O  O57  1  0.77580000  0.84980000  0.09980000  1.0 -0.1877429709
O  O58  1  0.34980000  0.27580000  0.09980000  1.0 -0.2105892451
O  O59  1  0.34980000  0.84980000  0.52580000  1.0 -0.1778588607
O  O60  1  0.97420000  0.84980000  0.15020000  1.0 -0.1877429709
O  O61  1  0.40020000  0.27580000  0.15020000  1.0 -0.2105892451
O  O62  1  0.84980000  0.40020000  0.72420000  1.0 -0.1565511464
O  O63  1  0.27580000  0.84980000  0.59980000  1.0 -0.1702869586
O  O64  1  0.84980000  0.27580000  0.59980000  1.0 -0.1565511464
O  O65  1  0.84980000  0.90020000  0.22420000  1.0 -0.1877429709
O  O66  1  0.84980000  0.84980000  0.02580000  1.0 -0.1778588607
O  O67  1  0.90060000  0.77650000  0.09940000  1.0 -0.4095897289
O  O68  1  0.90060000  0.97350000  0.15060000  1.0 -0.4009836733
O  O69  1  0.34940000  0.97350000  0.59940000  1.0 -0.4289487714
O  O70  1  0.34940000  0.77650000  0.65060000  1.0 -0.421073471
O  O71  1  0.77650000  0.90060000  0.09940000  1.0 -0.2602128299
O  O72  1  0.47350000  0.84940000  0.59940000  1.0 -0.421073471
O  O73  1  0.77650000  0.84940000  0.15060000  1.0 -0.2602128299
O  O74  1  0.47350000  0.90060000  0.65060000  1.0 -0.421073471
O  O75  1  0.90060000  0.90060000  0.22350000  1.0 -0.2602128299
O  O76  1  0.84940000  0.40060000  0.52650000  1.0 -0.39045825
O  O77  1  0.84940000  0.84940000  0.22350000  1.0 -0.2681052193
O  O78  1  0.90060000  0.34940000  0.52650000  1.0 -0.4009836733
O  O79  1  0.90060000  0.27650000  0.59940000  1.0 -0.2539201602
O  O80  1  0.90060000  0.47350000  0.65060000  1.0 -0.4009836733
O  O81  1  0.34940000  0.47350000  0.09940000  1.0 -0.4009836733
O  O82  1  0.34940000  0.27650000  0.15060000  1.0 -0.2105892451
O  O83  1  0.77650000  0.40060000  0.59940000  1.0 -0.4009836733
O  O84  1  0.47350000  0.34940000  0.09940000  1.0 -0.4009836733
O  O85  1  0.77650000  0.34940000  0.65060000  1.0 -0.4095897289
O  O86  1  0.47350000  0.40060000  0.15060000  1.0 -0.4009836733
O  O87  1  0.90060000  0.40060000  0.72350000  1.0 -0.2602128299
O  O88  1  0.84940000  0.90060000  0.02650000  1.0 -0.2602128299
O  O89  1  0.84940000  0.34940000  0.72350000  1.0 -0.2602128299
O  O90  1  0.90060000  0.84940000  0.02650000  1.0 -0.2602128299
O  O91  1  0.40060000  0.77650000  0.59940000  1.0 -0.421073471
O  O92  1  0.40060000  0.97350000  0.65060000  1.0 -0.4289487714
O  O93  1  0.84940000  0.97350000  0.09940000  1.0 -0.4009836733
O  O94  1  0.84940000  0.77650000  0.15060000  1.0 -0.4095897289
O  O95  1  0.27650000  0.90060000  0.59940000  1.0 -0.2602128299
O  O96  1  0.97350000  0.84940000  0.09940000  1.0 -0.2602128299
O  O97  1  0.27650000  0.84940000  0.65060000  1.0 -0.2602128299
O  O98  1  0.97350000  0.90060000  0.15060000  1.0 -0.2602128299
O  O99  1  0.40060000  0.90060000  0.72350000  1.0 -0.421073471
O  O100  1  0.34940000  0.40060000  0.02650000  1.0 -0.4009836733
O  O101  1  0.34940000  0.84940000  0.72350000  1.0 -0.421073471
O  O102  1  0.40060000  0.34940000  0.02650000  1.0 -0.4009836733
O  O103  1  0.40060000  0.27650000  0.09940000  1.0 -0.2105892451
O  O104  1  0.40060000  0.47350000  0.15060000  1.0 -0.39045825
O  O105  1  0.84940000  0.47350000  0.59940000  1.0 -0.39045825
O  O106  1  0.84940000  0.27650000  0.65060000  1.0 -0.2602128299
O  O107  1  0.27650000  0.40060000  0.09940000  1.0 -0.4009836733
O  O108  1  0.97350000  0.34940000  0.59940000  1.0 -0.4095897289
O  O109  1  0.27650000  0.34940000  0.15060000  1.0 -0.4009836733
O  O110  1  0.97350000  0.40060000  0.65060000  1.0 -0.4095897289
O  O111  1  0.40060000  0.40060000  0.22350000  1.0 -0.4009836733
O  O112  1  0.34940000  0.90060000  0.52650000  1.0 -0.2681052193
O  O113  1  0.34940000  0.34940000  0.22350000  1.0 -0.4009836733
O  O114  1  0.40060000  0.84940000  0.52650000  1.0 -0.2602128299
O  O115  1  0.47350000  0.84940000  0.09940000  1.0 -0.1401431501
O  O116  1  0.34940000  0.97350000  0.09940000  1.0 -0.2191740587
O  O117  1  0.34940000  0.84940000  0.22350000  1.0 -0.1303365344
O  O118  1  0.27650000  0.84940000  0.15060000  1.0 -0.1401431501
O  O119  1  0.40060000  0.97350000  0.15060000  1.0 -0.2285522157
O  O120  1  0.84940000  0.40060000  0.02650000  1.0 -0.1702869586
O  O121  1  0.97350000  0.84940000  0.59940000  1.0 -0.1303365344
O  O122  1  0.84940000  0.97350000  0.59940000  1.0 -0.1303365344
O  O123  1  0.84940000  0.90060000  0.52650000  1.0 -0.1565511464
O  O124  1  0.84940000  0.84940000  0.72350000  1.0 -0.1401431501
O  O125  1  0.62500000  0.62500000  0.37500000  1.0 -0.7496687337
O  O126  1  0.62500000  0.12500000  0.87500000  1.0 -0.92841302
O  O127  1  0.12500000  0.12500000  0.37500000  1.0 -1.0747797653
O  O128  1  0.12500000  0.62500000  0.87500000  1.0 -0.8404427334
O  O129  1  0.12500000  0.12500000  0.87500000  1.0 -0.9189743861
O  O130  1  0.62500000  0.62500000  0.87500000  1.0 -0.8296377028
O  O131  1  0.62500000  0.12500000  0.37500000  1.0 -0.7641725108
O  O132  1  0.12500000  0.62500000  0.37500000  1.0 -0.8296377028
O  O133  1  0.52580000  0.65020000  0.34980000  1.0 -0.2191740587
O  O134  1  0.72420000  0.65020000  0.40020000  1.0 -0.2191740587
O  O135  1  0.72420000  0.09980000  0.84980000  1.0 -0.4599041588
O  O136  1  0.52580000  0.09980000  0.90020000  1.0 -0.4691484436
O  O137  1  0.09980000  0.22420000  0.34980000  1.0 -0.4979536101
O  O138  1  0.09980000  0.52580000  0.90020000  1.0 -0.2386064917
O  O139  1  0.15020000  0.52580000  0.84980000  1.0 -0.2285522157
O  O140  1  0.15020000  0.22420000  0.40020000  1.0 -0.490963941
O  O141  1  0.09980000  0.09980000  0.47420000  1.0 -0.490963941
O  O142  1  0.09980000  0.15020000  0.27580000  1.0 -0.4979536101
O  O143  1  0.65020000  0.59980000  0.27580000  1.0 -0.2285522157
O  O144  1  0.15020000  0.65020000  0.97420000  1.0 -0.447345452
O  O145  1  0.52580000  0.15020000  0.84980000  1.0 -0.490963941
O  O146  1  0.72420000  0.15020000  0.90020000  1.0 -0.4599041588
O  O147  1  0.72420000  0.59980000  0.34980000  1.0 -0.2191740587
O  O148  1  0.52580000  0.59980000  0.40020000  1.0 -0.2285522157
O  O149  1  0.09980000  0.72420000  0.84980000  1.0 -0.447345452
O  O150  1  0.09980000  0.02580000  0.40020000  1.0 -0.4979536101
O  O151  1  0.15020000  0.02580000  0.34980000  1.0 -0.4979536101
O  O152  1  0.15020000  0.72420000  0.90020000  1.0 -0.4399842783
O  O153  1  0.09980000  0.59980000  0.97420000  1.0 -0.4599041588
O  O154  1  0.09980000  0.65020000  0.77580000  1.0 -0.447345452
O  O155  1  0.65020000  0.09980000  0.77580000  1.0 -0.4691484436
O  O156  1  0.15020000  0.15020000  0.47420000  1.0 -0.490963941
O  O157  1  0.02580000  0.65020000  0.84980000  1.0 -0.2386064917
O  O158  1  0.22420000  0.65020000  0.90020000  1.0 -0.4399842783
O  O159  1  0.22420000  0.09980000  0.34980000  1.0 -0.4979536101
O  O160  1  0.02580000  0.09980000  0.40020000  1.0 -0.4979536101
O  O161  1  0.59980000  0.22420000  0.84980000  1.0 -0.490963941
O  O162  1  0.59980000  0.52580000  0.40020000  1.0 -0.2001131251
O  O163  1  0.65020000  0.52580000  0.34980000  1.0 -0.2001131251
O  O164  1  0.65020000  0.22420000  0.90020000  1.0 -0.4691484436
O  O165  1  0.59980000  0.09980000  0.97420000  1.0 -0.2602128299
O  O166  1  0.59980000  0.15020000  0.77580000  1.0 -0.4979536101
O  O167  1  0.15020000  0.59980000  0.77580000  1.0 -0.447345452
O  O168  1  0.65020000  0.65020000  0.47420000  1.0 -0.2191740587
O  O169  1  0.02580000  0.15020000  0.34980000  1.0 -0.4979536101
O  O170  1  0.22420000  0.15020000  0.40020000  1.0 -0.4979536101
O  O171  1  0.22420000  0.59980000  0.84980000  1.0 -0.447345452
O  O172  1  0.02580000  0.59980000  0.90020000  1.0 -0.2386064917
O  O173  1  0.59980000  0.72420000  0.34980000  1.0 -0.4399842783
O  O174  1  0.59980000  0.02580000  0.90020000  1.0 -0.4599041588
O  O175  1  0.65020000  0.02580000  0.84980000  1.0 -0.4599041588
O  O176  1  0.65020000  0.72420000  0.40020000  1.0 -0.4399842783
O  O177  1  0.59980000  0.59980000  0.47420000  1.0 -0.2285522157
O  O178  1  0.59980000  0.65020000  0.27580000  1.0 -0.2191740587
O  O179  1  0.15020000  0.09980000  0.27580000  1.0 -0.4979536101
O  O180  1  0.65020000  0.15020000  0.97420000  1.0 -0.2602128299
O  O181  1  0.15020000  0.22420000  0.90020000  1.0 -0.1513255948
O  O182  1  0.72420000  0.65020000  0.90020000  1.0 -0.1778588607
O  O183  1  0.65020000  0.65020000  0.97420000  1.0 -0.1877429709
O  O184  1  0.59980000  0.22420000  0.34980000  1.0 -0.2105892451
O  O185  1  0.02580000  0.65020000  0.34980000  1.0 -0.1702869586
O  O186  1  0.65020000  0.59980000  0.77580000  1.0 -0.1877429709
O  O187  1  0.65020000  0.22420000  0.40020000  1.0 -0.2001131251
O  O188  1  0.22420000  0.65020000  0.40020000  1.0 -0.1702869586
O  O189  1  0.65020000  0.09980000  0.27580000  1.0 -0.1565511464
O  O190  1  0.22350000  0.65060000  0.34940000  1.0 -0.2681052193
O  O191  1  0.02650000  0.65060000  0.40060000  1.0 -0.2681052193
O  O192  1  0.02650000  0.09940000  0.84940000  1.0 -0.4289487714
O  O193  1  0.22350000  0.09940000  0.90060000  1.0 -0.4009836733
O  O194  1  0.09940000  0.52650000  0.34940000  1.0 -0.4095897289
O  O195  1  0.09940000  0.22350000  0.90060000  1.0 -0.2681052193
O  O196  1  0.15060000  0.22350000  0.84940000  1.0 -0.2681052193
O  O197  1  0.15060000  0.52650000  0.40060000  1.0 -0.4095897289
O  O198  1  0.09940000  0.09940000  0.77650000  1.0 -0.421073471
O  O199  1  0.09940000  0.15060000  0.97350000  1.0 -0.4095897289
O  O200  1  0.65060000  0.59940000  0.97350000  1.0 -0.2681052193
O  O201  1  0.15060000  0.65060000  0.27650000  1.0 -0.4009836733
O  O202  1  0.22350000  0.15060000  0.84940000  1.0 -0.4095897289
O  O203  1  0.02650000  0.15060000  0.90060000  1.0 -0.421073471
O  O204  1  0.02650000  0.59940000  0.34940000  1.0 -0.2681052193
O  O205  1  0.22350000  0.59940000  0.40060000  1.0 -0.2681052193
O  O206  1  0.09940000  0.02650000  0.84940000  1.0 -0.4289487714
O  O207  1  0.09940000  0.72350000  0.40060000  1.0 -0.4095897289
O  O208  1  0.15060000  0.72350000  0.34940000  1.0 -0.4095897289
O  O209  1  0.15060000  0.02650000  0.90060000  1.0 -0.4095897289
O  O210  1  0.09940000  0.59940000  0.27650000  1.0 -0.4095897289
O  O211  1  0.09940000  0.65060000  0.47350000  1.0 -0.4009836733
O  O212  1  0.65060000  0.09940000  0.47350000  1.0 -0.39045825
O  O213  1  0.15060000  0.15060000  0.77650000  1.0 -0.4095897289
O  O214  1  0.72350000  0.65060000  0.84940000  1.0 -0.2602128299
O  O215  1  0.52650000  0.65060000  0.90060000  1.0 -0.4095897289
O  O216  1  0.52650000  0.09940000  0.34940000  1.0 -0.4009836733
O  O217  1  0.72350000  0.09940000  0.40060000  1.0 -0.39045825
O  O218  1  0.59940000  0.52650000  0.84940000  1.0 -0.4095897289
O  O219  1  0.59940000  0.22350000  0.40060000  1.0 -0.2105892451
O  O220  1  0.65060000  0.22350000  0.34940000  1.0 -0.2105892451
O  O221  1  0.65060000  0.52650000  0.90060000  1.0 -0.4095897289
O  O222  1  0.59940000  0.09940000  0.27650000  1.0 -0.2539201602
O  O223  1  0.59940000  0.15060000  0.47350000  1.0 -0.39045825
O  O224  1  0.15060000  0.59940000  0.47350000  1.0 -0.4095897289
O  O225  1  0.65060000  0.65060000  0.77650000  1.0 -0.2681052193
O  O226  1  0.72350000  0.15060000  0.34940000  1.0 -0.4009836733
O  O227  1  0.52650000  0.15060000  0.40060000  1.0 -0.39045825
O  O228  1  0.52650000  0.59940000  0.84940000  1.0 -0.4095897289
O  O229  1  0.72350000  0.59940000  0.90060000  1.0 -0.2602128299
O  O230  1  0.59940000  0.02650000  0.34940000  1.0 -0.39045825
O  O231  1  0.59940000  0.72350000  0.90060000  1.0 -0.421073471
O  O232  1  0.65060000  0.72350000  0.84940000  1.0 -0.421073471
O  O233  1  0.65060000  0.02650000  0.40060000  1.0 -0.3824845418
O  O234  1  0.59940000  0.59940000  0.77650000  1.0 -0.2602128299
O  O235  1  0.59940000  0.65060000  0.97350000  1.0 -0.2602128299
O  O236  1  0.15060000  0.09940000  0.97350000  1.0 -0.4009836733
O  O237  1  0.65060000  0.15060000  0.27650000  1.0 -0.2539201602
O  O238  1  0.15060000  0.52650000  0.90060000  1.0 -0.1513255948
O  O239  1  0.02650000  0.65060000  0.90060000  1.0 -0.1513255948
O  O240  1  0.65060000  0.65060000  0.27650000  1.0 -0.1303365344
O  O241  1  0.59940000  0.52650000  0.34940000  1.0 -0.2285522157
O  O242  1  0.72350000  0.65060000  0.34940000  1.0 -0.1303365344
O  O243  1  0.65060000  0.59940000  0.47350000  1.0 -0.1401431501
O  O244  1  0.65060000  0.52650000  0.40060000  1.0 -0.2285522157
O  O245  1  0.52650000  0.65060000  0.40060000  1.0 -0.1303365344
O  O246  1  0.65060000  0.09940000  0.97350000  1.0 -0.1778588607
