# DDEC6 charges by PACMAN v1.1 (https://github.com/mtap-research/PACMAN-charge/)
data_aav4119_data_file_s6_ASR_pacman
_symmetry_space_group_name_H-M   'P 1'
_cell_length_a   30.34400000
_cell_length_b   30.34400000
_cell_length_c   34.46100000
_cell_angle_alpha   90.00000000
_cell_angle_beta   90.00000000
_cell_angle_gamma   90.00000000
_symmetry_Int_Tables_number   1
_chemical_formula_structural   Zn44.0H332.8C632N59.2O120
_chemical_formula_sum   'Zn44.0 H332.8 C632 N59.2 O120'
_cell_volume   31730.25301690
_cell_formula_units_Z   1
loop_
 _symmetry_equiv_pos_site_id
 _symmetry_equiv_pos_as_xyz
  1  'x, y, z'
loop_
 _atom_site_type_symbol
 _atom_site_label
 _atom_site_symmetry_multiplicity
 _atom_site_fract_x
 _atom_site_fract_y
 _atom_site_fract_z
 _atom_site_occupancy
 _atom_site_charge
Zn  Zn1  1  0.83296000  0.59894000  0.22639000  1.0 0.9842846274
Zn  Zn2  1  0.16704000  0.40106000  0.22639000  1.0 0.9842846274
Zn  Zn3  1  0.40106000  0.83296000  0.22639000  1.0 0.9842846274
Zn  Zn4  1  0.59894000  0.16704000  0.22639000  1.0 0.9842846274
Zn  Zn5  1  0.66704000  0.09894000  0.27361000  1.0 0.9842846274
Zn  Zn6  1  0.33296000  0.90106000  0.27361000  1.0 0.9842846274
Zn  Zn7  1  0.09894000  0.33296000  0.27361000  1.0 0.9842846274
Zn  Zn8  1  0.90106000  0.66704000  0.27361000  1.0 0.9842846274
Zn  Zn9  1  0.16704000  0.40106000  0.77361000  1.0 0.9842846274
Zn  Zn10  1  0.83296000  0.59894000  0.77361000  1.0 0.9842846274
Zn  Zn11  1  0.59894000  0.16704000  0.77361000  1.0 0.9842846274
Zn  Zn12  1  0.40106000  0.83296000  0.77361000  1.0 0.9842846274
Zn  Zn13  1  0.33296000  0.90106000  0.72639000  1.0 0.9842846274
Zn  Zn14  1  0.66704000  0.09894000  0.72639000  1.0 0.9842846274
Zn  Zn15  1  0.90106000  0.66704000  0.72639000  1.0 0.9842846274
Zn  Zn16  1  0.09894000  0.33296000  0.72639000  1.0 0.9842846274
Zn  Zn17  1  0.50000000  0.50000000  0.33455000  1.0 0.5959103063
Zn  Zn18  1  0.00000000  0.00000000  0.16545000  1.0 0.5959103063
Zn  Zn19  1  0.50000000  0.50000000  0.66545000  1.0 0.5959103063
Zn  Zn20  1  0.00000000  0.00000000  0.83455000  1.0 0.5959103063
Zn  Zn21  1  0.79649000  0.33629000  0.00000000  1.0 0.6355092182
Zn  Zn22  1  0.20351000  0.66371000  0.00000000  1.0 0.6328845873
Zn  Zn23  1  0.66371000  0.79649000  0.00000000  1.0 0.6355092182
Zn  Zn24  1  0.33629000  0.20351000  0.00000000  1.0 0.6328845873
Zn  Zn25  1  0.70351000  0.83629000  0.50000000  1.0 0.6328845873
Zn  Zn26  1  0.29649000  0.16371000  0.50000000  1.0 0.6328845873
Zn  Zn27  1  0.83629000  0.29649000  0.50000000  1.0 0.6328845873
Zn  Zn28  1  0.16371000  0.70351000  0.50000000  1.0 0.6328845873
Zn  Zn29  1  0.74074000  0.55962000  0.16605000  0.45 0.5378712717
Zn  Zn30  1  0.25926000  0.44038000  0.16605000  0.45 0.5378712717
Zn  Zn31  1  0.44038000  0.74074000  0.16605000  0.45 0.5378712717
Zn  Zn32  1  0.55962000  0.25926000  0.16605000  0.45 0.5340897098
Zn  Zn33  1  0.75926000  0.05962000  0.33395000  0.45 0.5378712717
Zn  Zn34  1  0.24074000  0.94038000  0.33395000  0.45 0.5378712717
Zn  Zn35  1  0.05962000  0.24074000  0.33395000  0.45 0.5378712717
Zn  Zn36  1  0.94038000  0.75926000  0.33395000  0.45 0.5378712717
Zn  Zn37  1  0.25926000  0.44038000  0.83395000  0.45 0.5378712717
Zn  Zn38  1  0.74074000  0.55962000  0.83395000  0.45 0.5378712717
Zn  Zn39  1  0.55962000  0.25926000  0.83395000  0.45 0.5378712717
Zn  Zn40  1  0.44038000  0.74074000  0.83395000  0.45 0.5378712717
Zn  Zn41  1  0.24074000  0.94038000  0.66605000  0.45 0.5378712717
Zn  Zn42  1  0.75926000  0.05962000  0.66605000  0.45 0.5378712717
Zn  Zn43  1  0.94038000  0.75926000  0.66605000  0.45 0.5378712717
Zn  Zn44  1  0.05962000  0.24074000  0.66605000  0.45 0.5378712717
Zn  Zn45  1  0.73694000  0.58848000  0.17625000  0.55 0.5378712717
Zn  Zn46  1  0.26306000  0.41152000  0.17625000  0.55 0.5378712717
Zn  Zn47  1  0.41152000  0.73694000  0.17625000  0.55 0.5378712717
Zn  Zn48  1  0.58848000  0.26306000  0.17625000  0.55 0.5378712717
Zn  Zn49  1  0.76306000  0.08848000  0.32375000  0.55 0.5340897098
Zn  Zn50  1  0.23694000  0.91152000  0.32375000  0.55 0.5378712717
Zn  Zn51  1  0.08848000  0.23694000  0.32375000  0.55 0.5378712717
Zn  Zn52  1  0.91152000  0.76306000  0.32375000  0.55 0.5340897098
Zn  Zn53  1  0.26306000  0.41152000  0.82375000  0.55 0.5378712717
Zn  Zn54  1  0.73694000  0.58848000  0.82375000  0.55 0.5340897098
Zn  Zn55  1  0.58848000  0.26306000  0.82375000  0.55 0.5340897098
Zn  Zn56  1  0.41152000  0.73694000  0.82375000  0.55 0.5378712717
Zn  Zn57  1  0.23694000  0.91152000  0.67625000  0.55 0.5378712717
Zn  Zn58  1  0.76306000  0.08848000  0.67625000  0.55 0.5340897098
Zn  Zn59  1  0.91152000  0.76306000  0.67625000  0.55 0.5340897098
Zn  Zn60  1  0.08848000  0.23694000  0.67625000  0.55 0.5378712717
H  H1  1  0.55860000  0.65870000  0.32180000  1.0 0.1297062572
H  H2  1  0.62380000  0.61490000  0.32270000  1.0 0.1297062572
H  H3  1  0.66730000  0.51830000  0.38320000  1.0 0.1297062572
H  H4  1  0.74250000  0.53200000  0.38590000  1.0 0.120038092
H  H5  1  0.77990000  0.55430000  0.33060000  1.0 0.120038092
H  H6  1  0.66700000  0.54930000  0.26980000  1.0 0.1297062572
H  H7  1  0.91000000  0.50430000  0.17520000  1.0 0.1297062572
H  H8  1  0.95070000  0.45270000  0.14080000  1.0 0.120038092
H  H9  1  0.91690000  0.41040000  0.09320000  1.0 0.120038092
H  H10  1  0.80180000  0.47120000  0.11470000  1.0 0.1297062572
H  H11  1  0.86780000  0.48320000  0.03540000  1.0 0.1297062572
H  H12  1  0.82680000  0.36480000  0.14560000  1.0 0.1297062572
H  H13  1  0.78680000  0.29640000  0.14420000  1.0 0.1297062572
H  H14  1  0.72390000  0.18830000  0.03500000  1.0 0.120038092
H  H15  1  0.85330000  0.71980000  0.17490000  1.0 0.1297062572
H  H16  1  0.86140000  0.78460000  0.13980000  1.0 0.1099088044
H  H17  1  0.80950000  0.80380000  0.09340000  1.0 0.1099088044
H  H18  1  0.74140000  0.69350000  0.11700000  1.0 0.1297062572
H  H19  1  0.44140000  0.34130000  0.32180000  1.0 0.1297062572
H  H20  1  0.37620000  0.38510000  0.32270000  1.0 0.1297062572
H  H21  1  0.33270000  0.48170000  0.38320000  1.0 0.1297062572
H  H22  1  0.25750000  0.46800000  0.38590000  1.0 0.120038092
H  H23  1  0.22010000  0.44570000  0.33060000  1.0 0.120038092
H  H24  1  0.33300000  0.45070000  0.26980000  1.0 0.1297062572
H  H25  1  0.09000000  0.49570000  0.17520000  1.0 0.1297062572
H  H26  1  0.04930000  0.54730000  0.14080000  1.0 0.120038092
H  H27  1  0.08310000  0.58960000  0.09320000  1.0 0.120038092
H  H28  1  0.19820000  0.52880000  0.11470000  1.0 0.1297062572
H  H29  1  0.13220000  0.51680000  0.03540000  1.0 0.1297062572
H  H30  1  0.17320000  0.63520000  0.14560000  1.0 0.1297062572
H  H31  1  0.21320000  0.70360000  0.14420000  1.0 0.1297062572
H  H32  1  0.27610000  0.81170000  0.03500000  1.0 0.120038092
H  H33  1  0.14670000  0.28020000  0.17490000  1.0 0.1297062572
H  H34  1  0.13860000  0.21540000  0.13980000  1.0 0.1099088044
H  H35  1  0.19050000  0.19620000  0.09340000  1.0 0.1099088044
H  H36  1  0.25860000  0.30650000  0.11700000  1.0 0.1297062572
H  H37  1  0.34130000  0.55860000  0.32180000  1.0 0.1297062572
H  H38  1  0.38510000  0.62380000  0.32270000  1.0 0.1297062572
H  H39  1  0.48170000  0.66730000  0.38320000  1.0 0.1297062572
H  H40  1  0.46800000  0.74250000  0.38590000  1.0 0.120038092
H  H41  1  0.44570000  0.77990000  0.33060000  1.0 0.120038092
H  H42  1  0.45070000  0.66700000  0.26980000  1.0 0.1297062572
H  H43  1  0.49570000  0.91000000  0.17520000  1.0 0.1297062572
H  H44  1  0.54730000  0.95070000  0.14080000  1.0 0.120038092
H  H45  1  0.58960000  0.91690000  0.09320000  1.0 0.120038092
H  H46  1  0.52880000  0.80180000  0.11470000  1.0 0.1297062572
H  H47  1  0.51680000  0.86780000  0.03540000  1.0 0.1297062572
H  H48  1  0.63520000  0.82680000  0.14560000  1.0 0.1297062572
H  H49  1  0.70360000  0.78680000  0.14420000  1.0 0.1297062572
H  H50  1  0.81170000  0.72390000  0.03500000  1.0 0.120038092
H  H51  1  0.28020000  0.85330000  0.17490000  1.0 0.1297062572
H  H52  1  0.21540000  0.86140000  0.13980000  1.0 0.1099088044
H  H53  1  0.19620000  0.80950000  0.09340000  1.0 0.1099088044
H  H54  1  0.30650000  0.74140000  0.11700000  1.0 0.1297062572
H  H55  1  0.65870000  0.44140000  0.32180000  1.0 0.1297062572
H  H56  1  0.61490000  0.37620000  0.32270000  1.0 0.1297062572
H  H57  1  0.51830000  0.33270000  0.38320000  1.0 0.1297062572
H  H58  1  0.53200000  0.25750000  0.38590000  1.0 0.120038092
H  H59  1  0.55430000  0.22010000  0.33060000  1.0 0.120038092
H  H60  1  0.54930000  0.33300000  0.26980000  1.0 0.1297062572
H  H61  1  0.50430000  0.09000000  0.17520000  1.0 0.1297062572
H  H62  1  0.45270000  0.04930000  0.14080000  1.0 0.120038092
H  H63  1  0.41040000  0.08310000  0.09320000  1.0 0.120038092
H  H64  1  0.47120000  0.19820000  0.11470000  1.0 0.1297062572
H  H65  1  0.48320000  0.13220000  0.03540000  1.0 0.1297062572
H  H66  1  0.36480000  0.17320000  0.14560000  1.0 0.1297062572
H  H67  1  0.29640000  0.21320000  0.14420000  1.0 0.1297062572
H  H68  1  0.18830000  0.27610000  0.03500000  1.0 0.120038092
H  H69  1  0.71980000  0.14670000  0.17490000  1.0 0.1297062572
H  H70  1  0.78460000  0.13860000  0.13980000  1.0 0.1099088044
H  H71  1  0.80380000  0.19050000  0.09340000  1.0 0.1099088044
H  H72  1  0.69350000  0.25860000  0.11700000  1.0 0.1297062572
H  H73  1  0.94140000  0.15870000  0.17820000  1.0 0.1297062572
H  H74  1  0.87620000  0.11490000  0.17730000  1.0 0.1297062572
H  H75  1  0.83270000  0.01830000  0.11680000  1.0 0.1297062572
H  H76  1  0.75750000  0.03200000  0.11410000  1.0 0.120038092
H  H77  1  0.72010000  0.05430000  0.16940000  1.0 0.120038092
H  H78  1  0.83300000  0.04930000  0.23020000  1.0 0.1297062572
H  H79  1  0.59000000  0.00430000  0.32480000  1.0 0.1297062572
H  H80  1  0.54930000  0.95270000  0.35920000  1.0 0.120038092
H  H81  1  0.58310000  0.91040000  0.40680000  1.0 0.120038092
H  H82  1  0.69820000  0.97120000  0.38530000  1.0 0.1297062572
H  H83  1  0.63220000  0.98320000  0.46460000  1.0 0.1297062572
H  H84  1  0.67320000  0.86480000  0.35440000  1.0 0.1297062572
H  H85  1  0.71320000  0.79640000  0.35580000  1.0 0.1297062572
H  H86  1  0.77610000  0.68830000  0.46500000  1.0 0.1297062572
H  H87  1  0.64670000  0.21980000  0.32510000  1.0 0.1297062572
H  H88  1  0.63860000  0.28460000  0.36020000  1.0 0.1099088044
H  H89  1  0.69050000  0.30380000  0.40660000  1.0 0.1099088044
H  H90  1  0.75860000  0.19350000  0.38300000  1.0 0.1297062572
H  H91  1  0.05860000  0.84130000  0.17820000  1.0 0.1297062572
H  H92  1  0.12380000  0.88510000  0.17730000  1.0 0.1297062572
H  H93  1  0.16730000  0.98170000  0.11680000  1.0 0.1297062572
H  H94  1  0.24250000  0.96800000  0.11410000  1.0 0.120038092
H  H95  1  0.27990000  0.94570000  0.16940000  1.0 0.120038092
H  H96  1  0.16700000  0.95070000  0.23020000  1.0 0.1297062572
H  H97  1  0.41000000  0.99570000  0.32480000  1.0 0.1297062572
H  H98  1  0.45070000  0.04730000  0.35920000  1.0 0.120038092
H  H99  1  0.41690000  0.08960000  0.40680000  1.0 0.120038092
H  H100  1  0.30180000  0.02880000  0.38530000  1.0 0.1297062572
H  H101  1  0.36780000  0.01680000  0.46460000  1.0 0.1297062572
H  H102  1  0.32680000  0.13520000  0.35440000  1.0 0.1297062572
H  H103  1  0.28680000  0.20360000  0.35580000  1.0 0.1297062572
H  H104  1  0.22390000  0.31170000  0.46500000  1.0 0.1297062572
H  H105  1  0.35330000  0.78020000  0.32510000  1.0 0.1297062572
H  H106  1  0.36140000  0.71540000  0.36020000  1.0 0.1099088044
H  H107  1  0.30950000  0.69620000  0.40660000  1.0 0.1099088044
H  H108  1  0.24140000  0.80650000  0.38300000  1.0 0.1297062572
H  H109  1  0.15870000  0.05860000  0.17820000  1.0 0.1297062572
H  H110  1  0.11490000  0.12380000  0.17730000  1.0 0.1297062572
H  H111  1  0.01830000  0.16730000  0.11680000  1.0 0.1297062572
H  H112  1  0.03200000  0.24250000  0.11410000  1.0 0.120038092
H  H113  1  0.05430000  0.27990000  0.16940000  1.0 0.120038092
H  H114  1  0.04930000  0.16700000  0.23020000  1.0 0.1297062572
H  H115  1  0.00430000  0.41000000  0.32480000  1.0 0.1297062572
H  H116  1  0.95270000  0.45070000  0.35920000  1.0 0.120038092
H  H117  1  0.91040000  0.41690000  0.40680000  1.0 0.120038092
H  H118  1  0.97120000  0.30180000  0.38530000  1.0 0.1297062572
H  H119  1  0.98320000  0.36780000  0.46460000  1.0 0.1297062572
H  H120  1  0.86480000  0.32680000  0.35440000  1.0 0.1297062572
H  H121  1  0.79640000  0.28680000  0.35580000  1.0 0.1297062572
H  H122  1  0.68830000  0.22390000  0.46500000  1.0 0.120038092
H  H123  1  0.21980000  0.35330000  0.32510000  1.0 0.1297062572
H  H124  1  0.28460000  0.36140000  0.36020000  1.0 0.1099088044
H  H125  1  0.30380000  0.30950000  0.40660000  1.0 0.1099088044
H  H126  1  0.19350000  0.24140000  0.38300000  1.0 0.1297062572
H  H127  1  0.84130000  0.94140000  0.17820000  1.0 0.1297062572
H  H128  1  0.88510000  0.87620000  0.17730000  1.0 0.1297062572
H  H129  1  0.98170000  0.83270000  0.11680000  1.0 0.1297062572
H  H130  1  0.96800000  0.75750000  0.11410000  1.0 0.120038092
H  H131  1  0.94570000  0.72010000  0.16940000  1.0 0.120038092
H  H132  1  0.95070000  0.83300000  0.23020000  1.0 0.1297062572
H  H133  1  0.99570000  0.59000000  0.32480000  1.0 0.1350454047
H  H134  1  0.04730000  0.54930000  0.35920000  1.0 0.120038092
H  H135  1  0.08960000  0.58310000  0.40680000  1.0 0.120038092
H  H136  1  0.02880000  0.69820000  0.38530000  1.0 0.1297062572
H  H137  1  0.01680000  0.63220000  0.46460000  1.0 0.1297062572
H  H138  1  0.13520000  0.67320000  0.35440000  1.0 0.1297062572
H  H139  1  0.20360000  0.71320000  0.35580000  1.0 0.1297062572
H  H140  1  0.31170000  0.77610000  0.46500000  1.0 0.120038092
H  H141  1  0.78020000  0.64670000  0.32510000  1.0 0.1297062572
H  H142  1  0.71540000  0.63860000  0.36020000  1.0 0.1099088044
H  H143  1  0.69620000  0.69050000  0.40660000  1.0 0.1099088044
H  H144  1  0.80650000  0.75860000  0.38300000  1.0 0.1297062572
H  H145  1  0.44140000  0.34130000  0.67820000  1.0 0.1297062572
H  H146  1  0.37620000  0.38510000  0.67730000  1.0 0.1297062572
H  H147  1  0.33270000  0.48170000  0.61680000  1.0 0.1297062572
H  H148  1  0.25750000  0.46800000  0.61410000  1.0 0.120038092
H  H149  1  0.22010000  0.44570000  0.66940000  1.0 0.120038092
H  H150  1  0.33300000  0.45070000  0.73020000  1.0 0.1297062572
H  H151  1  0.09000000  0.49570000  0.82480000  1.0 0.1297062572
H  H152  1  0.04930000  0.54730000  0.85920000  1.0 0.120038092
H  H153  1  0.08310000  0.58960000  0.90680000  1.0 0.120038092
H  H154  1  0.19820000  0.52880000  0.88530000  1.0 0.1297062572
H  H155  1  0.13220000  0.51680000  0.96460000  1.0 0.1297062572
H  H156  1  0.17320000  0.63520000  0.85440000  1.0 0.1297062572
H  H157  1  0.21320000  0.70360000  0.85580000  1.0 0.1297062572
H  H158  1  0.27610000  0.81170000  0.96500000  1.0 0.120038092
H  H159  1  0.14670000  0.28020000  0.82510000  1.0 0.1297062572
H  H160  1  0.13860000  0.21540000  0.86020000  1.0 0.1099088044
H  H161  1  0.19050000  0.19620000  0.90660000  1.0 0.1099088044
H  H162  1  0.25860000  0.30650000  0.88300000  1.0 0.1297062572
H  H163  1  0.55860000  0.65870000  0.67820000  1.0 0.1297062572
H  H164  1  0.62380000  0.61490000  0.67730000  1.0 0.1297062572
H  H165  1  0.66730000  0.51830000  0.61680000  1.0 0.1297062572
H  H166  1  0.74250000  0.53200000  0.61410000  1.0 0.120038092
H  H167  1  0.77990000  0.55430000  0.66940000  1.0 0.1297062572
H  H168  1  0.66700000  0.54930000  0.73020000  1.0 0.1297062572
H  H169  1  0.91000000  0.50430000  0.82480000  1.0 0.1297062572
H  H170  1  0.95070000  0.45270000  0.85920000  1.0 0.120038092
H  H171  1  0.91690000  0.41040000  0.90680000  1.0 0.120038092
H  H172  1  0.80180000  0.47120000  0.88530000  1.0 0.1297062572
H  H173  1  0.86780000  0.48320000  0.96460000  1.0 0.1297062572
H  H174  1  0.82680000  0.36480000  0.85440000  1.0 0.1297062572
H  H175  1  0.78680000  0.29640000  0.85580000  1.0 0.1297062572
H  H176  1  0.72390000  0.18830000  0.96500000  1.0 0.1297062572
H  H177  1  0.85330000  0.71980000  0.82510000  1.0 0.1297062572
H  H178  1  0.86140000  0.78460000  0.86020000  1.0 0.1099088044
H  H179  1  0.80950000  0.80380000  0.90660000  1.0 0.1099088044
H  H180  1  0.74140000  0.69350000  0.88300000  1.0 0.1297062572
H  H181  1  0.65870000  0.44140000  0.67820000  1.0 0.1297062572
H  H182  1  0.61490000  0.37620000  0.67730000  1.0 0.1297062572
H  H183  1  0.51830000  0.33270000  0.61680000  1.0 0.1297062572
H  H184  1  0.53200000  0.25750000  0.61410000  1.0 0.120038092
H  H185  1  0.55430000  0.22010000  0.66940000  1.0 0.1297062572
H  H186  1  0.54930000  0.33300000  0.73020000  1.0 0.1297062572
H  H187  1  0.50430000  0.09000000  0.82480000  1.0 0.1297062572
H  H188  1  0.45270000  0.04930000  0.85920000  1.0 0.120038092
H  H189  1  0.41040000  0.08310000  0.90680000  1.0 0.120038092
H  H190  1  0.47120000  0.19820000  0.88530000  1.0 0.1297062572
H  H191  1  0.48320000  0.13220000  0.96460000  1.0 0.1297062572
H  H192  1  0.36480000  0.17320000  0.85440000  1.0 0.1297062572
H  H193  1  0.29640000  0.21320000  0.85580000  1.0 0.1297062572
H  H194  1  0.18830000  0.27610000  0.96500000  1.0 0.1297062572
H  H195  1  0.71980000  0.14670000  0.82510000  1.0 0.1297062572
H  H196  1  0.78460000  0.13860000  0.86020000  1.0 0.1099088044
H  H197  1  0.80380000  0.19050000  0.90660000  1.0 0.1099088044
H  H198  1  0.69350000  0.25860000  0.88300000  1.0 0.1297062572
H  H199  1  0.34130000  0.55860000  0.67820000  1.0 0.1297062572
H  H200  1  0.38510000  0.62380000  0.67730000  1.0 0.1297062572
H  H201  1  0.48170000  0.66730000  0.61680000  1.0 0.1297062572
H  H202  1  0.46800000  0.74250000  0.61410000  1.0 0.120038092
H  H203  1  0.44570000  0.77990000  0.66940000  1.0 0.120038092
H  H204  1  0.45070000  0.66700000  0.73020000  1.0 0.1297062572
H  H205  1  0.49570000  0.91000000  0.82480000  1.0 0.1297062572
H  H206  1  0.54730000  0.95070000  0.85920000  1.0 0.120038092
H  H207  1  0.58960000  0.91690000  0.90680000  1.0 0.120038092
H  H208  1  0.52880000  0.80180000  0.88530000  1.0 0.1297062572
H  H209  1  0.51680000  0.86780000  0.96460000  1.0 0.1297062572
H  H210  1  0.63520000  0.82680000  0.85440000  1.0 0.1297062572
H  H211  1  0.70360000  0.78680000  0.85580000  1.0 0.1297062572
H  H212  1  0.81170000  0.72390000  0.96500000  1.0 0.120038092
H  H213  1  0.28020000  0.85330000  0.82510000  1.0 0.1297062572
H  H214  1  0.21540000  0.86140000  0.86020000  1.0 0.1099088044
H  H215  1  0.19620000  0.80950000  0.90660000  1.0 0.1099088044
H  H216  1  0.30650000  0.74140000  0.88300000  1.0 0.1297062572
H  H217  1  0.05860000  0.84130000  0.82180000  1.0 0.1297062572
H  H218  1  0.12380000  0.88510000  0.82270000  1.0 0.1297062572
H  H219  1  0.16730000  0.98170000  0.88320000  1.0 0.1297062572
H  H220  1  0.24250000  0.96800000  0.88590000  1.0 0.120038092
H  H221  1  0.27990000  0.94570000  0.83060000  1.0 0.120038092
H  H222  1  0.16700000  0.95070000  0.76980000  1.0 0.1297062572
H  H223  1  0.41000000  0.99570000  0.67520000  1.0 0.1297062572
H  H224  1  0.45070000  0.04730000  0.64080000  1.0 0.120038092
H  H225  1  0.41690000  0.08960000  0.59320000  1.0 0.120038092
H  H226  1  0.30180000  0.02880000  0.61470000  1.0 0.1297062572
H  H227  1  0.36780000  0.01680000  0.53540000  1.0 0.1297062572
H  H228  1  0.32680000  0.13520000  0.64560000  1.0 0.1297062572
H  H229  1  0.28680000  0.20360000  0.64420000  1.0 0.1297062572
H  H230  1  0.22390000  0.31170000  0.53500000  1.0 0.120038092
H  H231  1  0.35330000  0.78020000  0.67490000  1.0 0.1297062572
H  H232  1  0.36140000  0.71540000  0.63980000  1.0 0.1099088044
H  H233  1  0.30950000  0.69620000  0.59340000  1.0 0.1099088044
H  H234  1  0.24140000  0.80650000  0.61700000  1.0 0.1297062572
H  H235  1  0.94140000  0.15870000  0.82180000  1.0 0.1297062572
H  H236  1  0.87620000  0.11490000  0.82270000  1.0 0.1297062572
H  H237  1  0.83270000  0.01830000  0.88320000  1.0 0.1297062572
H  H238  1  0.75750000  0.03200000  0.88590000  1.0 0.120038092
H  H239  1  0.72010000  0.05430000  0.83060000  1.0 0.1297062572
H  H240  1  0.83300000  0.04930000  0.76980000  1.0 0.1297062572
H  H241  1  0.59000000  0.00430000  0.67520000  1.0 0.1297062572
H  H242  1  0.54930000  0.95270000  0.64080000  1.0 0.120038092
H  H243  1  0.58310000  0.91040000  0.59320000  1.0 0.120038092
H  H244  1  0.69820000  0.97120000  0.61470000  1.0 0.1297062572
H  H245  1  0.63220000  0.98320000  0.53540000  1.0 0.1297062572
H  H246  1  0.67320000  0.86480000  0.64560000  1.0 0.1297062572
H  H247  1  0.71320000  0.79640000  0.64420000  1.0 0.1297062572
H  H248  1  0.77610000  0.68830000  0.53500000  1.0 0.120038092
H  H249  1  0.64670000  0.21980000  0.67490000  1.0 0.1297062572
H  H250  1  0.63860000  0.28460000  0.63980000  1.0 0.1099088044
H  H251  1  0.69050000  0.30380000  0.59340000  1.0 0.120038092
H  H252  1  0.75860000  0.19350000  0.61700000  1.0 0.1297062572
H  H253  1  0.84130000  0.94140000  0.82180000  1.0 0.1297062572
H  H254  1  0.88510000  0.87620000  0.82270000  1.0 0.1297062572
H  H255  1  0.98170000  0.83270000  0.88320000  1.0 0.1297062572
H  H256  1  0.96800000  0.75750000  0.88590000  1.0 0.120038092
H  H257  1  0.94570000  0.72010000  0.83060000  1.0 0.120038092
H  H258  1  0.95070000  0.83300000  0.76980000  1.0 0.1297062572
H  H259  1  0.99570000  0.59000000  0.67520000  1.0 0.1297062572
H  H260  1  0.04730000  0.54930000  0.64080000  1.0 0.120038092
H  H261  1  0.08960000  0.58310000  0.59320000  1.0 0.120038092
H  H262  1  0.02880000  0.69820000  0.61470000  1.0 0.1297062572
H  H263  1  0.01680000  0.63220000  0.53540000  1.0 0.1297062572
H  H264  1  0.13520000  0.67320000  0.64560000  1.0 0.1297062572
H  H265  1  0.20360000  0.71320000  0.64420000  1.0 0.1297062572
H  H266  1  0.31170000  0.77610000  0.53500000  1.0 0.120038092
H  H267  1  0.78020000  0.64670000  0.67490000  1.0 0.1297062572
H  H268  1  0.71540000  0.63860000  0.63980000  1.0 0.1099088044
H  H269  1  0.69620000  0.69050000  0.59340000  1.0 0.120038092
H  H270  1  0.80650000  0.75860000  0.61700000  1.0 0.1297062572
H  H271  1  0.15870000  0.05860000  0.82180000  1.0 0.1297062572
H  H272  1  0.11490000  0.12380000  0.82270000  1.0 0.1297062572
H  H273  1  0.01830000  0.16730000  0.88320000  1.0 0.1297062572
H  H274  1  0.03200000  0.24250000  0.88590000  1.0 0.120038092
H  H275  1  0.05430000  0.27990000  0.83060000  1.0 0.1297062572
H  H276  1  0.04930000  0.16700000  0.76980000  1.0 0.1297062572
H  H277  1  0.00430000  0.41000000  0.67520000  1.0 0.1297062572
H  H278  1  0.95270000  0.45070000  0.64080000  1.0 0.120038092
H  H279  1  0.91040000  0.41690000  0.59320000  1.0 0.120038092
H  H280  1  0.97120000  0.30180000  0.61470000  1.0 0.1297062572
H  H281  1  0.98320000  0.36780000  0.53540000  1.0 0.1297062572
H  H282  1  0.86480000  0.32680000  0.64560000  1.0 0.1297062572
H  H283  1  0.79640000  0.28680000  0.64420000  1.0 0.1297062572
H  H284  1  0.68830000  0.22390000  0.53500000  1.0 0.120038092
H  H285  1  0.21980000  0.35330000  0.67490000  1.0 0.1297062572
H  H286  1  0.28460000  0.36140000  0.63980000  1.0 0.1099088044
H  H287  1  0.30380000  0.30950000  0.59340000  1.0 0.1099088044
H  H288  1  0.19350000  0.24140000  0.61700000  1.0 0.1297062572
H  H289  1  0.67470000  0.53500000  0.09670000  0.45 0.1099088044
H  H290  1  0.67280000  0.53870000  0.02950000  0.45 0.120038092
H  H291  1  0.79680000  0.58510000  0.02870000  0.45 0.120038092
H  H292  1  0.79870000  0.58140000  0.09590000  0.45 0.1026940077
H  H293  1  0.32530000  0.46500000  0.09670000  0.45 0.1099088044
H  H294  1  0.32720000  0.46130000  0.02950000  0.45 0.120038092
H  H295  1  0.20320000  0.41490000  0.02870000  0.45 0.120038092
H  H296  1  0.20130000  0.41860000  0.09590000  0.45 0.1026940077
H  H297  1  0.46500000  0.67470000  0.09670000  0.45 0.1099088044
H  H298  1  0.46130000  0.67280000  0.02950000  0.45 0.120038092
H  H299  1  0.41490000  0.79680000  0.02870000  0.45 0.120038092
H  H300  1  0.41860000  0.79870000  0.09590000  0.45 0.1026940077
H  H301  1  0.53500000  0.32530000  0.09670000  0.45 0.1099088044
H  H302  1  0.53870000  0.32720000  0.02950000  0.45 0.1099088044
H  H303  1  0.58510000  0.20320000  0.02870000  0.45 0.120038092
H  H304  1  0.58140000  0.20130000  0.09590000  0.45 0.1026940077
H  H305  1  0.82530000  0.03500000  0.40330000  0.45 0.1099088044
H  H306  1  0.82720000  0.03870000  0.47050000  0.45 0.1099088044
H  H307  1  0.70320000  0.08510000  0.47130000  0.45 0.120038092
H  H308  1  0.70130000  0.08140000  0.40410000  0.45 0.1026940077
H  H309  1  0.17470000  0.96500000  0.40330000  0.45 0.1099088044
H  H310  1  0.17280000  0.96130000  0.47050000  0.45 0.120038092
H  H311  1  0.29680000  0.91490000  0.47130000  0.45 0.120038092
H  H312  1  0.29870000  0.91860000  0.40410000  0.45 0.1026940077
H  H313  1  0.03500000  0.17470000  0.40330000  0.45 0.1099088044
H  H314  1  0.03870000  0.17280000  0.47050000  0.45 0.1099088044
H  H315  1  0.08510000  0.29680000  0.47130000  0.45 0.120038092
H  H316  1  0.08140000  0.29870000  0.40410000  0.45 0.1026940077
H  H317  1  0.96500000  0.82530000  0.40330000  0.45 0.1099088044
H  H318  1  0.96130000  0.82720000  0.47050000  0.45 0.120038092
H  H319  1  0.91490000  0.70320000  0.47130000  0.45 0.120038092
H  H320  1  0.91860000  0.70130000  0.40410000  0.45 0.1026940077
H  H321  1  0.32530000  0.46500000  0.90330000  0.45 0.1099088044
H  H322  1  0.32720000  0.46130000  0.97050000  0.45 0.120038092
H  H323  1  0.20320000  0.41490000  0.97130000  0.45 0.120038092
H  H324  1  0.20130000  0.41860000  0.90410000  0.45 0.1026940077
H  H325  1  0.67470000  0.53500000  0.90330000  0.45 0.1099088044
H  H326  1  0.67280000  0.53870000  0.97050000  0.45 0.120038092
H  H327  1  0.79680000  0.58510000  0.97130000  0.45 0.120038092
H  H328  1  0.79870000  0.58140000  0.90410000  0.45 0.1026940077
H  H329  1  0.53500000  0.32530000  0.90330000  0.45 0.1099088044
H  H330  1  0.53870000  0.32720000  0.97050000  0.45 0.120038092
H  H331  1  0.58510000  0.20320000  0.97130000  0.45 0.120038092
H  H332  1  0.58140000  0.20130000  0.90410000  0.45 0.1026940077
H  H333  1  0.46500000  0.67470000  0.90330000  0.45 0.1099088044
H  H334  1  0.46130000  0.67280000  0.97050000  0.45 0.120038092
H  H335  1  0.41490000  0.79680000  0.97130000  0.45 0.120038092
H  H336  1  0.41860000  0.79870000  0.90410000  0.45 0.1026940077
H  H337  1  0.17470000  0.96500000  0.59670000  0.45 0.1099088044
H  H338  1  0.17280000  0.96130000  0.52950000  0.45 0.120038092
H  H339  1  0.29680000  0.91490000  0.52870000  0.45 0.120038092
H  H340  1  0.29870000  0.91860000  0.59590000  0.45 0.1026940077
H  H341  1  0.82530000  0.03500000  0.59670000  0.45 0.1099088044
H  H342  1  0.82720000  0.03870000  0.52950000  0.45 0.120038092
H  H343  1  0.70320000  0.08510000  0.52870000  0.45 0.120038092
H  H344  1  0.70130000  0.08140000  0.59590000  0.45 0.1026940077
H  H345  1  0.96500000  0.82530000  0.59670000  0.45 0.1099088044
H  H346  1  0.96130000  0.82720000  0.52950000  0.45 0.120038092
H  H347  1  0.91490000  0.70320000  0.52870000  0.45 0.120038092
H  H348  1  0.91860000  0.70130000  0.59590000  0.45 0.1026940077
H  H349  1  0.03500000  0.17470000  0.59670000  0.45 0.1099088044
H  H350  1  0.03870000  0.17280000  0.52950000  0.45 0.120038092
H  H351  1  0.08510000  0.29680000  0.52870000  0.45 0.120038092
H  H352  1  0.08140000  0.29870000  0.59590000  0.45 0.1026940077
H  H353  1  0.47580000  0.44290000  0.40320000  0.5 0.1026940077
H  H354  1  0.47330000  0.44280000  0.47100000  0.5 0.1026940077
H  H355  1  0.52420000  0.55710000  0.40320000  0.5 0.1026940077
H  H356  1  0.52670000  0.55720000  0.47100000  0.5 0.1026940077
H  H357  1  0.55710000  0.47580000  0.40320000  0.5 0.1026940077
H  H358  1  0.55720000  0.47330000  0.47100000  0.5 0.1026940077
H  H359  1  0.44290000  0.52420000  0.40320000  0.5 0.1026940077
H  H360  1  0.44280000  0.52670000  0.47100000  0.5 0.1026940077
H  H361  1  0.02420000  0.94290000  0.09680000  0.5 0.1026940077
H  H362  1  0.02670000  0.94280000  0.02900000  0.5 0.1026940077
H  H363  1  0.97580000  0.05710000  0.09680000  0.5 0.1026940077
H  H364  1  0.97330000  0.05720000  0.02900000  0.5 0.1026940077
H  H365  1  0.94290000  0.97580000  0.09680000  0.5 0.1026940077
H  H366  1  0.94280000  0.97330000  0.02900000  0.5 0.1026940077
H  H367  1  0.05710000  0.02420000  0.09680000  0.5 0.1026940077
H  H368  1  0.05720000  0.02670000  0.02900000  0.5 0.1026940077
H  H369  1  0.52420000  0.55710000  0.59680000  0.5 0.1026940077
H  H370  1  0.52670000  0.55720000  0.52900000  0.5 0.1026940077
H  H371  1  0.47580000  0.44290000  0.59680000  0.5 0.1026940077
H  H372  1  0.47330000  0.44280000  0.52900000  0.5 0.1026940077
H  H373  1  0.44290000  0.52420000  0.59680000  0.5 0.1026940077
H  H374  1  0.44280000  0.52670000  0.52900000  0.5 0.1026940077
H  H375  1  0.55710000  0.47580000  0.59680000  0.5 0.1026940077
H  H376  1  0.55720000  0.47330000  0.52900000  0.5 0.1026940077
H  H377  1  0.97580000  0.05710000  0.90320000  0.5 0.1026940077
H  H378  1  0.97330000  0.05720000  0.97100000  0.5 0.1026940077
H  H379  1  0.02420000  0.94290000  0.90320000  0.5 0.1026940077
H  H380  1  0.02670000  0.94280000  0.97100000  0.5 0.1026940077
H  H381  1  0.05710000  0.02420000  0.90320000  0.5 0.1026940077
H  H382  1  0.05720000  0.02670000  0.97100000  0.5 0.1026940077
H  H383  1  0.94290000  0.97580000  0.90320000  0.5 0.1026940077
H  H384  1  0.94280000  0.97330000  0.97100000  0.5 0.1026940077
C  C1  1  0.52160000  0.59780000  0.32461000  1.0 0.2010253912
C  C2  1  0.55970000  0.62810000  0.32290000  1.0 -0.1788973483
C  C3  1  0.59520000  0.60390000  0.32330000  1.0 -0.1885475228
C  C4  1  0.58380000  0.55700000  0.32476000  1.0 0.1707661069
C  C5  1  0.61040000  0.52270000  0.32502000  1.0 -0.1010664278
C  C6  1  0.65971000  0.53242000  0.32625000  1.0 0.0880222822
C  C7  1  0.68233000  0.52730000  0.36103000  1.0 -0.1615876326
C  C8  1  0.72736000  0.53550000  0.36265000  1.0 -0.1010664278
C  C9  1  0.74977000  0.54880000  0.32950000  1.0 -0.1057909651
C  C10  1  0.72715000  0.55400000  0.29473000  1.0 -0.0614358355
C  C11  1  0.68212000  0.54579000  0.29310000  1.0 -0.1475812037
C  C12  1  0.75280000  0.56760000  0.26120000  1.0 0.5824560701
C  C13  1  0.82510000  0.53050000  0.16530000  1.0 0.5604727157
C  C14  1  0.85190000  0.49280000  0.14839000  1.0 -0.0129701252
C  C15  1  0.89650000  0.48730000  0.15620000  1.0 -0.1180527514
C  C16  1  0.92080000  0.45640000  0.13550000  1.0 -0.1010664278
C  C17  1  0.90060000  0.43110000  0.10710000  1.0 -0.1396062596
C  C18  1  0.85600000  0.43660000  0.09926000  1.0 0.0880222822
C  C19  1  0.83160000  0.46750000  0.11992000  1.0 -0.1703210057
C  C20  1  0.85950000  0.45970000  0.01960000  1.0 -0.1988179362
C  C21  1  0.84460000  0.41760000  0.03280000  1.0 0.1781305403
C  C22  1  0.83730000  0.40470000  0.07070000  1.0 -0.0915842383
C  C23  1  0.81790000  0.36680000  0.08220000  1.0 0.1707661069
C  C24  1  0.81530000  0.35100000  0.12380000  1.0 -0.1396062596
C  C25  1  0.79340000  0.31370000  0.12270000  1.0 -0.1885475228
C  C26  1  0.78060000  0.30310000  0.08260000  1.0 0.2131371565
C  C27  1  0.76600000  0.26150000  0.07090000  1.0 -0.1010664278
C  C28  1  0.75690000  0.25070000  0.03250000  1.0 0.1781305403
C  C29  1  0.73550000  0.21020000  0.01920000  1.0 -0.1788973483
C  C30  1  0.79310000  0.65720000  0.17200000  1.0 0.5542791483
C  C31  1  0.79650000  0.70020000  0.14940000  1.0 -0.0030078569
C  C32  1  0.83250000  0.72750000  0.15620000  1.0 -0.1180527514
C  C33  1  0.83730000  0.76630000  0.13530000  1.0 -0.0915842383
C  C34  1  0.80630000  0.77780000  0.10740000  1.0 -0.1475812037
C  C35  1  0.77030000  0.75060000  0.10058000  1.0 0.0880222822
C  C36  1  0.76542000  0.71180000  0.12156000  1.0 -0.1615876326
C  C37  1  0.47840000  0.40220000  0.32461000  1.0 0.2010253912
C  C38  1  0.44030000  0.37190000  0.32290000  1.0 -0.1788973483
C  C39  1  0.40480000  0.39610000  0.32330000  1.0 -0.1885475228
C  C40  1  0.41620000  0.44300000  0.32476000  1.0 0.1707661069
C  C41  1  0.38960000  0.47730000  0.32502000  1.0 -0.1010664278
C  C42  1  0.34029000  0.46758000  0.32625000  1.0 0.0880222822
C  C43  1  0.31767000  0.47270000  0.36103000  1.0 -0.1615876326
C  C44  1  0.27264000  0.46450000  0.36265000  1.0 -0.1010664278
C  C45  1  0.25023000  0.45120000  0.32950000  1.0 -0.1057909651
C  C46  1  0.27285000  0.44600000  0.29473000  1.0 -0.0614358355
C  C47  1  0.31788000  0.45421000  0.29310000  1.0 -0.1475812037
C  C48  1  0.24720000  0.43240000  0.26120000  1.0 0.5824560701
C  C49  1  0.17490000  0.46950000  0.16530000  1.0 0.5604727157
C  C50  1  0.14810000  0.50720000  0.14839000  1.0 -0.0129701252
C  C51  1  0.10350000  0.51270000  0.15620000  1.0 -0.1180527514
C  C52  1  0.07920000  0.54360000  0.13550000  1.0 -0.1010664278
C  C53  1  0.09940000  0.56890000  0.10710000  1.0 -0.1396062596
C  C54  1  0.14400000  0.56340000  0.09926000  1.0 0.0880222822
C  C55  1  0.16840000  0.53250000  0.11992000  1.0 -0.1703210057
C  C56  1  0.14050000  0.54030000  0.01960000  1.0 -0.1988179362
C  C57  1  0.15540000  0.58240000  0.03280000  1.0 0.1781305403
C  C58  1  0.16270000  0.59530000  0.07070000  1.0 -0.0915842383
C  C59  1  0.18210000  0.63320000  0.08220000  1.0 0.1707661069
C  C60  1  0.18470000  0.64900000  0.12380000  1.0 -0.1396062596
C  C61  1  0.20660000  0.68630000  0.12270000  1.0 -0.1885475228
C  C62  1  0.21940000  0.69690000  0.08260000  1.0 0.2131371565
C  C63  1  0.23400000  0.73850000  0.07090000  1.0 -0.1010664278
C  C64  1  0.24310000  0.74930000  0.03250000  1.0 0.1781305403
C  C65  1  0.26450000  0.78980000  0.01920000  1.0 -0.1788973483
C  C66  1  0.20690000  0.34280000  0.17200000  1.0 0.5542791483
C  C67  1  0.20350000  0.29980000  0.14940000  1.0 -0.0030078569
C  C68  1  0.16750000  0.27250000  0.15620000  1.0 -0.1180527514
C  C69  1  0.16270000  0.23370000  0.13530000  1.0 -0.0915842383
C  C70  1  0.19370000  0.22220000  0.10740000  1.0 -0.1475812037
C  C71  1  0.22970000  0.24940000  0.10058000  1.0 0.0880222822
C  C72  1  0.23458000  0.28820000  0.12156000  1.0 -0.1615876326
C  C73  1  0.40220000  0.52160000  0.32461000  1.0 0.2010253912
C  C74  1  0.37190000  0.55970000  0.32290000  1.0 -0.1788973483
C  C75  1  0.39610000  0.59520000  0.32330000  1.0 -0.1885475228
C  C76  1  0.44300000  0.58380000  0.32476000  1.0 0.1707661069
C  C77  1  0.47730000  0.61040000  0.32502000  1.0 -0.1010664278
C  C78  1  0.46758000  0.65971000  0.32625000  1.0 0.0880222822
C  C79  1  0.47270000  0.68233000  0.36103000  1.0 -0.1615876326
C  C80  1  0.46450000  0.72736000  0.36265000  1.0 -0.1010664278
C  C81  1  0.45120000  0.74977000  0.32950000  1.0 -0.1057909651
C  C82  1  0.44600000  0.72715000  0.29473000  1.0 -0.0614358355
C  C83  1  0.45421000  0.68212000  0.29310000  1.0 -0.1475812037
C  C84  1  0.43240000  0.75280000  0.26120000  1.0 0.5824560701
C  C85  1  0.46950000  0.82510000  0.16530000  1.0 0.5604727157
C  C86  1  0.50720000  0.85190000  0.14839000  1.0 -0.0129701252
C  C87  1  0.51270000  0.89650000  0.15620000  1.0 -0.1180527514
C  C88  1  0.54360000  0.92080000  0.13550000  1.0 -0.1010664278
C  C89  1  0.56890000  0.90060000  0.10710000  1.0 -0.1396062596
C  C90  1  0.56340000  0.85600000  0.09926000  1.0 0.0880222822
C  C91  1  0.53250000  0.83160000  0.11992000  1.0 -0.1703210057
C  C92  1  0.54030000  0.85950000  0.01960000  1.0 -0.1885475228
C  C93  1  0.58240000  0.84460000  0.03280000  1.0 0.1781305403
C  C94  1  0.59530000  0.83730000  0.07070000  1.0 -0.0915842383
C  C95  1  0.63320000  0.81790000  0.08220000  1.0 0.1707661069
C  C96  1  0.64900000  0.81530000  0.12380000  1.0 -0.1396062596
C  C97  1  0.68630000  0.79340000  0.12270000  1.0 -0.1885475228
C  C98  1  0.69690000  0.78060000  0.08260000  1.0 0.2131371565
C  C99  1  0.73850000  0.76600000  0.07090000  1.0 -0.1010664278
C  C100  1  0.74930000  0.75690000  0.03250000  1.0 0.1781305403
C  C101  1  0.78980000  0.73550000  0.01920000  1.0 -0.1788973483
C  C102  1  0.34280000  0.79310000  0.17200000  1.0 0.5542791483
C  C103  1  0.29980000  0.79650000  0.14940000  1.0 -0.0030078569
C  C104  1  0.27250000  0.83250000  0.15620000  1.0 -0.1180527514
C  C105  1  0.23370000  0.83730000  0.13530000  1.0 -0.0915842383
C  C106  1  0.22220000  0.80630000  0.10740000  1.0 -0.1475812037
C  C107  1  0.24940000  0.77030000  0.10058000  1.0 0.0880222822
C  C108  1  0.28820000  0.76542000  0.12156000  1.0 -0.1615876326
C  C109  1  0.59780000  0.47840000  0.32461000  1.0 0.2010253912
C  C110  1  0.62810000  0.44030000  0.32290000  1.0 -0.1788973483
C  C111  1  0.60390000  0.40480000  0.32330000  1.0 -0.1885475228
C  C112  1  0.55700000  0.41620000  0.32476000  1.0 0.1707661069
C  C113  1  0.52270000  0.38960000  0.32502000  1.0 -0.1010664278
C  C114  1  0.53242000  0.34029000  0.32625000  1.0 0.0880222822
C  C115  1  0.52730000  0.31767000  0.36103000  1.0 -0.1615876326
C  C116  1  0.53550000  0.27264000  0.36265000  1.0 -0.1010664278
C  C117  1  0.54880000  0.25023000  0.32950000  1.0 -0.1057909651
C  C118  1  0.55400000  0.27285000  0.29473000  1.0 -0.0614358355
C  C119  1  0.54579000  0.31788000  0.29310000  1.0 -0.1475812037
C  C120  1  0.56760000  0.24720000  0.26120000  1.0 0.5824560701
C  C121  1  0.53050000  0.17490000  0.16530000  1.0 0.5604727157
C  C122  1  0.49280000  0.14810000  0.14839000  1.0 -0.0129701252
C  C123  1  0.48730000  0.10350000  0.15620000  1.0 -0.1180527514
C  C124  1  0.45640000  0.07920000  0.13550000  1.0 -0.1010664278
C  C125  1  0.43110000  0.09940000  0.10710000  1.0 -0.1396062596
C  C126  1  0.43660000  0.14400000  0.09926000  1.0 0.0880222822
C  C127  1  0.46750000  0.16840000  0.11992000  1.0 -0.1703210057
C  C128  1  0.45970000  0.14050000  0.01960000  1.0 -0.1988179362
C  C129  1  0.41760000  0.15540000  0.03280000  1.0 0.1781305403
C  C130  1  0.40470000  0.16270000  0.07070000  1.0 -0.0915842383
C  C131  1  0.36680000  0.18210000  0.08220000  1.0 0.1707661069
C  C132  1  0.35100000  0.18470000  0.12380000  1.0 -0.1396062596
C  C133  1  0.31370000  0.20660000  0.12270000  1.0 -0.1885475228
C  C134  1  0.30310000  0.21940000  0.08260000  1.0 0.2131371565
C  C135  1  0.26150000  0.23400000  0.07090000  1.0 -0.1010664278
C  C136  1  0.25070000  0.24310000  0.03250000  1.0 0.1781305403
C  C137  1  0.21020000  0.26450000  0.01920000  1.0 -0.1788973483
C  C138  1  0.65720000  0.20690000  0.17200000  1.0 0.5542791483
C  C139  1  0.70020000  0.20350000  0.14940000  1.0 -0.0030078569
C  C140  1  0.72750000  0.16750000  0.15620000  1.0 -0.1180527514
C  C141  1  0.76630000  0.16270000  0.13530000  1.0 -0.0915842383
C  C142  1  0.77780000  0.19370000  0.10740000  1.0 -0.1475812037
C  C143  1  0.75060000  0.22970000  0.10058000  1.0 0.0880222822
C  C144  1  0.71180000  0.23458000  0.12156000  1.0 -0.1615876326
C  C145  1  0.97840000  0.09780000  0.17539000  1.0 0.2010253912
C  C146  1  0.94030000  0.12810000  0.17710000  1.0 -0.1788973483
C  C147  1  0.90480000  0.10390000  0.17670000  1.0 -0.1885475228
C  C148  1  0.91620000  0.05700000  0.17524000  1.0 0.1707661069
C  C149  1  0.88960000  0.02270000  0.17498000  1.0 -0.1010664278
C  C150  1  0.84029000  0.03242000  0.17375000  1.0 0.0880222822
C  C151  1  0.81767000  0.02730000  0.13897000  1.0 -0.1615876326
C  C152  1  0.77264000  0.03550000  0.13735000  1.0 -0.1010664278
C  C153  1  0.75023000  0.04880000  0.17050000  1.0 -0.1057909651
C  C154  1  0.77285000  0.05400000  0.20527000  1.0 -0.0614358355
C  C155  1  0.81788000  0.04579000  0.20690000  1.0 -0.1475812037
C  C156  1  0.74720000  0.06760000  0.23880000  1.0 0.5824560701
C  C157  1  0.67490000  0.03050000  0.33470000  1.0 0.5604727157
C  C158  1  0.64810000  0.99280000  0.35161000  1.0 -0.0129701252
C  C159  1  0.60350000  0.98730000  0.34380000  1.0 -0.1180527514
C  C160  1  0.57920000  0.95640000  0.36450000  1.0 -0.1010664278
C  C161  1  0.59940000  0.93110000  0.39290000  1.0 -0.1396062596
C  C162  1  0.64400000  0.93660000  0.40074000  1.0 0.0880222822
C  C163  1  0.66840000  0.96750000  0.38008000  1.0 -0.1703210057
C  C164  1  0.64050000  0.95970000  0.48040000  1.0 -0.1988179362
C  C165  1  0.65540000  0.91760000  0.46720000  1.0 0.1781305403
C  C166  1  0.66270000  0.90470000  0.42930000  1.0 -0.0915842383
C  C167  1  0.68210000  0.86680000  0.41780000  1.0 0.1707661069
C  C168  1  0.68470000  0.85100000  0.37620000  1.0 -0.1396062596
C  C169  1  0.70660000  0.81370000  0.37730000  1.0 -0.1885475228
C  C170  1  0.71940000  0.80310000  0.41740000  1.0 0.2131371565
C  C171  1  0.73400000  0.76150000  0.42910000  1.0 -0.1010664278
C  C172  1  0.74310000  0.75070000  0.46750000  1.0 0.1781305403
C  C173  1  0.76450000  0.71020000  0.48080000  1.0 -0.1788973483
C  C174  1  0.70690000  0.15720000  0.32800000  1.0 0.5604727157
C  C175  1  0.70350000  0.20020000  0.35060000  1.0 -0.0030078569
C  C176  1  0.66750000  0.22750000  0.34380000  1.0 -0.1180527514
C  C177  1  0.66270000  0.26630000  0.36470000  1.0 -0.0915842383
C  C178  1  0.69370000  0.27780000  0.39260000  1.0 -0.1475812037
C  C179  1  0.72970000  0.25060000  0.39942000  1.0 0.0880222822
C  C180  1  0.73458000  0.21180000  0.37844000  1.0 -0.1615876326
C  C181  1  0.02160000  0.90220000  0.17539000  1.0 0.2010253912
C  C182  1  0.05970000  0.87190000  0.17710000  1.0 -0.1788973483
C  C183  1  0.09520000  0.89610000  0.17670000  1.0 -0.1885475228
C  C184  1  0.08380000  0.94300000  0.17524000  1.0 0.1707661069
C  C185  1  0.11040000  0.97730000  0.17498000  1.0 -0.1010664278
C  C186  1  0.15971000  0.96758000  0.17375000  1.0 0.0880222822
C  C187  1  0.18233000  0.97270000  0.13897000  1.0 -0.1615876326
C  C188  1  0.22736000  0.96450000  0.13735000  1.0 -0.1010664278
C  C189  1  0.24977000  0.95120000  0.17050000  1.0 -0.1057909651
C  C190  1  0.22715000  0.94600000  0.20527000  1.0 -0.0614358355
C  C191  1  0.18212000  0.95421000  0.20690000  1.0 -0.1475812037
C  C192  1  0.25280000  0.93240000  0.23880000  1.0 0.5824560701
C  C193  1  0.32510000  0.96950000  0.33470000  1.0 0.5604727157
C  C194  1  0.35190000  0.00720000  0.35161000  1.0 -0.0129701252
C  C195  1  0.39650000  0.01270000  0.34380000  1.0 -0.1180527514
C  C196  1  0.42080000  0.04360000  0.36450000  1.0 -0.1010664278
C  C197  1  0.40060000  0.06890000  0.39290000  1.0 -0.1396062596
C  C198  1  0.35600000  0.06340000  0.40074000  1.0 0.0880222822
C  C199  1  0.33160000  0.03250000  0.38008000  1.0 -0.1703210057
C  C200  1  0.35950000  0.04030000  0.48040000  1.0 -0.1885475228
C  C201  1  0.34460000  0.08240000  0.46720000  1.0 0.1781305403
C  C202  1  0.33730000  0.09530000  0.42930000  1.0 -0.0915842383
C  C203  1  0.31790000  0.13320000  0.41780000  1.0 0.1707661069
C  C204  1  0.31530000  0.14900000  0.37620000  1.0 -0.1396062596
C  C205  1  0.29340000  0.18630000  0.37730000  1.0 -0.1885475228
C  C206  1  0.28060000  0.19690000  0.41740000  1.0 0.2131371565
C  C207  1  0.26600000  0.23850000  0.42910000  1.0 -0.1010664278
C  C208  1  0.25690000  0.24930000  0.46750000  1.0 0.1781305403
C  C209  1  0.23550000  0.28980000  0.48080000  1.0 -0.1788973483
C  C210  1  0.29310000  0.84280000  0.32800000  1.0 0.5542791483
C  C211  1  0.29650000  0.79980000  0.35060000  1.0 -0.0030078569
C  C212  1  0.33250000  0.77250000  0.34380000  1.0 -0.1180527514
C  C213  1  0.33730000  0.73370000  0.36470000  1.0 -0.0915842383
C  C214  1  0.30630000  0.72220000  0.39260000  1.0 -0.1475812037
C  C215  1  0.27030000  0.74940000  0.39942000  1.0 0.0880222822
C  C216  1  0.26542000  0.78820000  0.37844000  1.0 -0.1615876326
C  C217  1  0.09780000  0.02160000  0.17539000  1.0 0.2010253912
C  C218  1  0.12810000  0.05970000  0.17710000  1.0 -0.1788973483
C  C219  1  0.10390000  0.09520000  0.17670000  1.0 -0.1885475228
C  C220  1  0.05700000  0.08380000  0.17524000  1.0 0.1707661069
C  C221  1  0.02270000  0.11040000  0.17498000  1.0 -0.1010664278
C  C222  1  0.03242000  0.15971000  0.17375000  1.0 0.0880222822
C  C223  1  0.02730000  0.18233000  0.13897000  1.0 -0.1615876326
C  C224  1  0.03550000  0.22736000  0.13735000  1.0 -0.1010664278
C  C225  1  0.04880000  0.24977000  0.17050000  1.0 -0.1057909651
C  C226  1  0.05400000  0.22715000  0.20527000  1.0 -0.0614358355
C  C227  1  0.04579000  0.18212000  0.20690000  1.0 -0.1475812037
C  C228  1  0.06760000  0.25280000  0.23880000  1.0 0.5824560701
C  C229  1  0.03050000  0.32510000  0.33470000  1.0 0.5604727157
C  C230  1  0.99280000  0.35190000  0.35161000  1.0 -0.0129701252
C  C231  1  0.98730000  0.39650000  0.34380000  1.0 -0.1180527514
C  C232  1  0.95640000  0.42080000  0.36450000  1.0 -0.1010664278
C  C233  1  0.93110000  0.40060000  0.39290000  1.0 -0.1396062596
C  C234  1  0.93660000  0.35600000  0.40074000  1.0 0.0880222822
C  C235  1  0.96750000  0.33160000  0.38008000  1.0 -0.1703210057
C  C236  1  0.95970000  0.35950000  0.48040000  1.0 -0.1885475228
C  C237  1  0.91760000  0.34460000  0.46720000  1.0 0.1781305403
C  C238  1  0.90470000  0.33730000  0.42930000  1.0 -0.0915842383
C  C239  1  0.86680000  0.31790000  0.41780000  1.0 0.1707661069
C  C240  1  0.85100000  0.31530000  0.37620000  1.0 -0.1396062596
C  C241  1  0.81370000  0.29340000  0.37730000  1.0 -0.1885475228
C  C242  1  0.80310000  0.28060000  0.41740000  1.0 0.2131371565
C  C243  1  0.76150000  0.26600000  0.42910000  1.0 -0.1010664278
C  C244  1  0.75070000  0.25690000  0.46750000  1.0 0.1781305403
C  C245  1  0.71020000  0.23550000  0.48080000  1.0 -0.1788973483
C  C246  1  0.15720000  0.29310000  0.32800000  1.0 0.5542791483
C  C247  1  0.20020000  0.29650000  0.35060000  1.0 -0.0030078569
C  C248  1  0.22750000  0.33250000  0.34380000  1.0 -0.1180527514
C  C249  1  0.26630000  0.33730000  0.36470000  1.0 -0.0915842383
C  C250  1  0.27780000  0.30630000  0.39260000  1.0 -0.1475812037
C  C251  1  0.25060000  0.27030000  0.39942000  1.0 0.0880222822
C  C252  1  0.21180000  0.26542000  0.37844000  1.0 -0.1615876326
C  C253  1  0.90220000  0.97840000  0.17539000  1.0 0.2010253912
C  C254  1  0.87190000  0.94030000  0.17710000  1.0 -0.1788973483
C  C255  1  0.89610000  0.90480000  0.17670000  1.0 -0.1885475228
C  C256  1  0.94300000  0.91620000  0.17524000  1.0 0.1707661069
C  C257  1  0.97730000  0.88960000  0.17498000  1.0 -0.1010664278
C  C258  1  0.96758000  0.84029000  0.17375000  1.0 0.0880222822
C  C259  1  0.97270000  0.81767000  0.13897000  1.0 -0.1615876326
C  C260  1  0.96450000  0.77264000  0.13735000  1.0 -0.1010664278
C  C261  1  0.95120000  0.75023000  0.17050000  1.0 -0.1057909651
C  C262  1  0.94600000  0.77285000  0.20527000  1.0 -0.0614358355
C  C263  1  0.95421000  0.81788000  0.20690000  1.0 -0.1475812037
C  C264  1  0.93240000  0.74720000  0.23880000  1.0 0.5824560701
C  C265  1  0.96950000  0.67490000  0.33470000  1.0 0.5604727157
C  C266  1  0.00720000  0.64810000  0.35161000  1.0 -0.0129701252
C  C267  1  0.01270000  0.60350000  0.34380000  1.0 -0.1180527514
C  C268  1  0.04360000  0.57920000  0.36450000  1.0 -0.1010664278
C  C269  1  0.06890000  0.59940000  0.39290000  1.0 -0.1396062596
C  C270  1  0.06340000  0.64400000  0.40074000  1.0 0.0880222822
C  C271  1  0.03250000  0.66840000  0.38008000  1.0 -0.1703210057
C  C272  1  0.04030000  0.64050000  0.48040000  1.0 -0.1988179362
C  C273  1  0.08240000  0.65540000  0.46720000  1.0 0.1781305403
C  C274  1  0.09530000  0.66270000  0.42930000  1.0 -0.0915842383
C  C275  1  0.13320000  0.68210000  0.41780000  1.0 0.1707661069
C  C276  1  0.14900000  0.68470000  0.37620000  1.0 -0.1396062596
C  C277  1  0.18630000  0.70660000  0.37730000  1.0 -0.1885475228
C  C278  1  0.19690000  0.71940000  0.41740000  1.0 0.2131371565
C  C279  1  0.23850000  0.73400000  0.42910000  1.0 -0.1010664278
C  C280  1  0.24930000  0.74310000  0.46750000  1.0 0.1781305403
C  C281  1  0.28980000  0.76450000  0.48080000  1.0 -0.1788973483
C  C282  1  0.84280000  0.70690000  0.32800000  1.0 0.5542791483
C  C283  1  0.79980000  0.70350000  0.35060000  1.0 -0.0030078569
C  C284  1  0.77250000  0.66750000  0.34380000  1.0 -0.1180527514
C  C285  1  0.73370000  0.66270000  0.36470000  1.0 -0.0915842383
C  C286  1  0.72220000  0.69370000  0.39260000  1.0 -0.1475812037
C  C287  1  0.74940000  0.72970000  0.39942000  1.0 0.0880222822
C  C288  1  0.78820000  0.73458000  0.37844000  1.0 -0.1615876326
C  C289  1  0.47840000  0.40220000  0.67539000  1.0 0.2010253912
C  C290  1  0.44030000  0.37190000  0.67710000  1.0 -0.1788973483
C  C291  1  0.40480000  0.39610000  0.67670000  1.0 -0.1885475228
C  C292  1  0.41620000  0.44300000  0.67524000  1.0 0.1707661069
C  C293  1  0.38960000  0.47730000  0.67498000  1.0 -0.1010664278
C  C294  1  0.34029000  0.46758000  0.67375000  1.0 0.0880222822
C  C295  1  0.31767000  0.47270000  0.63897000  1.0 -0.1615876326
C  C296  1  0.27264000  0.46450000  0.63735000  1.0 -0.1010664278
C  C297  1  0.25023000  0.45120000  0.67050000  1.0 -0.1057909651
C  C298  1  0.27285000  0.44600000  0.70527000  1.0 -0.0614358355
C  C299  1  0.31788000  0.45421000  0.70690000  1.0 -0.1475812037
C  C300  1  0.24720000  0.43240000  0.73880000  1.0 0.5824560701
C  C301  1  0.17490000  0.46950000  0.83470000  1.0 0.5604727157
C  C302  1  0.14810000  0.50720000  0.85161000  1.0 -0.0129701252
C  C303  1  0.10350000  0.51270000  0.84380000  1.0 -0.1180527514
C  C304  1  0.07920000  0.54360000  0.86450000  1.0 -0.1010664278
C  C305  1  0.09940000  0.56890000  0.89290000  1.0 -0.1396062596
C  C306  1  0.14400000  0.56340000  0.90074000  1.0 0.0880222822
C  C307  1  0.16840000  0.53250000  0.88008000  1.0 -0.1703210057
C  C308  1  0.14050000  0.54030000  0.98040000  1.0 -0.1988179362
C  C309  1  0.15540000  0.58240000  0.96720000  1.0 0.1781305403
C  C310  1  0.16270000  0.59530000  0.92930000  1.0 -0.0915842383
C  C311  1  0.18210000  0.63320000  0.91780000  1.0 0.1707661069
C  C312  1  0.18470000  0.64900000  0.87620000  1.0 -0.1396062596
C  C313  1  0.20660000  0.68630000  0.87730000  1.0 -0.1885475228
C  C314  1  0.21940000  0.69690000  0.91740000  1.0 0.2131371565
C  C315  1  0.23400000  0.73850000  0.92910000  1.0 -0.1010664278
C  C316  1  0.24310000  0.74930000  0.96750000  1.0 0.1781305403
C  C317  1  0.26450000  0.78980000  0.98080000  1.0 -0.1788973483
C  C318  1  0.20690000  0.34280000  0.82800000  1.0 0.5542791483
C  C319  1  0.20350000  0.29980000  0.85060000  1.0 -0.0030078569
C  C320  1  0.16750000  0.27250000  0.84380000  1.0 -0.1180527514
C  C321  1  0.16270000  0.23370000  0.86470000  1.0 -0.0915842383
C  C322  1  0.19370000  0.22220000  0.89260000  1.0 -0.1475812037
C  C323  1  0.22970000  0.24940000  0.89942000  1.0 0.0880222822
C  C324  1  0.23458000  0.28820000  0.87844000  1.0 -0.1615876326
C  C325  1  0.52160000  0.59780000  0.67539000  1.0 0.2010253912
C  C326  1  0.55970000  0.62810000  0.67710000  1.0 -0.1788973483
C  C327  1  0.59520000  0.60390000  0.67670000  1.0 -0.1885475228
C  C328  1  0.58380000  0.55700000  0.67524000  1.0 0.1707661069
C  C329  1  0.61040000  0.52270000  0.67498000  1.0 -0.1010664278
C  C330  1  0.65971000  0.53242000  0.67375000  1.0 0.0880222822
C  C331  1  0.68233000  0.52730000  0.63897000  1.0 -0.1615876326
C  C332  1  0.72736000  0.53550000  0.63735000  1.0 -0.1010664278
C  C333  1  0.74977000  0.54880000  0.67050000  1.0 -0.1057909651
C  C334  1  0.72715000  0.55400000  0.70527000  1.0 -0.0614358355
C  C335  1  0.68212000  0.54579000  0.70690000  1.0 -0.1475812037
C  C336  1  0.75280000  0.56760000  0.73880000  1.0 0.5824560701
C  C337  1  0.82510000  0.53050000  0.83470000  1.0 0.5604727157
C  C338  1  0.85190000  0.49280000  0.85161000  1.0 -0.0129701252
C  C339  1  0.89650000  0.48730000  0.84380000  1.0 -0.1180527514
C  C340  1  0.92080000  0.45640000  0.86450000  1.0 -0.1010664278
C  C341  1  0.90060000  0.43110000  0.89290000  1.0 -0.1396062596
C  C342  1  0.85600000  0.43660000  0.90074000  1.0 0.0880222822
C  C343  1  0.83160000  0.46750000  0.88008000  1.0 -0.1703210057
C  C344  1  0.85950000  0.45970000  0.98040000  1.0 -0.1988179362
C  C345  1  0.84460000  0.41760000  0.96720000  1.0 0.1781305403
C  C346  1  0.83730000  0.40470000  0.92930000  1.0 -0.0915842383
C  C347  1  0.81790000  0.36680000  0.91780000  1.0 0.1707661069
C  C348  1  0.81530000  0.35100000  0.87620000  1.0 -0.1396062596
C  C349  1  0.79340000  0.31370000  0.87730000  1.0 -0.1885475228
C  C350  1  0.78060000  0.30310000  0.91740000  1.0 0.2131371565
C  C351  1  0.76600000  0.26150000  0.92910000  1.0 -0.1010664278
C  C352  1  0.75690000  0.25070000  0.96750000  1.0 0.1781305403
C  C353  1  0.73550000  0.21020000  0.98080000  1.0 -0.1788973483
C  C354  1  0.79310000  0.65720000  0.82800000  1.0 0.5542791483
C  C355  1  0.79650000  0.70020000  0.85060000  1.0 -0.0030078569
C  C356  1  0.83250000  0.72750000  0.84380000  1.0 -0.1180527514
C  C357  1  0.83730000  0.76630000  0.86470000  1.0 -0.0915842383
C  C358  1  0.80630000  0.77780000  0.89260000  1.0 -0.1475812037
C  C359  1  0.77030000  0.75060000  0.89942000  1.0 0.0880222822
C  C360  1  0.76542000  0.71180000  0.87844000  1.0 -0.1615876326
C  C361  1  0.59780000  0.47840000  0.67539000  1.0 0.2010253912
C  C362  1  0.62810000  0.44030000  0.67710000  1.0 -0.1788973483
C  C363  1  0.60390000  0.40480000  0.67670000  1.0 -0.1885475228
C  C364  1  0.55700000  0.41620000  0.67524000  1.0 0.1707661069
C  C365  1  0.52270000  0.38960000  0.67498000  1.0 -0.1010664278
C  C366  1  0.53242000  0.34029000  0.67375000  1.0 0.0880222822
C  C367  1  0.52730000  0.31767000  0.63897000  1.0 -0.1615876326
C  C368  1  0.53550000  0.27264000  0.63735000  1.0 -0.1010664278
C  C369  1  0.54880000  0.25023000  0.67050000  1.0 -0.1057909651
C  C370  1  0.55400000  0.27285000  0.70527000  1.0 -0.0614358355
C  C371  1  0.54579000  0.31788000  0.70690000  1.0 -0.1475812037
C  C372  1  0.56760000  0.24720000  0.73880000  1.0 0.5824560701
C  C373  1  0.53050000  0.17490000  0.83470000  1.0 0.5604727157
C  C374  1  0.49280000  0.14810000  0.85161000  1.0 -0.0129701252
C  C375  1  0.48730000  0.10350000  0.84380000  1.0 -0.1180527514
C  C376  1  0.45640000  0.07920000  0.86450000  1.0 -0.1010664278
C  C377  1  0.43110000  0.09940000  0.89290000  1.0 -0.1396062596
C  C378  1  0.43660000  0.14400000  0.90074000  1.0 0.0880222822
C  C379  1  0.46750000  0.16840000  0.88008000  1.0 -0.1703210057
C  C380  1  0.45970000  0.14050000  0.98040000  1.0 -0.1988179362
C  C381  1  0.41760000  0.15540000  0.96720000  1.0 0.1781305403
C  C382  1  0.40470000  0.16270000  0.92930000  1.0 -0.0915842383
C  C383  1  0.36680000  0.18210000  0.91780000  1.0 0.1707661069
C  C384  1  0.35100000  0.18470000  0.87620000  1.0 -0.1396062596
C  C385  1  0.31370000  0.20660000  0.87730000  1.0 -0.1885475228
C  C386  1  0.30310000  0.21940000  0.91740000  1.0 0.2131371565
C  C387  1  0.26150000  0.23400000  0.92910000  1.0 -0.1010664278
C  C388  1  0.25070000  0.24310000  0.96750000  1.0 0.1781305403
C  C389  1  0.21020000  0.26450000  0.98080000  1.0 -0.1788973483
C  C390  1  0.65720000  0.20690000  0.82800000  1.0 0.5542791483
C  C391  1  0.70020000  0.20350000  0.85060000  1.0 -0.0030078569
C  C392  1  0.72750000  0.16750000  0.84380000  1.0 -0.1180527514
C  C393  1  0.76630000  0.16270000  0.86470000  1.0 -0.0915842383
C  C394  1  0.77780000  0.19370000  0.89260000  1.0 -0.1475812037
C  C395  1  0.75060000  0.22970000  0.89942000  1.0 0.0880222822
C  C396  1  0.71180000  0.23458000  0.87844000  1.0 -0.1615876326
C  C397  1  0.40220000  0.52160000  0.67539000  1.0 0.2010253912
C  C398  1  0.37190000  0.55970000  0.67710000  1.0 -0.1788973483
C  C399  1  0.39610000  0.59520000  0.67670000  1.0 -0.1885475228
C  C400  1  0.44300000  0.58380000  0.67524000  1.0 0.1707661069
C  C401  1  0.47730000  0.61040000  0.67498000  1.0 -0.1010664278
C  C402  1  0.46758000  0.65971000  0.67375000  1.0 0.0880222822
C  C403  1  0.47270000  0.68233000  0.63897000  1.0 -0.1615876326
C  C404  1  0.46450000  0.72736000  0.63735000  1.0 -0.1010664278
C  C405  1  0.45120000  0.74977000  0.67050000  1.0 -0.1057909651
C  C406  1  0.44600000  0.72715000  0.70527000  1.0 -0.0614358355
C  C407  1  0.45421000  0.68212000  0.70690000  1.0 -0.1475812037
C  C408  1  0.43240000  0.75280000  0.73880000  1.0 0.5824560701
C  C409  1  0.46950000  0.82510000  0.83470000  1.0 0.5604727157
C  C410  1  0.50720000  0.85190000  0.85161000  1.0 -0.0129701252
C  C411  1  0.51270000  0.89650000  0.84380000  1.0 -0.1180527514
C  C412  1  0.54360000  0.92080000  0.86450000  1.0 -0.1010664278
C  C413  1  0.56890000  0.90060000  0.89290000  1.0 -0.1396062596
C  C414  1  0.56340000  0.85600000  0.90074000  1.0 0.0880222822
C  C415  1  0.53250000  0.83160000  0.88008000  1.0 -0.1703210057
C  C416  1  0.54030000  0.85950000  0.98040000  1.0 -0.1885475228
C  C417  1  0.58240000  0.84460000  0.96720000  1.0 0.1781305403
C  C418  1  0.59530000  0.83730000  0.92930000  1.0 -0.0915842383
C  C419  1  0.63320000  0.81790000  0.91780000  1.0 0.1707661069
C  C420  1  0.64900000  0.81530000  0.87620000  1.0 -0.1396062596
C  C421  1  0.68630000  0.79340000  0.87730000  1.0 -0.1885475228
C  C422  1  0.69690000  0.78060000  0.91740000  1.0 0.2131371565
C  C423  1  0.73850000  0.76600000  0.92910000  1.0 -0.1010664278
C  C424  1  0.74930000  0.75690000  0.96750000  1.0 0.1781305403
C  C425  1  0.78980000  0.73550000  0.98080000  1.0 -0.1788973483
C  C426  1  0.34280000  0.79310000  0.82800000  1.0 0.5542791483
C  C427  1  0.29980000  0.79650000  0.85060000  1.0 -0.0030078569
C  C428  1  0.27250000  0.83250000  0.84380000  1.0 -0.1180527514
C  C429  1  0.23370000  0.83730000  0.86470000  1.0 -0.0915842383
C  C430  1  0.22220000  0.80630000  0.89260000  1.0 -0.1475812037
C  C431  1  0.24940000  0.77030000  0.89942000  1.0 0.0880222822
C  C432  1  0.28820000  0.76542000  0.87844000  1.0 -0.1615876326
C  C433  1  0.02160000  0.90220000  0.82461000  1.0 0.2010253912
C  C434  1  0.05970000  0.87190000  0.82290000  1.0 -0.1788973483
C  C435  1  0.09520000  0.89610000  0.82330000  1.0 -0.1885475228
C  C436  1  0.08380000  0.94300000  0.82476000  1.0 0.1707661069
C  C437  1  0.11040000  0.97730000  0.82502000  1.0 -0.1010664278
C  C438  1  0.15971000  0.96758000  0.82625000  1.0 0.0880222822
C  C439  1  0.18233000  0.97270000  0.86103000  1.0 -0.1615876326
C  C440  1  0.22736000  0.96450000  0.86265000  1.0 -0.1010664278
C  C441  1  0.24977000  0.95120000  0.82950000  1.0 -0.1057909651
C  C442  1  0.22715000  0.94600000  0.79473000  1.0 -0.0614358355
C  C443  1  0.18212000  0.95421000  0.79310000  1.0 -0.1475812037
C  C444  1  0.25280000  0.93240000  0.76120000  1.0 0.5824560701
C  C445  1  0.32510000  0.96950000  0.66530000  1.0 0.5604727157
C  C446  1  0.35190000  0.00720000  0.64839000  1.0 -0.0129701252
C  C447  1  0.39650000  0.01270000  0.65620000  1.0 -0.1180527514
C  C448  1  0.42080000  0.04360000  0.63550000  1.0 -0.1010664278
C  C449  1  0.40060000  0.06890000  0.60710000  1.0 -0.1396062596
C  C450  1  0.35600000  0.06340000  0.59926000  1.0 0.0880222822
C  C451  1  0.33160000  0.03250000  0.61992000  1.0 -0.1703210057
C  C452  1  0.35950000  0.04030000  0.51960000  1.0 -0.1885475228
C  C453  1  0.34460000  0.08240000  0.53280000  1.0 0.1781305403
C  C454  1  0.33730000  0.09530000  0.57070000  1.0 -0.0915842383
C  C455  1  0.31790000  0.13320000  0.58220000  1.0 0.1707661069
C  C456  1  0.31530000  0.14900000  0.62380000  1.0 -0.1396062596
C  C457  1  0.29340000  0.18630000  0.62270000  1.0 -0.1885475228
C  C458  1  0.28060000  0.19690000  0.58260000  1.0 0.2131371565
C  C459  1  0.26600000  0.23850000  0.57090000  1.0 -0.1010664278
C  C460  1  0.25690000  0.24930000  0.53250000  1.0 0.1781305403
C  C461  1  0.23550000  0.28980000  0.51920000  1.0 -0.1788973483
C  C462  1  0.29310000  0.84280000  0.67200000  1.0 0.5542791483
C  C463  1  0.29650000  0.79980000  0.64940000  1.0 -0.0030078569
C  C464  1  0.33250000  0.77250000  0.65620000  1.0 -0.1180527514
C  C465  1  0.33730000  0.73370000  0.63530000  1.0 -0.0915842383
C  C466  1  0.30630000  0.72220000  0.60740000  1.0 -0.1475812037
C  C467  1  0.27030000  0.74940000  0.60058000  1.0 0.0880222822
C  C468  1  0.26542000  0.78820000  0.62156000  1.0 -0.1615876326
C  C469  1  0.97840000  0.09780000  0.82461000  1.0 0.2010253912
C  C470  1  0.94030000  0.12810000  0.82290000  1.0 -0.1788973483
C  C471  1  0.90480000  0.10390000  0.82330000  1.0 -0.1885475228
C  C472  1  0.91620000  0.05700000  0.82476000  1.0 0.1707661069
C  C473  1  0.88960000  0.02270000  0.82502000  1.0 -0.1010664278
C  C474  1  0.84029000  0.03242000  0.82625000  1.0 0.0880222822
C  C475  1  0.81767000  0.02730000  0.86103000  1.0 -0.1615876326
C  C476  1  0.77264000  0.03550000  0.86265000  1.0 -0.1010664278
C  C477  1  0.75023000  0.04880000  0.82950000  1.0 -0.1057909651
C  C478  1  0.77285000  0.05400000  0.79473000  1.0 -0.0614358355
C  C479  1  0.81788000  0.04579000  0.79310000  1.0 -0.1475812037
C  C480  1  0.74720000  0.06760000  0.76120000  1.0 0.5824560701
C  C481  1  0.67490000  0.03050000  0.66530000  1.0 0.5604727157
C  C482  1  0.64810000  0.99280000  0.64839000  1.0 -0.0129701252
C  C483  1  0.60350000  0.98730000  0.65620000  1.0 -0.1180527514
C  C484  1  0.57920000  0.95640000  0.63550000  1.0 -0.1010664278
C  C485  1  0.59940000  0.93110000  0.60710000  1.0 -0.1396062596
C  C486  1  0.64400000  0.93660000  0.59926000  1.0 0.0880222822
C  C487  1  0.66840000  0.96750000  0.61992000  1.0 -0.1703210057
C  C488  1  0.64050000  0.95970000  0.51960000  1.0 -0.1988179362
C  C489  1  0.65540000  0.91760000  0.53280000  1.0 0.1781305403
C  C490  1  0.66270000  0.90470000  0.57070000  1.0 -0.0915842383
C  C491  1  0.68210000  0.86680000  0.58220000  1.0 0.1707661069
C  C492  1  0.68470000  0.85100000  0.62380000  1.0 -0.1396062596
C  C493  1  0.70660000  0.81370000  0.62270000  1.0 -0.1885475228
C  C494  1  0.71940000  0.80310000  0.58260000  1.0 0.2131371565
C  C495  1  0.73400000  0.76150000  0.57090000  1.0 -0.1010664278
C  C496  1  0.74310000  0.75070000  0.53250000  1.0 0.1781305403
C  C497  1  0.76450000  0.71020000  0.51920000  1.0 -0.1788973483
C  C498  1  0.70690000  0.15720000  0.67200000  1.0 0.5604727157
C  C499  1  0.70350000  0.20020000  0.64940000  1.0 -0.0030078569
C  C500  1  0.66750000  0.22750000  0.65620000  1.0 -0.1180527514
C  C501  1  0.66270000  0.26630000  0.63530000  1.0 -0.0915842383
C  C502  1  0.69370000  0.27780000  0.60740000  1.0 -0.1475812037
C  C503  1  0.72970000  0.25060000  0.60058000  1.0 0.0880222822
C  C504  1  0.73458000  0.21180000  0.62156000  1.0 -0.1615876326
C  C505  1  0.90220000  0.97840000  0.82461000  1.0 0.2010253912
C  C506  1  0.87190000  0.94030000  0.82290000  1.0 -0.1788973483
C  C507  1  0.89610000  0.90480000  0.82330000  1.0 -0.1885475228
C  C508  1  0.94300000  0.91620000  0.82476000  1.0 0.1707661069
C  C509  1  0.97730000  0.88960000  0.82502000  1.0 -0.1010664278
C  C510  1  0.96758000  0.84029000  0.82625000  1.0 0.0880222822
C  C511  1  0.97270000  0.81767000  0.86103000  1.0 -0.1615876326
C  C512  1  0.96450000  0.77264000  0.86265000  1.0 -0.1010664278
C  C513  1  0.95120000  0.75023000  0.82950000  1.0 -0.1057909651
C  C514  1  0.94600000  0.77285000  0.79473000  1.0 -0.0614358355
C  C515  1  0.95421000  0.81788000  0.79310000  1.0 -0.1475812037
C  C516  1  0.93240000  0.74720000  0.76120000  1.0 0.5824560701
C  C517  1  0.96950000  0.67490000  0.66530000  1.0 0.5604727157
C  C518  1  0.00720000  0.64810000  0.64839000  1.0 -0.0129701252
C  C519  1  0.01270000  0.60350000  0.65620000  1.0 -0.1180527514
C  C520  1  0.04360000  0.57920000  0.63550000  1.0 -0.1010664278
C  C521  1  0.06890000  0.59940000  0.60710000  1.0 -0.1396062596
C  C522  1  0.06340000  0.64400000  0.59926000  1.0 0.0880222822
C  C523  1  0.03250000  0.66840000  0.61992000  1.0 -0.1703210057
C  C524  1  0.04030000  0.64050000  0.51960000  1.0 -0.1988179362
C  C525  1  0.08240000  0.65540000  0.53280000  1.0 0.1781305403
C  C526  1  0.09530000  0.66270000  0.57070000  1.0 -0.0915842383
C  C527  1  0.13320000  0.68210000  0.58220000  1.0 0.1707661069
C  C528  1  0.14900000  0.68470000  0.62380000  1.0 -0.1396062596
C  C529  1  0.18630000  0.70660000  0.62270000  1.0 -0.1885475228
C  C530  1  0.19690000  0.71940000  0.58260000  1.0 0.2131371565
C  C531  1  0.23850000  0.73400000  0.57090000  1.0 -0.1010664278
C  C532  1  0.24930000  0.74310000  0.53250000  1.0 0.1781305403
C  C533  1  0.28980000  0.76450000  0.51920000  1.0 -0.1788973483
C  C534  1  0.84280000  0.70690000  0.67200000  1.0 0.5542791483
C  C535  1  0.79980000  0.70350000  0.64940000  1.0 -0.0030078569
C  C536  1  0.77250000  0.66750000  0.65620000  1.0 -0.1180527514
C  C537  1  0.73370000  0.66270000  0.63530000  1.0 -0.0915842383
C  C538  1  0.72220000  0.69370000  0.60740000  1.0 -0.1475812037
C  C539  1  0.74940000  0.72970000  0.60058000  1.0 0.0880222822
C  C540  1  0.78820000  0.73458000  0.62156000  1.0 -0.1615876326
C  C541  1  0.09780000  0.02160000  0.82461000  1.0 0.2010253912
C  C542  1  0.12810000  0.05970000  0.82290000  1.0 -0.1788973483
C  C543  1  0.10390000  0.09520000  0.82330000  1.0 -0.1885475228
C  C544  1  0.05700000  0.08380000  0.82476000  1.0 0.1707661069
C  C545  1  0.02270000  0.11040000  0.82502000  1.0 -0.1010664278
C  C546  1  0.03242000  0.15971000  0.82625000  1.0 0.0880222822
C  C547  1  0.02730000  0.18233000  0.86103000  1.0 -0.1615876326
C  C548  1  0.03550000  0.22736000  0.86265000  1.0 -0.1010664278
C  C549  1  0.04880000  0.24977000  0.82950000  1.0 -0.1057909651
C  C550  1  0.05400000  0.22715000  0.79473000  1.0 -0.0614358355
C  C551  1  0.04579000  0.18212000  0.79310000  1.0 -0.1475812037
C  C552  1  0.06760000  0.25280000  0.76120000  1.0 0.5824560701
C  C553  1  0.03050000  0.32510000  0.66530000  1.0 0.5604727157
C  C554  1  0.99280000  0.35190000  0.64839000  1.0 -0.0129701252
C  C555  1  0.98730000  0.39650000  0.65620000  1.0 -0.1180527514
C  C556  1  0.95640000  0.42080000  0.63550000  1.0 -0.1010664278
C  C557  1  0.93110000  0.40060000  0.60710000  1.0 -0.1396062596
C  C558  1  0.93660000  0.35600000  0.59926000  1.0 0.0880222822
C  C559  1  0.96750000  0.33160000  0.61992000  1.0 -0.1703210057
C  C560  1  0.95970000  0.35950000  0.51960000  1.0 -0.1885475228
C  C561  1  0.91760000  0.34460000  0.53280000  1.0 0.1781305403
C  C562  1  0.90470000  0.33730000  0.57070000  1.0 -0.0915842383
C  C563  1  0.86680000  0.31790000  0.58220000  1.0 0.1707661069
C  C564  1  0.85100000  0.31530000  0.62380000  1.0 -0.1396062596
C  C565  1  0.81370000  0.29340000  0.62270000  1.0 -0.1885475228
C  C566  1  0.80310000  0.28060000  0.58260000  1.0 0.2131371565
C  C567  1  0.76150000  0.26600000  0.57090000  1.0 -0.1010664278
C  C568  1  0.75070000  0.25690000  0.53250000  1.0 0.1781305403
C  C569  1  0.71020000  0.23550000  0.51920000  1.0 -0.1788973483
C  C570  1  0.15720000  0.29310000  0.67200000  1.0 0.5542791483
C  C571  1  0.20020000  0.29650000  0.64940000  1.0 -0.0030078569
C  C572  1  0.22750000  0.33250000  0.65620000  1.0 -0.1180527514
C  C573  1  0.26630000  0.33730000  0.63530000  1.0 -0.0915842383
C  C574  1  0.27780000  0.30630000  0.60740000  1.0 -0.1475812037
C  C575  1  0.25060000  0.27030000  0.60058000  1.0 0.0880222822
C  C576  1  0.21180000  0.26542000  0.62156000  1.0 -0.1615876326
C  C577  1  0.50000000  0.50000000  0.47780000  1.0 0.0085972801
C  C578  1  0.00000000  0.00000000  0.02220000  1.0 0.0085972801
C  C579  1  0.50000000  0.50000000  0.52220000  1.0 0.0085972801
C  C580  1  0.00000000  0.00000000  0.97780000  1.0 0.0085972801
C  C581  1  0.69920000  0.54510000  0.08310000  0.45 0.1099088044
C  C582  1  0.69800000  0.54730000  0.04280000  0.45 -0.1788973483
C  C583  1  0.73460000  0.56230000  0.02241000  0.45 0.1099088044
C  C584  1  0.77230000  0.57510000  0.04230000  0.45 -0.1988179362
C  C585  1  0.77350000  0.57290000  0.08260000  0.45 0.0651566118
C  C586  1  0.30080000  0.45490000  0.08310000  0.45 0.1099088044
C  C587  1  0.30200000  0.45270000  0.04280000  0.45 -0.1885475228
C  C588  1  0.26540000  0.43770000  0.02241000  0.45 0.1099088044
C  C589  1  0.22770000  0.42490000  0.04230000  0.45 -0.1988179362
C  C590  1  0.22650000  0.42710000  0.08260000  0.45 0.0644524872
C  C591  1  0.45490000  0.69920000  0.08310000  0.45 0.1099088044
C  C592  1  0.45270000  0.69800000  0.04280000  0.45 -0.1885475228
C  C593  1  0.43770000  0.73460000  0.02241000  0.45 0.1099088044
C  C594  1  0.42490000  0.77230000  0.04230000  0.45 -0.1988179362
C  C595  1  0.42710000  0.77350000  0.08260000  0.45 0.0651566118
C  C596  1  0.54510000  0.30080000  0.08310000  0.45 0.1099088044
C  C597  1  0.54730000  0.30200000  0.04280000  0.45 -0.1788973483
C  C598  1  0.56230000  0.26540000  0.02241000  0.45 0.1099088044
C  C599  1  0.57510000  0.22770000  0.04230000  0.45 -0.1988179362
C  C600  1  0.57290000  0.22650000  0.08260000  0.45 0.0651566118
C  C601  1  0.80080000  0.04510000  0.41690000  0.45 0.1099088044
C  C602  1  0.80200000  0.04730000  0.45720000  0.45 -0.1788973483
C  C603  1  0.76540000  0.06230000  0.47759000  0.45 0.1099088044
C  C604  1  0.72770000  0.07510000  0.45770000  0.45 -0.1988179362
C  C605  1  0.72650000  0.07290000  0.41740000  0.45 0.0644524872
C  C606  1  0.19920000  0.95490000  0.41690000  0.45 0.1099088044
C  C607  1  0.19800000  0.95270000  0.45720000  0.45 -0.1788973483
C  C608  1  0.23460000  0.93770000  0.47759000  0.45 0.1099088044
C  C609  1  0.27230000  0.92490000  0.45770000  0.45 -0.1988179362
C  C610  1  0.27350000  0.92710000  0.41740000  0.45 0.0644524872
C  C611  1  0.04510000  0.19920000  0.41690000  0.45 0.1099088044
C  C612  1  0.04730000  0.19800000  0.45720000  0.45 -0.1788973483
C  C613  1  0.06230000  0.23460000  0.47759000  0.45 0.1099088044
C  C614  1  0.07510000  0.27230000  0.45770000  0.45 -0.1988179362
C  C615  1  0.07290000  0.27350000  0.41740000  0.45 0.0644524872
C  C616  1  0.95490000  0.80080000  0.41690000  0.45 0.1099088044
C  C617  1  0.95270000  0.80200000  0.45720000  0.45 -0.1788973483
C  C618  1  0.93770000  0.76540000  0.47759000  0.45 0.1099088044
C  C619  1  0.92490000  0.72770000  0.45770000  0.45 -0.1988179362
C  C620  1  0.92710000  0.72650000  0.41740000  0.45 0.0644524872
C  C621  1  0.30080000  0.45490000  0.91690000  0.45 0.1099088044
C  C622  1  0.30200000  0.45270000  0.95720000  0.45 -0.1885475228
C  C623  1  0.26540000  0.43770000  0.97759000  0.45 0.1099088044
C  C624  1  0.22770000  0.42490000  0.95770000  0.45 -0.1988179362
C  C625  1  0.22650000  0.42710000  0.91740000  0.45 0.0644524872
C  C626  1  0.69920000  0.54510000  0.91690000  0.45 0.1099088044
C  C627  1  0.69800000  0.54730000  0.95720000  0.45 -0.1885475228
C  C628  1  0.73460000  0.56230000  0.97759000  0.45 0.1099088044
C  C629  1  0.77230000  0.57510000  0.95770000  0.45 -0.1988179362
C  C630  1  0.77350000  0.57290000  0.91740000  0.45 0.0644524872
C  C631  1  0.54510000  0.30080000  0.91690000  0.45 0.1099088044
C  C632  1  0.54730000  0.30200000  0.95720000  0.45 -0.1885475228
C  C633  1  0.56230000  0.26540000  0.97759000  0.45 0.1099088044
C  C634  1  0.57510000  0.22770000  0.95770000  0.45 -0.1988179362
C  C635  1  0.57290000  0.22650000  0.91740000  0.45 0.0644524872
C  C636  1  0.45490000  0.69920000  0.91690000  0.45 0.1099088044
C  C637  1  0.45270000  0.69800000  0.95720000  0.45 -0.1885475228
C  C638  1  0.43770000  0.73460000  0.97759000  0.45 0.1099088044
C  C639  1  0.42490000  0.77230000  0.95770000  0.45 -0.1988179362
C  C640  1  0.42710000  0.77350000  0.91740000  0.45 0.0644524872
C  C641  1  0.19920000  0.95490000  0.58310000  0.45 0.1099088044
C  C642  1  0.19800000  0.95270000  0.54280000  0.45 -0.1885475228
C  C643  1  0.23460000  0.93770000  0.52241000  0.45 0.1099088044
C  C644  1  0.27230000  0.92490000  0.54230000  0.45 -0.1988179362
C  C645  1  0.27350000  0.92710000  0.58260000  0.45 0.0644524872
C  C646  1  0.80080000  0.04510000  0.58310000  0.45 0.1099088044
C  C647  1  0.80200000  0.04730000  0.54280000  0.45 -0.1788973483
C  C648  1  0.76540000  0.06230000  0.52241000  0.45 0.1099088044
C  C649  1  0.72770000  0.07510000  0.54230000  0.45 -0.1988179362
C  C650  1  0.72650000  0.07290000  0.58260000  0.45 0.0644524872
C  C651  1  0.95490000  0.80080000  0.58310000  0.45 0.1099088044
C  C652  1  0.95270000  0.80200000  0.54280000  0.45 -0.1885475228
C  C653  1  0.93770000  0.76540000  0.52241000  0.45 0.1099088044
C  C654  1  0.92490000  0.72770000  0.54230000  0.45 -0.1988179362
C  C655  1  0.92710000  0.72650000  0.58260000  0.45 0.0651566118
C  C656  1  0.04510000  0.19920000  0.58310000  0.45 0.1099088044
C  C657  1  0.04730000  0.19800000  0.54280000  0.45 -0.1885475228
C  C658  1  0.06230000  0.23460000  0.52241000  0.45 0.1099088044
C  C659  1  0.07510000  0.27230000  0.54230000  0.45 -0.1988179362
C  C660  1  0.07290000  0.27350000  0.58260000  0.45 0.0644524872
C  C661  1  0.48590000  0.46750000  0.41670000  0.5 0.002767922
C  C662  1  0.48490000  0.46710000  0.45810000  0.5 -0.1057909651
C  C663  1  0.51410000  0.53250000  0.41670000  0.5 0.002767922
C  C664  1  0.51510000  0.53290000  0.45810000  0.5 -0.1057909651
C  C665  1  0.53250000  0.48590000  0.41670000  0.5 0.002767922
C  C666  1  0.53290000  0.48490000  0.45810000  0.5 -0.1057909651
C  C667  1  0.46750000  0.51410000  0.41670000  0.5 0.002767922
C  C668  1  0.46710000  0.51510000  0.45810000  0.5 -0.1057909651
C  C669  1  0.01410000  0.96750000  0.08330000  0.5 0.002767922
C  C670  1  0.01510000  0.96710000  0.04190000  0.5 -0.1057909651
C  C671  1  0.98590000  0.03250000  0.08330000  0.5 0.002767922
C  C672  1  0.98490000  0.03290000  0.04190000  0.5 -0.1057909651
C  C673  1  0.96750000  0.98590000  0.08330000  0.5 0.002767922
C  C674  1  0.96710000  0.98490000  0.04190000  0.5 -0.1057909651
C  C675  1  0.03250000  0.01410000  0.08330000  0.5 0.002767922
C  C676  1  0.03290000  0.01510000  0.04190000  0.5 -0.1057909651
C  C677  1  0.51410000  0.53250000  0.58330000  0.5 0.002767922
C  C678  1  0.51510000  0.53290000  0.54190000  0.5 -0.1057909651
C  C679  1  0.48590000  0.46750000  0.58330000  0.5 0.002767922
C  C680  1  0.48490000  0.46710000  0.54190000  0.5 -0.1057909651
C  C681  1  0.46750000  0.51410000  0.58330000  0.5 0.002767922
C  C682  1  0.46710000  0.51510000  0.54190000  0.5 -0.1057909651
C  C683  1  0.53250000  0.48590000  0.58330000  0.5 0.002767922
C  C684  1  0.53290000  0.48490000  0.54190000  0.5 -0.1057909651
C  C685  1  0.98590000  0.03250000  0.91670000  0.5 0.002767922
C  C686  1  0.98490000  0.03290000  0.95810000  0.5 -0.1057909651
C  C687  1  0.01410000  0.96750000  0.91670000  0.5 0.002767922
C  C688  1  0.01510000  0.96710000  0.95810000  0.5 -0.1057909651
C  C689  1  0.03250000  0.01410000  0.91670000  0.5 0.002767922
C  C690  1  0.03290000  0.01510000  0.95810000  0.5 -0.1057909651
C  C691  1  0.96750000  0.98590000  0.91670000  0.5 0.002767922
C  C692  1  0.96710000  0.98490000  0.95810000  0.5 -0.1057909651
N  N1  1  0.53695000  0.55596000  0.32523000  1.0 -0.3889960095
N  N2  1  0.79900000  0.33430000  0.05894000  1.0 -0.3521475241
N  N3  1  0.46305000  0.44404000  0.32523000  1.0 -0.3889960095
N  N4  1  0.20100000  0.66570000  0.05894000  1.0 -0.3521475241
N  N5  1  0.44404000  0.53695000  0.32523000  1.0 -0.3889960095
N  N6  1  0.66570000  0.79900000  0.05894000  1.0 -0.3521475241
N  N7  1  0.55596000  0.46305000  0.32523000  1.0 -0.3889960095
N  N8  1  0.33430000  0.20100000  0.05894000  1.0 -0.3521475241
N  N9  1  0.96305000  0.05596000  0.17477000  1.0 -0.3889960095
N  N10  1  0.70100000  0.83430000  0.44106000  1.0 -0.3521475241
N  N11  1  0.03695000  0.94404000  0.17477000  1.0 -0.3889960095
N  N12  1  0.29900000  0.16570000  0.44106000  1.0 -0.3521475241
N  N13  1  0.05596000  0.03695000  0.17477000  1.0 -0.3889960095
N  N14  1  0.83430000  0.29900000  0.44106000  1.0 -0.3521475241
N  N15  1  0.94404000  0.96305000  0.17477000  1.0 -0.3889960095
N  N16  1  0.16570000  0.70100000  0.44106000  1.0 -0.3521475241
N  N17  1  0.46305000  0.44404000  0.67477000  1.0 -0.3889960095
N  N18  1  0.20100000  0.66570000  0.94106000  1.0 -0.3521475241
N  N19  1  0.53695000  0.55596000  0.67477000  1.0 -0.3889960095
N  N20  1  0.79900000  0.33430000  0.94106000  1.0 -0.3521475241
N  N21  1  0.55596000  0.46305000  0.67477000  1.0 -0.3889960095
N  N22  1  0.33430000  0.20100000  0.94106000  1.0 -0.3521475241
N  N23  1  0.44404000  0.53695000  0.67477000  1.0 -0.3889960095
N  N24  1  0.66570000  0.79900000  0.94106000  1.0 -0.3521475241
N  N25  1  0.03695000  0.94404000  0.82523000  1.0 -0.3889960095
N  N26  1  0.29900000  0.16570000  0.55894000  1.0 -0.3521475241
N  N27  1  0.96305000  0.05596000  0.82523000  1.0 -0.3889960095
N  N28  1  0.70100000  0.83430000  0.55894000  1.0 -0.3521475241
N  N29  1  0.94404000  0.96305000  0.82523000  1.0 -0.3889960095
N  N30  1  0.16570000  0.70100000  0.55894000  1.0 -0.3521475241
N  N31  1  0.05596000  0.03695000  0.82523000  1.0 -0.3889960095
N  N32  1  0.83430000  0.29900000  0.55894000  1.0 -0.3521475241
N  N33  1  0.50000000  0.50000000  0.39790000  1.0 -0.0539258689
N  N34  1  0.00000000  0.00000000  0.10210000  1.0 -0.0614358355
N  N35  1  0.50000000  0.50000000  0.60210000  1.0 -0.0539258689
N  N36  1  0.00000000  0.00000000  0.89790000  1.0 -0.0539258689
N  N37  1  0.83020000  0.39450000  0.00000000  1.0 -0.3823160723
N  N38  1  0.77050000  0.27610000  0.00000000  1.0 -0.3724048965
N  N39  1  0.16980000  0.60550000  0.00000000  1.0 -0.3823160723
N  N40  1  0.22950000  0.72390000  0.00000000  1.0 -0.3724048965
N  N41  1  0.60550000  0.83020000  0.00000000  1.0 -0.3823160723
N  N42  1  0.72390000  0.77050000  0.00000000  1.0 -0.3724048965
N  N43  1  0.39450000  0.16980000  0.00000000  1.0 -0.3823160723
N  N44  1  0.27610000  0.22950000  0.00000000  1.0 -0.3724048965
N  N45  1  0.66980000  0.89450000  0.50000000  1.0 -0.3823160723
N  N46  1  0.72950000  0.77610000  0.50000000  1.0 -0.3724048965
N  N47  1  0.33020000  0.10550000  0.50000000  1.0 -0.3823160723
N  N48  1  0.27050000  0.22390000  0.50000000  1.0 -0.3724048965
N  N49  1  0.89450000  0.33020000  0.50000000  1.0 -0.3823160723
N  N50  1  0.77610000  0.27050000  0.50000000  1.0 -0.3724048965
N  N51  1  0.10550000  0.66980000  0.50000000  1.0 -0.3823160723
N  N52  1  0.22390000  0.72950000  0.50000000  1.0 -0.3724048965
N  N53  1  0.73690000  0.55790000  0.10296000  0.45 -0.1703210057
N  N54  1  0.26310000  0.44210000  0.10296000  0.45 -0.1703210057
N  N55  1  0.44210000  0.73690000  0.10296000  0.45 -0.1703210057
N  N56  1  0.55790000  0.26310000  0.10296000  0.45 -0.1703210057
N  N57  1  0.76310000  0.05790000  0.39704000  0.45 -0.1703210057
N  N58  1  0.23690000  0.94210000  0.39704000  0.45 -0.1703210057
N  N59  1  0.05790000  0.23690000  0.39704000  0.45 -0.1703210057
N  N60  1  0.94210000  0.76310000  0.39704000  0.45 -0.1703210057
N  N61  1  0.26310000  0.44210000  0.89704000  0.45 -0.1703210057
N  N62  1  0.73690000  0.55790000  0.89704000  0.45 -0.1703210057
N  N63  1  0.55790000  0.26310000  0.89704000  0.45 -0.1703210057
N  N64  1  0.44210000  0.73690000  0.89704000  0.45 -0.1703210057
N  N65  1  0.23690000  0.94210000  0.60296000  0.45 -0.1703210057
N  N66  1  0.76310000  0.05790000  0.60296000  0.45 -0.1703210057
N  N67  1  0.94210000  0.76310000  0.60296000  0.45 -0.1703210057
N  N68  1  0.05790000  0.23690000  0.60296000  0.45 -0.1703210057
O  O1  1  0.79029000  0.58230000  0.26605000  1.0 -0.5104494438
O  O2  1  0.73256000  0.56520000  0.22760000  1.0 -0.4880483251
O  O3  1  0.84500000  0.55110000  0.19282000  1.0 -0.5104494438
O  O4  1  0.78670000  0.53390000  0.15890000  1.0 -0.4191778478
O  O5  1  0.81970000  0.65320000  0.19867000  1.0 -0.4829586863
O  O6  1  0.76420000  0.62960000  0.16041000  1.0 -0.4561678365
O  O7  1  0.67880000  0.58350000  0.15580000  1.0 -0.7111352538
O  O8  1  0.20971000  0.41770000  0.26605000  1.0 -0.5104494438
O  O9  1  0.26744000  0.43480000  0.22760000  1.0 -0.4880483251
O  O10  1  0.15500000  0.44890000  0.19282000  1.0 -0.5104494438
O  O11  1  0.21330000  0.46610000  0.15890000  1.0 -0.4191778478
O  O12  1  0.18030000  0.34680000  0.19867000  1.0 -0.4829586863
O  O13  1  0.23580000  0.37040000  0.16041000  1.0 -0.4561678365
O  O14  1  0.32120000  0.41650000  0.15580000  1.0 -0.7111352538
O  O15  1  0.41770000  0.79029000  0.26605000  1.0 -0.5104494438
O  O16  1  0.43480000  0.73256000  0.22760000  1.0 -0.4880483251
O  O17  1  0.44890000  0.84500000  0.19282000  1.0 -0.5104494438
O  O18  1  0.46610000  0.78670000  0.15890000  1.0 -0.4191778478
O  O19  1  0.34680000  0.81970000  0.19867000  1.0 -0.4829586863
O  O20  1  0.37040000  0.76420000  0.16041000  1.0 -0.4561678365
O  O21  1  0.41650000  0.67880000  0.15580000  1.0 -0.7111352538
O  O22  1  0.58230000  0.20971000  0.26605000  1.0 -0.5104494438
O  O23  1  0.56520000  0.26744000  0.22760000  1.0 -0.4880483251
O  O24  1  0.55110000  0.15500000  0.19282000  1.0 -0.5104494438
O  O25  1  0.53390000  0.21330000  0.15890000  1.0 -0.4191778478
O  O26  1  0.65320000  0.18030000  0.19867000  1.0 -0.4829586863
O  O27  1  0.62960000  0.23580000  0.16041000  1.0 -0.4561678365
O  O28  1  0.58350000  0.32120000  0.15580000  1.0 -0.7166790471
O  O29  1  0.70971000  0.08230000  0.23395000  1.0 -0.5104494438
O  O30  1  0.76744000  0.06520000  0.27240000  1.0 -0.4880483251
O  O31  1  0.65500000  0.05110000  0.30718000  1.0 -0.5104494438
O  O32  1  0.71330000  0.03390000  0.34110000  1.0 -0.4191778478
O  O33  1  0.68030000  0.15320000  0.30133000  1.0 -0.4829586863
O  O34  1  0.73580000  0.12960000  0.33959000  1.0 -0.4546131835
O  O35  1  0.82120000  0.08350000  0.34420000  1.0 -0.7166790471
O  O36  1  0.29029000  0.91770000  0.23395000  1.0 -0.5104494438
O  O37  1  0.23256000  0.93480000  0.27240000  1.0 -0.4880483251
O  O38  1  0.34500000  0.94890000  0.30718000  1.0 -0.5104494438
O  O39  1  0.28670000  0.96610000  0.34110000  1.0 -0.4191778478
O  O40  1  0.31970000  0.84680000  0.30133000  1.0 -0.4829586863
O  O41  1  0.26420000  0.87040000  0.33959000  1.0 -0.4561678365
O  O42  1  0.17880000  0.91650000  0.34420000  1.0 -0.7166790471
O  O43  1  0.08230000  0.29029000  0.23395000  1.0 -0.5104494438
O  O44  1  0.06520000  0.23256000  0.27240000  1.0 -0.4880483251
O  O45  1  0.05110000  0.34500000  0.30718000  1.0 -0.5104494438
O  O46  1  0.03390000  0.28670000  0.34110000  1.0 -0.4191778478
O  O47  1  0.15320000  0.31970000  0.30133000  1.0 -0.4829586863
O  O48  1  0.12960000  0.26420000  0.33959000  1.0 -0.4561678365
O  O49  1  0.08350000  0.17880000  0.34420000  1.0 -0.7166790471
O  O50  1  0.91770000  0.70971000  0.23395000  1.0 -0.5104494438
O  O51  1  0.93480000  0.76744000  0.27240000  1.0 -0.4880483251
O  O52  1  0.94890000  0.65500000  0.30718000  1.0 -0.5104494438
O  O53  1  0.96610000  0.71330000  0.34110000  1.0 -0.4191778478
O  O54  1  0.84680000  0.68030000  0.30133000  1.0 -0.4829586863
O  O55  1  0.87040000  0.73580000  0.33959000  1.0 -0.4561678365
O  O56  1  0.91650000  0.82120000  0.34420000  1.0 -0.7166790471
O  O57  1  0.20971000  0.41770000  0.73395000  1.0 -0.5104494438
O  O58  1  0.26744000  0.43480000  0.77240000  1.0 -0.4880483251
O  O59  1  0.15500000  0.44890000  0.80718000  1.0 -0.5104494438
O  O60  1  0.21330000  0.46610000  0.84110000  1.0 -0.4191778478
O  O61  1  0.18030000  0.34680000  0.80133000  1.0 -0.4829586863
O  O62  1  0.23580000  0.37040000  0.83959000  1.0 -0.4561678365
O  O63  1  0.32120000  0.41650000  0.84420000  1.0 -0.7111352538
O  O64  1  0.79029000  0.58230000  0.73395000  1.0 -0.5104494438
O  O65  1  0.73256000  0.56520000  0.77240000  1.0 -0.4880483251
O  O66  1  0.84500000  0.55110000  0.80718000  1.0 -0.5104494438
O  O67  1  0.78670000  0.53390000  0.84110000  1.0 -0.4191778478
O  O68  1  0.81970000  0.65320000  0.80133000  1.0 -0.4829586863
O  O69  1  0.76420000  0.62960000  0.83959000  1.0 -0.4561678365
O  O70  1  0.67880000  0.58350000  0.84420000  1.0 -0.7111352538
O  O71  1  0.58230000  0.20971000  0.73395000  1.0 -0.5104494438
O  O72  1  0.56520000  0.26744000  0.77240000  1.0 -0.4880483251
O  O73  1  0.55110000  0.15500000  0.80718000  1.0 -0.5104494438
O  O74  1  0.53390000  0.21330000  0.84110000  1.0 -0.4191778478
O  O75  1  0.65320000  0.18030000  0.80133000  1.0 -0.4829586863
O  O76  1  0.62960000  0.23580000  0.83959000  1.0 -0.4561678365
O  O77  1  0.58350000  0.32120000  0.84420000  1.0 -0.7111352538
O  O78  1  0.41770000  0.79029000  0.73395000  1.0 -0.5104494438
O  O79  1  0.43480000  0.73256000  0.77240000  1.0 -0.4880483251
O  O80  1  0.44890000  0.84500000  0.80718000  1.0 -0.5104494438
O  O81  1  0.46610000  0.78670000  0.84110000  1.0 -0.4191778478
O  O82  1  0.34680000  0.81970000  0.80133000  1.0 -0.4829586863
O  O83  1  0.37040000  0.76420000  0.83959000  1.0 -0.4561678365
O  O84  1  0.41650000  0.67880000  0.84420000  1.0 -0.7111352538
O  O85  1  0.29029000  0.91770000  0.76605000  1.0 -0.5104494438
O  O86  1  0.23256000  0.93480000  0.72760000  1.0 -0.4880483251
O  O87  1  0.34500000  0.94890000  0.69282000  1.0 -0.5104494438
O  O88  1  0.28670000  0.96610000  0.65890000  1.0 -0.4191778478
O  O89  1  0.31970000  0.84680000  0.69867000  1.0 -0.4829586863
O  O90  1  0.26420000  0.87040000  0.66041000  1.0 -0.4561678365
O  O91  1  0.17880000  0.91650000  0.65580000  1.0 -0.7111352538
O  O92  1  0.70971000  0.08230000  0.76605000  1.0 -0.5104494438
O  O93  1  0.76744000  0.06520000  0.72760000  1.0 -0.4880483251
O  O94  1  0.65500000  0.05110000  0.69282000  1.0 -0.5104494438
O  O95  1  0.71330000  0.03390000  0.65890000  1.0 -0.4191778478
O  O96  1  0.68030000  0.15320000  0.69867000  1.0 -0.4829586863
O  O97  1  0.73580000  0.12960000  0.66041000  1.0 -0.4546131835
O  O98  1  0.82120000  0.08350000  0.65580000  1.0 -0.7111352538
O  O99  1  0.91770000  0.70971000  0.76605000  1.0 -0.5104494438
O  O100  1  0.93480000  0.76744000  0.72760000  1.0 -0.4880483251
O  O101  1  0.94890000  0.65500000  0.69282000  1.0 -0.5104494438
O  O102  1  0.96610000  0.71330000  0.65890000  1.0 -0.4191778478
O  O103  1  0.84680000  0.68030000  0.69867000  1.0 -0.4829586863
O  O104  1  0.87040000  0.73580000  0.66041000  1.0 -0.4561678365
O  O105  1  0.91650000  0.82120000  0.65580000  1.0 -0.7111352538
O  O106  1  0.08230000  0.29029000  0.76605000  1.0 -0.5104494438
O  O107  1  0.06520000  0.23256000  0.72760000  1.0 -0.4880483251
O  O108  1  0.05110000  0.34500000  0.69282000  1.0 -0.5104494438
O  O109  1  0.03390000  0.28670000  0.65890000  1.0 -0.4191778478
O  O110  1  0.15320000  0.31970000  0.69867000  1.0 -0.4829586863
O  O111  1  0.12960000  0.26420000  0.66041000  1.0 -0.4561678365
O  O112  1  0.08350000  0.17880000  0.65580000  1.0 -0.7111352538
O  O113  1  0.88752000  0.61248000  0.25000000  1.0 -0.8415205225
O  O114  1  0.11248000  0.38752000  0.25000000  1.0 -0.8415205225
O  O115  1  0.38752000  0.88752000  0.25000000  1.0 -0.8415205225
O  O116  1  0.61248000  0.11248000  0.25000000  1.0 -0.8415205225
O  O117  1  0.11248000  0.38752000  0.75000000  1.0 -0.8415205225
O  O118  1  0.88752000  0.61248000  0.75000000  1.0 -0.8415205225
O  O119  1  0.61248000  0.11248000  0.75000000  1.0 -0.8415205225
O  O120  1  0.38752000  0.88752000  0.75000000  1.0 -0.8415205225
