# DDEC6 charges by PACMAN v1.1 (https://github.com/mtap-research/PACMAN-charge/)
data_d3sc04119k2_3_FSR_pacman
_symmetry_space_group_name_H-M   'P 1'
_cell_length_a   20.11670000
_cell_length_b   20.11670000
_cell_length_c   20.11670000
_cell_angle_alpha   90.00000000
_cell_angle_beta   90.00000000
_cell_angle_gamma   90.00000000
_symmetry_Int_Tables_number   1
_chemical_formula_structural   Zn32H64.0128C124.0248N64.0128O72.0128
_chemical_formula_sum   'Zn32 H64.0128 C124.0248 N64.0128 O72.0128'
_cell_volume   8140.85872272
_cell_formula_units_Z   1
loop_
 _symmetry_equiv_pos_site_id
 _symmetry_equiv_pos_as_xyz
  1  'x, y, z'
loop_
 _atom_site_type_symbol
 _atom_site_label
 _atom_site_symmetry_multiplicity
 _atom_site_fract_x
 _atom_site_fract_y
 _atom_site_fract_z
 _atom_site_occupancy
 _atom_site_charge
Zn  Zn1  1  0.05611000  0.44389000  0.05611000  1.0 0.3262467769
Zn  Zn2  1  0.44389000  0.05611000  0.05611000  1.0 0.319620084
Zn  Zn3  1  0.44389000  0.44389000  0.44389000  1.0 0.2981683251
Zn  Zn4  1  0.05611000  0.05611000  0.44389000  1.0 0.3262467769
Zn  Zn5  1  0.44389000  0.05611000  0.44389000  1.0 0.3132704732
Zn  Zn6  1  0.05611000  0.44389000  0.44389000  1.0 0.319620084
Zn  Zn7  1  0.44389000  0.44389000  0.05611000  1.0 0.3132704732
Zn  Zn8  1  0.05611000  0.05611000  0.05611000  1.0 0.3262467769
Zn  Zn9  1  0.05611000  0.94389000  0.55611000  1.0 0.3262467769
Zn  Zn10  1  0.44389000  0.55611000  0.55611000  1.0 0.2981683251
Zn  Zn11  1  0.44389000  0.94389000  0.94389000  1.0 0.3262467769
Zn  Zn12  1  0.05611000  0.55611000  0.94389000  1.0 0.3262467769
Zn  Zn13  1  0.44389000  0.55611000  0.94389000  1.0 0.319620084
Zn  Zn14  1  0.05611000  0.94389000  0.94389000  1.0 0.3262467769
Zn  Zn15  1  0.44389000  0.94389000  0.55611000  1.0 0.319620084
Zn  Zn16  1  0.05611000  0.55611000  0.55611000  1.0 0.319620084
Zn  Zn17  1  0.55611000  0.44389000  0.55611000  1.0 0.2981683251
Zn  Zn18  1  0.94389000  0.05611000  0.55611000  1.0 0.319620084
Zn  Zn19  1  0.94389000  0.44389000  0.94389000  1.0 0.319620084
Zn  Zn20  1  0.55611000  0.05611000  0.94389000  1.0 0.319620084
Zn  Zn21  1  0.94389000  0.05611000  0.94389000  1.0 0.319620084
Zn  Zn22  1  0.55611000  0.44389000  0.94389000  1.0 0.319620084
Zn  Zn23  1  0.94389000  0.44389000  0.55611000  1.0 0.3132704732
Zn  Zn24  1  0.55611000  0.05611000  0.55611000  1.0 0.3132704732
Zn  Zn25  1  0.55611000  0.94389000  0.05611000  1.0 0.3262467769
Zn  Zn26  1  0.94389000  0.55611000  0.05611000  1.0 0.319620084
Zn  Zn27  1  0.94389000  0.94389000  0.44389000  1.0 0.3262467769
Zn  Zn28  1  0.55611000  0.55611000  0.44389000  1.0 0.2981683251
Zn  Zn29  1  0.94389000  0.55611000  0.44389000  1.0 0.3132704732
Zn  Zn30  1  0.55611000  0.94389000  0.44389000  1.0 0.319620084
Zn  Zn31  1  0.94389000  0.94389000  0.05611000  1.0 0.3262467769
Zn  Zn32  1  0.55611000  0.55611000  0.05611000  1.0 0.3132704732
H  H1  1  0.92494000  0.22584000  0.94370000  0.1667 0.0228609302
H  H2  1  0.57506000  0.27416000  0.94370000  0.1667 0.0228609302
H  H3  1  0.57506000  0.22584000  0.55630000  0.1667 0.0282690077
H  H4  1  0.92494000  0.27416000  0.55630000  0.1667 0.0228609302
H  H5  1  0.94370000  0.92494000  0.22584000  0.1667 0.0228609302
H  H6  1  0.94370000  0.57506000  0.27416000  0.1667 0.0228609302
H  H7  1  0.55630000  0.57506000  0.22584000  0.1667 0.0228609302
H  H8  1  0.55630000  0.92494000  0.27416000  0.1667 0.0228609302
H  H9  1  0.22584000  0.94370000  0.92494000  0.1667 0.0228609302
H  H10  1  0.27416000  0.94370000  0.57506000  0.1667 0.0228609302
H  H11  1  0.22584000  0.55630000  0.57506000  0.1667 0.0282690077
H  H12  1  0.27416000  0.55630000  0.92494000  0.1667 0.0228609302
H  H13  1  0.22584000  0.92494000  0.55630000  0.1667 0.0228609302
H  H14  1  0.27416000  0.57506000  0.55630000  0.1667 0.0282690077
H  H15  1  0.22584000  0.57506000  0.94370000  0.1667 0.0228609302
H  H16  1  0.27416000  0.92494000  0.94370000  0.1667 0.0228609302
H  H17  1  0.92494000  0.94370000  0.27416000  0.1667 0.0228609302
H  H18  1  0.57506000  0.94370000  0.22584000  0.1667 0.0228609302
H  H19  1  0.57506000  0.55630000  0.27416000  0.1667 0.0282690077
H  H20  1  0.92494000  0.55630000  0.22584000  0.1667 0.0228609302
H  H21  1  0.94370000  0.22584000  0.57506000  0.1667 0.0228609302
H  H22  1  0.94370000  0.27416000  0.92494000  0.1667 0.0228609302
H  H23  1  0.55630000  0.22584000  0.92494000  0.1667 0.0228609302
H  H24  1  0.55630000  0.27416000  0.57506000  0.1667 0.0282690077
H  H25  1  0.92494000  0.72584000  0.44370000  0.1667 0.0228609302
H  H26  1  0.57506000  0.77416000  0.44370000  0.1667 0.0282690077
H  H27  1  0.57506000  0.72584000  0.05630000  0.1667 0.0228609302
H  H28  1  0.92494000  0.77416000  0.05630000  0.1667 0.0228609302
H  H29  1  0.94370000  0.42494000  0.72584000  0.1667 0.0228609302
H  H30  1  0.94370000  0.07506000  0.77416000  0.1667 0.0228609302
H  H31  1  0.55630000  0.07506000  0.72584000  0.1667 0.0228609302
H  H32  1  0.55630000  0.42494000  0.77416000  0.1667 0.0282690077
H  H33  1  0.22584000  0.44370000  0.42494000  0.1667 0.0282690077
H  H34  1  0.27416000  0.44370000  0.07506000  0.1667 0.0228609302
H  H35  1  0.22584000  0.05630000  0.07506000  0.1667 0.0228609302
H  H36  1  0.27416000  0.05630000  0.42494000  0.1667 0.0228609302
H  H37  1  0.22584000  0.42494000  0.05630000  0.1667 0.0228609302
H  H38  1  0.27416000  0.07506000  0.05630000  0.1667 0.0228609302
H  H39  1  0.22584000  0.07506000  0.44370000  0.1667 0.0228609302
H  H40  1  0.27416000  0.42494000  0.44370000  0.1667 0.0282690077
H  H41  1  0.92494000  0.44370000  0.77416000  0.1667 0.0228609302
H  H42  1  0.57506000  0.44370000  0.72584000  0.1667 0.0282690077
H  H43  1  0.57506000  0.05630000  0.77416000  0.1667 0.0228609302
H  H44  1  0.92494000  0.05630000  0.72584000  0.1667 0.0228609302
H  H45  1  0.94370000  0.72584000  0.07506000  0.1667 0.0228609302
H  H46  1  0.94370000  0.77416000  0.42494000  0.1667 0.0228609302
H  H47  1  0.55630000  0.72584000  0.42494000  0.1667 0.0282690077
H  H48  1  0.55630000  0.77416000  0.07506000  0.1667 0.0228609302
H  H49  1  0.42494000  0.22584000  0.44370000  0.1667 0.0282690077
H  H50  1  0.07506000  0.27416000  0.44370000  0.1667 0.0228609302
H  H51  1  0.07506000  0.22584000  0.05630000  0.1667 0.0228609302
H  H52  1  0.42494000  0.27416000  0.05630000  0.1667 0.0228609302
H  H53  1  0.44370000  0.92494000  0.72584000  0.1667 0.0228609302
H  H54  1  0.44370000  0.57506000  0.77416000  0.1667 0.0282690077
H  H55  1  0.05630000  0.57506000  0.72584000  0.1667 0.0228609302
H  H56  1  0.05630000  0.92494000  0.77416000  0.1667 0.0228609302
H  H57  1  0.72584000  0.94370000  0.42494000  0.1667 0.0228609302
H  H58  1  0.77416000  0.94370000  0.07506000  0.1667 0.0228609302
H  H59  1  0.72584000  0.55630000  0.07506000  0.1667 0.0228609302
H  H60  1  0.77416000  0.55630000  0.42494000  0.1667 0.0282690077
H  H61  1  0.72584000  0.92494000  0.05630000  0.1667 0.0228609302
H  H62  1  0.77416000  0.57506000  0.05630000  0.1667 0.0228609302
H  H63  1  0.72584000  0.57506000  0.44370000  0.1667 0.0282690077
H  H64  1  0.77416000  0.92494000  0.44370000  0.1667 0.0228609302
H  H65  1  0.42494000  0.94370000  0.77416000  0.1667 0.0228609302
H  H66  1  0.07506000  0.94370000  0.72584000  0.1667 0.0228609302
H  H67  1  0.07506000  0.55630000  0.77416000  0.1667 0.0228609302
H  H68  1  0.42494000  0.55630000  0.72584000  0.1667 0.0282690077
H  H69  1  0.44370000  0.22584000  0.07506000  0.1667 0.0228609302
H  H70  1  0.44370000  0.27416000  0.42494000  0.1667 0.0282690077
H  H71  1  0.05630000  0.22584000  0.42494000  0.1667 0.0228609302
H  H72  1  0.05630000  0.27416000  0.07506000  0.1667 0.0228609302
H  H73  1  0.42494000  0.72584000  0.94370000  0.1667 0.0228609302
H  H74  1  0.07506000  0.77416000  0.94370000  0.1667 0.0228609302
H  H75  1  0.07506000  0.72584000  0.55630000  0.1667 0.0228609302
H  H76  1  0.42494000  0.77416000  0.55630000  0.1667 0.0282690077
H  H77  1  0.44370000  0.42494000  0.22584000  0.1667 0.0228609302
H  H78  1  0.44370000  0.07506000  0.27416000  0.1667 0.0228609302
H  H79  1  0.05630000  0.07506000  0.22584000  0.1667 0.0228609302
H  H80  1  0.05630000  0.42494000  0.27416000  0.1667 0.0228609302
H  H81  1  0.72584000  0.44370000  0.92494000  0.1667 0.0228609302
H  H82  1  0.77416000  0.44370000  0.57506000  0.1667 0.0282690077
H  H83  1  0.72584000  0.05630000  0.57506000  0.1667 0.0228609302
H  H84  1  0.77416000  0.05630000  0.92494000  0.1667 0.0228609302
H  H85  1  0.72584000  0.42494000  0.55630000  0.1667 0.0282690077
H  H86  1  0.77416000  0.07506000  0.55630000  0.1667 0.0228609302
H  H87  1  0.72584000  0.07506000  0.94370000  0.1667 0.0228609302
H  H88  1  0.77416000  0.42494000  0.94370000  0.1667 0.0228609302
H  H89  1  0.42494000  0.44370000  0.27416000  0.1667 0.0282690077
H  H90  1  0.07506000  0.44370000  0.22584000  0.1667 0.0228609302
H  H91  1  0.07506000  0.05630000  0.27416000  0.1667 0.0228609302
H  H92  1  0.42494000  0.05630000  0.22584000  0.1667 0.0228609302
H  H93  1  0.44370000  0.72584000  0.57506000  0.1667 0.0282690077
H  H94  1  0.44370000  0.77416000  0.92494000  0.1667 0.0228609302
H  H95  1  0.05630000  0.72584000  0.92494000  0.1667 0.0228609302
H  H96  1  0.05630000  0.77416000  0.57506000  0.1667 0.0228609302
H  H97  1  0.57506000  0.27416000  0.55630000  0.1667 0.0282690077
H  H98  1  0.92494000  0.22584000  0.55630000  0.1667 0.0228609302
H  H99  1  0.92494000  0.27416000  0.94370000  0.1667 0.0228609302
H  H100  1  0.57506000  0.22584000  0.94370000  0.1667 0.0228609302
H  H101  1  0.55630000  0.57506000  0.27416000  0.1667 0.0282690077
H  H102  1  0.55630000  0.92494000  0.22584000  0.1667 0.0228609302
H  H103  1  0.94370000  0.92494000  0.27416000  0.1667 0.0228609302
H  H104  1  0.94370000  0.57506000  0.22584000  0.1667 0.0228609302
H  H105  1  0.27416000  0.55630000  0.57506000  0.1667 0.0282690077
H  H106  1  0.22584000  0.55630000  0.92494000  0.1667 0.0228609302
H  H107  1  0.27416000  0.94370000  0.92494000  0.1667 0.0228609302
H  H108  1  0.22584000  0.94370000  0.57506000  0.1667 0.0228609302
H  H109  1  0.27416000  0.57506000  0.94370000  0.1667 0.0228609302
H  H110  1  0.22584000  0.92494000  0.94370000  0.1667 0.0228609302
H  H111  1  0.27416000  0.92494000  0.55630000  0.1667 0.0228609302
H  H112  1  0.22584000  0.57506000  0.55630000  0.1667 0.0282690077
H  H113  1  0.57506000  0.55630000  0.22584000  0.1667 0.0228609302
H  H114  1  0.92494000  0.55630000  0.27416000  0.1667 0.0228609302
H  H115  1  0.92494000  0.94370000  0.22584000  0.1667 0.0228609302
H  H116  1  0.57506000  0.94370000  0.27416000  0.1667 0.0228609302
H  H117  1  0.55630000  0.27416000  0.92494000  0.1667 0.0228609302
H  H118  1  0.55630000  0.22584000  0.57506000  0.1667 0.0282690077
H  H119  1  0.94370000  0.27416000  0.57506000  0.1667 0.0228609302
H  H120  1  0.94370000  0.22584000  0.92494000  0.1667 0.0228609302
H  H121  1  0.57506000  0.77416000  0.05630000  0.1667 0.0228609302
H  H122  1  0.92494000  0.72584000  0.05630000  0.1667 0.0228609302
H  H123  1  0.92494000  0.77416000  0.44370000  0.1667 0.0228609302
H  H124  1  0.57506000  0.72584000  0.44370000  0.1667 0.0282690077
H  H125  1  0.55630000  0.07506000  0.77416000  0.1667 0.0228609302
H  H126  1  0.55630000  0.42494000  0.72584000  0.1667 0.0282690077
H  H127  1  0.94370000  0.42494000  0.77416000  0.1667 0.0228609302
H  H128  1  0.94370000  0.07506000  0.72584000  0.1667 0.0228609302
H  H129  1  0.27416000  0.05630000  0.07506000  0.1667 0.0228609302
H  H130  1  0.22584000  0.05630000  0.42494000  0.1667 0.0228609302
H  H131  1  0.27416000  0.44370000  0.42494000  0.1667 0.0282690077
H  H132  1  0.22584000  0.44370000  0.07506000  0.1667 0.0228609302
H  H133  1  0.27416000  0.07506000  0.44370000  0.1667 0.0228609302
H  H134  1  0.22584000  0.42494000  0.44370000  0.1667 0.0282690077
H  H135  1  0.27416000  0.42494000  0.05630000  0.1667 0.0228609302
H  H136  1  0.22584000  0.07506000  0.05630000  0.1667 0.0228609302
H  H137  1  0.57506000  0.05630000  0.72584000  0.1667 0.0228609302
H  H138  1  0.92494000  0.05630000  0.77416000  0.1667 0.0228609302
H  H139  1  0.92494000  0.44370000  0.72584000  0.1667 0.0228609302
H  H140  1  0.57506000  0.44370000  0.77416000  0.1667 0.0282690077
H  H141  1  0.55630000  0.77416000  0.42494000  0.1667 0.0282690077
H  H142  1  0.55630000  0.72584000  0.07506000  0.1667 0.0228609302
H  H143  1  0.94370000  0.77416000  0.07506000  0.1667 0.0228609302
H  H144  1  0.94370000  0.72584000  0.42494000  0.1667 0.0228609302
H  H145  1  0.07506000  0.27416000  0.05630000  0.1667 0.0228609302
H  H146  1  0.42494000  0.22584000  0.05630000  0.1667 0.0228609302
H  H147  1  0.42494000  0.27416000  0.44370000  0.1667 0.0282690077
H  H148  1  0.07506000  0.22584000  0.44370000  0.1667 0.0228609302
H  H149  1  0.05630000  0.57506000  0.77416000  0.1667 0.0228609302
H  H150  1  0.05630000  0.92494000  0.72584000  0.1667 0.0228609302
H  H151  1  0.44370000  0.92494000  0.77416000  0.1667 0.0228609302
H  H152  1  0.44370000  0.57506000  0.72584000  0.1667 0.0282690077
H  H153  1  0.77416000  0.55630000  0.07506000  0.1667 0.0228609302
H  H154  1  0.72584000  0.55630000  0.42494000  0.1667 0.0282690077
H  H155  1  0.77416000  0.94370000  0.42494000  0.1667 0.0228609302
H  H156  1  0.72584000  0.94370000  0.07506000  0.1667 0.0228609302
H  H157  1  0.77416000  0.57506000  0.44370000  0.1667 0.0282690077
H  H158  1  0.72584000  0.92494000  0.44370000  0.1667 0.0228609302
H  H159  1  0.77416000  0.92494000  0.05630000  0.1667 0.0228609302
H  H160  1  0.72584000  0.57506000  0.05630000  0.1667 0.0228609302
H  H161  1  0.07506000  0.55630000  0.72584000  0.1667 0.0228609302
H  H162  1  0.42494000  0.55630000  0.77416000  0.1667 0.0282690077
H  H163  1  0.42494000  0.94370000  0.72584000  0.1667 0.0228609302
H  H164  1  0.07506000  0.94370000  0.77416000  0.1667 0.0228609302
H  H165  1  0.05630000  0.27416000  0.42494000  0.1667 0.0228609302
H  H166  1  0.05630000  0.22584000  0.07506000  0.1667 0.0228609302
H  H167  1  0.44370000  0.27416000  0.07506000  0.1667 0.0228609302
H  H168  1  0.44370000  0.22584000  0.42494000  0.1667 0.0282690077
H  H169  1  0.07506000  0.77416000  0.55630000  0.1667 0.0228609302
H  H170  1  0.42494000  0.72584000  0.55630000  0.1667 0.0282690077
H  H171  1  0.42494000  0.77416000  0.94370000  0.1667 0.0228609302
H  H172  1  0.07506000  0.72584000  0.94370000  0.1667 0.0228609302
H  H173  1  0.05630000  0.07506000  0.27416000  0.1667 0.0228609302
H  H174  1  0.05630000  0.42494000  0.22584000  0.1667 0.0228609302
H  H175  1  0.44370000  0.42494000  0.27416000  0.1667 0.0282690077
H  H176  1  0.44370000  0.07506000  0.22584000  0.1667 0.0228609302
H  H177  1  0.77416000  0.05630000  0.57506000  0.1667 0.0228609302
H  H178  1  0.72584000  0.05630000  0.92494000  0.1667 0.0228609302
H  H179  1  0.77416000  0.44370000  0.92494000  0.1667 0.0228609302
H  H180  1  0.72584000  0.44370000  0.57506000  0.1667 0.0282690077
H  H181  1  0.77416000  0.07506000  0.94370000  0.1667 0.0228609302
H  H182  1  0.72584000  0.42494000  0.94370000  0.1667 0.0228609302
H  H183  1  0.77416000  0.42494000  0.55630000  0.1667 0.0282690077
H  H184  1  0.72584000  0.07506000  0.55630000  0.1667 0.0228609302
H  H185  1  0.07506000  0.05630000  0.22584000  0.1667 0.0228609302
H  H186  1  0.42494000  0.05630000  0.27416000  0.1667 0.0228609302
H  H187  1  0.42494000  0.44370000  0.22584000  0.1667 0.0228609302
H  H188  1  0.07506000  0.44370000  0.27416000  0.1667 0.0228609302
H  H189  1  0.05630000  0.77416000  0.92494000  0.1667 0.0228609302
H  H190  1  0.05630000  0.72584000  0.57506000  0.1667 0.0228609302
H  H191  1  0.44370000  0.77416000  0.57506000  0.1667 0.0282690077
H  H192  1  0.44370000  0.72584000  0.92494000  0.1667 0.0228609302
H  H193  1  0.08517000  0.22331000  0.07000000  0.1667 0.0077072105
H  H194  1  0.41483000  0.27669000  0.07000000  0.1667 0.0077072105
H  H195  1  0.41483000  0.22331000  0.43000000  0.1667 0.0077072105
H  H196  1  0.08517000  0.27669000  0.43000000  0.1667 0.0077072105
H  H197  1  0.07000000  0.08517000  0.22331000  0.1667 0.0077072105
H  H198  1  0.07000000  0.41483000  0.27669000  0.1667 0.0077072105
H  H199  1  0.43000000  0.41483000  0.22331000  0.1667 0.0077072105
H  H200  1  0.43000000  0.08517000  0.27669000  0.1667 0.0077072105
H  H201  1  0.22331000  0.07000000  0.08517000  0.1667 0.0077072105
H  H202  1  0.27669000  0.07000000  0.41483000  0.1667 0.0077072105
H  H203  1  0.22331000  0.43000000  0.41483000  0.1667 0.0077072105
H  H204  1  0.27669000  0.43000000  0.08517000  0.1667 0.0077072105
H  H205  1  0.22331000  0.08517000  0.43000000  0.1667 0.0077072105
H  H206  1  0.27669000  0.41483000  0.43000000  0.1667 0.0077072105
H  H207  1  0.22331000  0.41483000  0.07000000  0.1667 0.0077072105
H  H208  1  0.27669000  0.08517000  0.07000000  0.1667 0.0077072105
H  H209  1  0.08517000  0.07000000  0.27669000  0.1667 0.0077072105
H  H210  1  0.41483000  0.07000000  0.22331000  0.1667 0.0077072105
H  H211  1  0.41483000  0.43000000  0.27669000  0.1667 0.0077072105
H  H212  1  0.08517000  0.43000000  0.22331000  0.1667 0.0077072105
H  H213  1  0.07000000  0.22331000  0.41483000  0.1667 0.0077072105
H  H214  1  0.07000000  0.27669000  0.08517000  0.1667 0.0077072105
H  H215  1  0.43000000  0.22331000  0.08517000  0.1667 0.0077072105
H  H216  1  0.43000000  0.27669000  0.41483000  0.1667 0.0077072105
H  H217  1  0.08517000  0.72331000  0.57000000  0.1667 0.0077072105
H  H218  1  0.41483000  0.77669000  0.57000000  0.1667 0.0077072105
H  H219  1  0.41483000  0.72331000  0.93000000  0.1667 0.0077072105
H  H220  1  0.08517000  0.77669000  0.93000000  0.1667 0.0077072105
H  H221  1  0.07000000  0.58517000  0.72331000  0.1667 0.0077072105
H  H222  1  0.07000000  0.91483000  0.77669000  0.1667 0.0077072105
H  H223  1  0.43000000  0.91483000  0.72331000  0.1667 0.0077072105
H  H224  1  0.43000000  0.58517000  0.77669000  0.1667 0.0077072105
H  H225  1  0.22331000  0.57000000  0.58517000  0.1667 0.0077072105
H  H226  1  0.27669000  0.57000000  0.91483000  0.1667 0.0077072105
H  H227  1  0.22331000  0.93000000  0.91483000  0.1667 0.0077072105
H  H228  1  0.27669000  0.93000000  0.58517000  0.1667 0.0077072105
H  H229  1  0.22331000  0.58517000  0.93000000  0.1667 0.0077072105
H  H230  1  0.27669000  0.91483000  0.93000000  0.1667 0.0077072105
H  H231  1  0.22331000  0.91483000  0.57000000  0.1667 0.0077072105
H  H232  1  0.27669000  0.58517000  0.57000000  0.1667 0.0077072105
H  H233  1  0.08517000  0.57000000  0.77669000  0.1667 0.0077072105
H  H234  1  0.41483000  0.57000000  0.72331000  0.1667 0.0077072105
H  H235  1  0.41483000  0.93000000  0.77669000  0.1667 0.0077072105
H  H236  1  0.08517000  0.93000000  0.72331000  0.1667 0.0077072105
H  H237  1  0.07000000  0.72331000  0.91483000  0.1667 0.0077072105
H  H238  1  0.07000000  0.77669000  0.58517000  0.1667 0.0077072105
H  H239  1  0.43000000  0.72331000  0.58517000  0.1667 0.0077072105
H  H240  1  0.43000000  0.77669000  0.91483000  0.1667 0.0077072105
H  H241  1  0.58517000  0.22331000  0.57000000  0.1667 0.0077072105
H  H242  1  0.91483000  0.27669000  0.57000000  0.1667 0.0077072105
H  H243  1  0.91483000  0.22331000  0.93000000  0.1667 0.0077072105
H  H244  1  0.58517000  0.27669000  0.93000000  0.1667 0.0077072105
H  H245  1  0.57000000  0.08517000  0.72331000  0.1667 0.0077072105
H  H246  1  0.57000000  0.41483000  0.77669000  0.1667 0.0077072105
H  H247  1  0.93000000  0.41483000  0.72331000  0.1667 0.0077072105
H  H248  1  0.93000000  0.08517000  0.77669000  0.1667 0.0077072105
H  H249  1  0.72331000  0.07000000  0.58517000  0.1667 0.0077072105
H  H250  1  0.77669000  0.07000000  0.91483000  0.1667 0.0077072105
H  H251  1  0.72331000  0.43000000  0.91483000  0.1667 0.0077072105
H  H252  1  0.77669000  0.43000000  0.58517000  0.1667 0.0077072105
H  H253  1  0.72331000  0.08517000  0.93000000  0.1667 0.0077072105
H  H254  1  0.77669000  0.41483000  0.93000000  0.1667 0.0077072105
H  H255  1  0.72331000  0.41483000  0.57000000  0.1667 0.0077072105
H  H256  1  0.77669000  0.08517000  0.57000000  0.1667 0.0077072105
H  H257  1  0.58517000  0.07000000  0.77669000  0.1667 0.0077072105
H  H258  1  0.91483000  0.07000000  0.72331000  0.1667 0.0077072105
H  H259  1  0.91483000  0.43000000  0.77669000  0.1667 0.0077072105
H  H260  1  0.58517000  0.43000000  0.72331000  0.1667 0.0077072105
H  H261  1  0.57000000  0.22331000  0.91483000  0.1667 0.0077072105
H  H262  1  0.57000000  0.27669000  0.58517000  0.1667 0.0077072105
H  H263  1  0.93000000  0.22331000  0.58517000  0.1667 0.0077072105
H  H264  1  0.93000000  0.27669000  0.91483000  0.1667 0.0077072105
H  H265  1  0.58517000  0.72331000  0.07000000  0.1667 0.0077072105
H  H266  1  0.91483000  0.77669000  0.07000000  0.1667 0.0077072105
H  H267  1  0.91483000  0.72331000  0.43000000  0.1667 0.0077072105
H  H268  1  0.58517000  0.77669000  0.43000000  0.1667 0.0077072105
H  H269  1  0.57000000  0.58517000  0.22331000  0.1667 0.0077072105
H  H270  1  0.57000000  0.91483000  0.27669000  0.1667 0.0077072105
H  H271  1  0.93000000  0.91483000  0.22331000  0.1667 0.0077072105
H  H272  1  0.93000000  0.58517000  0.27669000  0.1667 0.0077072105
H  H273  1  0.72331000  0.57000000  0.08517000  0.1667 0.0077072105
H  H274  1  0.77669000  0.57000000  0.41483000  0.1667 0.0077072105
H  H275  1  0.72331000  0.93000000  0.41483000  0.1667 0.0077072105
H  H276  1  0.77669000  0.93000000  0.08517000  0.1667 0.0077072105
H  H277  1  0.72331000  0.58517000  0.43000000  0.1667 0.0077072105
H  H278  1  0.77669000  0.91483000  0.43000000  0.1667 0.0077072105
H  H279  1  0.72331000  0.91483000  0.07000000  0.1667 0.0077072105
H  H280  1  0.77669000  0.58517000  0.07000000  0.1667 0.0077072105
H  H281  1  0.58517000  0.57000000  0.27669000  0.1667 0.0077072105
H  H282  1  0.91483000  0.57000000  0.22331000  0.1667 0.0077072105
H  H283  1  0.91483000  0.93000000  0.27669000  0.1667 0.0077072105
H  H284  1  0.58517000  0.93000000  0.22331000  0.1667 0.0077072105
H  H285  1  0.57000000  0.72331000  0.41483000  0.1667 0.0077072105
H  H286  1  0.57000000  0.77669000  0.08517000  0.1667 0.0077072105
H  H287  1  0.93000000  0.72331000  0.08517000  0.1667 0.0077072105
H  H288  1  0.93000000  0.77669000  0.41483000  0.1667 0.0077072105
H  H289  1  0.41483000  0.27669000  0.43000000  0.1667 0.0077072105
H  H290  1  0.08517000  0.22331000  0.43000000  0.1667 0.0077072105
H  H291  1  0.08517000  0.27669000  0.07000000  0.1667 0.0077072105
H  H292  1  0.41483000  0.22331000  0.07000000  0.1667 0.0077072105
H  H293  1  0.43000000  0.41483000  0.27669000  0.1667 0.0077072105
H  H294  1  0.43000000  0.08517000  0.22331000  0.1667 0.0077072105
H  H295  1  0.07000000  0.08517000  0.27669000  0.1667 0.0077072105
H  H296  1  0.07000000  0.41483000  0.22331000  0.1667 0.0077072105
H  H297  1  0.27669000  0.43000000  0.41483000  0.1667 0.0077072105
H  H298  1  0.22331000  0.43000000  0.08517000  0.1667 0.0077072105
H  H299  1  0.27669000  0.07000000  0.08517000  0.1667 0.0077072105
H  H300  1  0.22331000  0.07000000  0.41483000  0.1667 0.0077072105
H  H301  1  0.27669000  0.41483000  0.07000000  0.1667 0.0077072105
H  H302  1  0.22331000  0.08517000  0.07000000  0.1667 0.0077072105
H  H303  1  0.27669000  0.08517000  0.43000000  0.1667 0.0077072105
H  H304  1  0.22331000  0.41483000  0.43000000  0.1667 0.0077072105
H  H305  1  0.41483000  0.43000000  0.22331000  0.1667 0.0077072105
H  H306  1  0.08517000  0.43000000  0.27669000  0.1667 0.0077072105
H  H307  1  0.08517000  0.07000000  0.22331000  0.1667 0.0077072105
H  H308  1  0.41483000  0.07000000  0.27669000  0.1667 0.0077072105
H  H309  1  0.43000000  0.27669000  0.08517000  0.1667 0.0077072105
H  H310  1  0.43000000  0.22331000  0.41483000  0.1667 0.0077072105
H  H311  1  0.07000000  0.27669000  0.41483000  0.1667 0.0077072105
H  H312  1  0.07000000  0.22331000  0.08517000  0.1667 0.0077072105
H  H313  1  0.41483000  0.77669000  0.93000000  0.1667 0.0077072105
H  H314  1  0.08517000  0.72331000  0.93000000  0.1667 0.0077072105
H  H315  1  0.08517000  0.77669000  0.57000000  0.1667 0.0077072105
H  H316  1  0.41483000  0.72331000  0.57000000  0.1667 0.0077072105
H  H317  1  0.43000000  0.91483000  0.77669000  0.1667 0.0077072105
H  H318  1  0.43000000  0.58517000  0.72331000  0.1667 0.0077072105
H  H319  1  0.07000000  0.58517000  0.77669000  0.1667 0.0077072105
H  H320  1  0.07000000  0.91483000  0.72331000  0.1667 0.0077072105
H  H321  1  0.27669000  0.93000000  0.91483000  0.1667 0.0077072105
H  H322  1  0.22331000  0.93000000  0.58517000  0.1667 0.0077072105
H  H323  1  0.27669000  0.57000000  0.58517000  0.1667 0.0077072105
H  H324  1  0.22331000  0.57000000  0.91483000  0.1667 0.0077072105
H  H325  1  0.27669000  0.91483000  0.57000000  0.1667 0.0077072105
H  H326  1  0.22331000  0.58517000  0.57000000  0.1667 0.0077072105
H  H327  1  0.27669000  0.58517000  0.93000000  0.1667 0.0077072105
H  H328  1  0.22331000  0.91483000  0.93000000  0.1667 0.0077072105
H  H329  1  0.41483000  0.93000000  0.72331000  0.1667 0.0077072105
H  H330  1  0.08517000  0.93000000  0.77669000  0.1667 0.0077072105
H  H331  1  0.08517000  0.57000000  0.72331000  0.1667 0.0077072105
H  H332  1  0.41483000  0.57000000  0.77669000  0.1667 0.0077072105
H  H333  1  0.43000000  0.77669000  0.58517000  0.1667 0.0077072105
H  H334  1  0.43000000  0.72331000  0.91483000  0.1667 0.0077072105
H  H335  1  0.07000000  0.77669000  0.91483000  0.1667 0.0077072105
H  H336  1  0.07000000  0.72331000  0.58517000  0.1667 0.0077072105
H  H337  1  0.91483000  0.27669000  0.93000000  0.1667 0.0077072105
H  H338  1  0.58517000  0.22331000  0.93000000  0.1667 0.0077072105
H  H339  1  0.58517000  0.27669000  0.57000000  0.1667 0.0077072105
H  H340  1  0.91483000  0.22331000  0.57000000  0.1667 0.0077072105
H  H341  1  0.93000000  0.41483000  0.77669000  0.1667 0.0077072105
H  H342  1  0.93000000  0.08517000  0.72331000  0.1667 0.0077072105
H  H343  1  0.57000000  0.08517000  0.77669000  0.1667 0.0077072105
H  H344  1  0.57000000  0.41483000  0.72331000  0.1667 0.0077072105
H  H345  1  0.77669000  0.43000000  0.91483000  0.1667 0.0077072105
H  H346  1  0.72331000  0.43000000  0.58517000  0.1667 0.0077072105
H  H347  1  0.77669000  0.07000000  0.58517000  0.1667 0.0077072105
H  H348  1  0.72331000  0.07000000  0.91483000  0.1667 0.0077072105
H  H349  1  0.77669000  0.41483000  0.57000000  0.1667 0.0077072105
H  H350  1  0.72331000  0.08517000  0.57000000  0.1667 0.0077072105
H  H351  1  0.77669000  0.08517000  0.93000000  0.1667 0.0077072105
H  H352  1  0.72331000  0.41483000  0.93000000  0.1667 0.0077072105
H  H353  1  0.91483000  0.43000000  0.72331000  0.1667 0.0077072105
H  H354  1  0.58517000  0.43000000  0.77669000  0.1667 0.0077072105
H  H355  1  0.58517000  0.07000000  0.72331000  0.1667 0.0077072105
H  H356  1  0.91483000  0.07000000  0.77669000  0.1667 0.0077072105
H  H357  1  0.93000000  0.27669000  0.58517000  0.1667 0.0077072105
H  H358  1  0.93000000  0.22331000  0.91483000  0.1667 0.0077072105
H  H359  1  0.57000000  0.27669000  0.91483000  0.1667 0.0077072105
H  H360  1  0.57000000  0.22331000  0.58517000  0.1667 0.0077072105
H  H361  1  0.91483000  0.77669000  0.43000000  0.1667 0.0077072105
H  H362  1  0.58517000  0.72331000  0.43000000  0.1667 0.0077072105
H  H363  1  0.58517000  0.77669000  0.07000000  0.1667 0.0077072105
H  H364  1  0.91483000  0.72331000  0.07000000  0.1667 0.0077072105
H  H365  1  0.93000000  0.91483000  0.27669000  0.1667 0.0077072105
H  H366  1  0.93000000  0.58517000  0.22331000  0.1667 0.0077072105
H  H367  1  0.57000000  0.58517000  0.27669000  0.1667 0.0077072105
H  H368  1  0.57000000  0.91483000  0.22331000  0.1667 0.0077072105
H  H369  1  0.77669000  0.93000000  0.41483000  0.1667 0.0077072105
H  H370  1  0.72331000  0.93000000  0.08517000  0.1667 0.0077072105
H  H371  1  0.77669000  0.57000000  0.08517000  0.1667 0.0077072105
H  H372  1  0.72331000  0.57000000  0.41483000  0.1667 0.0077072105
H  H373  1  0.77669000  0.91483000  0.07000000  0.1667 0.0077072105
H  H374  1  0.72331000  0.58517000  0.07000000  0.1667 0.0077072105
H  H375  1  0.77669000  0.58517000  0.43000000  0.1667 0.0077072105
H  H376  1  0.72331000  0.91483000  0.43000000  0.1667 0.0077072105
H  H377  1  0.91483000  0.93000000  0.22331000  0.1667 0.0077072105
H  H378  1  0.58517000  0.93000000  0.27669000  0.1667 0.0077072105
H  H379  1  0.58517000  0.57000000  0.22331000  0.1667 0.0077072105
H  H380  1  0.91483000  0.57000000  0.27669000  0.1667 0.0077072105
H  H381  1  0.93000000  0.77669000  0.08517000  0.1667 0.0077072105
H  H382  1  0.93000000  0.72331000  0.41483000  0.1667 0.0077072105
H  H383  1  0.57000000  0.77669000  0.41483000  0.1667 0.0077072105
H  H384  1  0.57000000  0.72331000  0.08517000  0.1667 0.0077072105
C  C1  1  0.95940000  0.21070000  0.97220000  0.1667 0.0621442233
C  C2  1  0.54060000  0.28930000  0.97220000  0.1667 0.0621442233
C  C3  1  0.54060000  0.21070000  0.52780000  0.1667 0.0460492608
C  C4  1  0.95940000  0.28930000  0.52780000  0.1667 0.0621442233
C  C5  1  0.97220000  0.95940000  0.21070000  0.1667 0.0621442233
C  C6  1  0.97220000  0.54060000  0.28930000  0.1667 0.0621442233
C  C7  1  0.52780000  0.54060000  0.21070000  0.1667 0.0460492608
C  C8  1  0.52780000  0.95940000  0.28930000  0.1667 0.0621442233
C  C9  1  0.21070000  0.97220000  0.95940000  0.1667 0.0621442233
C  C10  1  0.28930000  0.97220000  0.54060000  0.1667 0.0621442233
C  C11  1  0.21070000  0.52780000  0.54060000  0.1667 0.0460492608
C  C12  1  0.28930000  0.52780000  0.95940000  0.1667 0.0621442233
C  C13  1  0.21070000  0.95940000  0.52780000  0.1667 0.0621442233
C  C14  1  0.28930000  0.54060000  0.52780000  0.1667 0.0460492608
C  C15  1  0.21070000  0.54060000  0.97220000  0.1667 0.0621442233
C  C16  1  0.28930000  0.95940000  0.97220000  0.1667 0.0621442233
C  C17  1  0.95940000  0.97220000  0.28930000  0.1667 0.0621442233
C  C18  1  0.54060000  0.97220000  0.21070000  0.1667 0.0621442233
C  C19  1  0.54060000  0.52780000  0.28930000  0.1667 0.0460492608
C  C20  1  0.95940000  0.52780000  0.21070000  0.1667 0.0621442233
C  C21  1  0.97220000  0.21070000  0.54060000  0.1667 0.0621442233
C  C22  1  0.97220000  0.28930000  0.95940000  0.1667 0.0621442233
C  C23  1  0.52780000  0.21070000  0.95940000  0.1667 0.0621442233
C  C24  1  0.52780000  0.28930000  0.54060000  0.1667 0.0460492608
C  C25  1  0.95940000  0.71070000  0.47220000  0.1667 0.0621442233
C  C26  1  0.54060000  0.78930000  0.47220000  0.1667 0.0460492608
C  C27  1  0.54060000  0.71070000  0.02780000  0.1667 0.0621442233
C  C28  1  0.95940000  0.78930000  0.02780000  0.1667 0.0621442233
C  C29  1  0.97220000  0.45940000  0.71070000  0.1667 0.0621442233
C  C30  1  0.97220000  0.04060000  0.78930000  0.1667 0.0621442233
C  C31  1  0.52780000  0.04060000  0.71070000  0.1667 0.0621442233
C  C32  1  0.52780000  0.45940000  0.78930000  0.1667 0.0460492608
C  C33  1  0.21070000  0.47220000  0.45940000  0.1667 0.0460492608
C  C34  1  0.28930000  0.47220000  0.04060000  0.1667 0.0621442233
C  C35  1  0.21070000  0.02780000  0.04060000  0.1667 0.0621442233
C  C36  1  0.28930000  0.02780000  0.45940000  0.1667 0.0621442233
C  C37  1  0.21070000  0.45940000  0.02780000  0.1667 0.0621442233
C  C38  1  0.28930000  0.04060000  0.02780000  0.1667 0.0621442233
C  C39  1  0.21070000  0.04060000  0.47220000  0.1667 0.0621442233
C  C40  1  0.28930000  0.45940000  0.47220000  0.1667 0.0460492608
C  C41  1  0.95940000  0.47220000  0.78930000  0.1667 0.0621442233
C  C42  1  0.54060000  0.47220000  0.71070000  0.1667 0.0460492608
C  C43  1  0.54060000  0.02780000  0.78930000  0.1667 0.0621442233
C  C44  1  0.95940000  0.02780000  0.71070000  0.1667 0.0621442233
C  C45  1  0.97220000  0.71070000  0.04060000  0.1667 0.0621442233
C  C46  1  0.97220000  0.78930000  0.45940000  0.1667 0.0621442233
C  C47  1  0.52780000  0.71070000  0.45940000  0.1667 0.0460492608
C  C48  1  0.52780000  0.78930000  0.04060000  0.1667 0.0621442233
C  C49  1  0.45940000  0.21070000  0.47220000  0.1667 0.0460492608
C  C50  1  0.04060000  0.28930000  0.47220000  0.1667 0.0621442233
C  C51  1  0.04060000  0.21070000  0.02780000  0.1667 0.0621442233
C  C52  1  0.45940000  0.28930000  0.02780000  0.1667 0.0621442233
C  C53  1  0.47220000  0.95940000  0.71070000  0.1667 0.0621442233
C  C54  1  0.47220000  0.54060000  0.78930000  0.1667 0.0460492608
C  C55  1  0.02780000  0.54060000  0.71070000  0.1667 0.0621442233
C  C56  1  0.02780000  0.95940000  0.78930000  0.1667 0.0621442233
C  C57  1  0.71070000  0.97220000  0.45940000  0.1667 0.0621442233
C  C58  1  0.78930000  0.97220000  0.04060000  0.1667 0.0621442233
C  C59  1  0.71070000  0.52780000  0.04060000  0.1667 0.0621442233
C  C60  1  0.78930000  0.52780000  0.45940000  0.1667 0.0460492608
C  C61  1  0.71070000  0.95940000  0.02780000  0.1667 0.0621442233
C  C62  1  0.78930000  0.54060000  0.02780000  0.1667 0.0621442233
C  C63  1  0.71070000  0.54060000  0.47220000  0.1667 0.0460492608
C  C64  1  0.78930000  0.95940000  0.47220000  0.1667 0.0621442233
C  C65  1  0.45940000  0.97220000  0.78930000  0.1667 0.0621442233
C  C66  1  0.04060000  0.97220000  0.71070000  0.1667 0.0621442233
C  C67  1  0.04060000  0.52780000  0.78930000  0.1667 0.0621442233
C  C68  1  0.45940000  0.52780000  0.71070000  0.1667 0.0460492608
C  C69  1  0.47220000  0.21070000  0.04060000  0.1667 0.0621442233
C  C70  1  0.47220000  0.28930000  0.45940000  0.1667 0.0460492608
C  C71  1  0.02780000  0.21070000  0.45940000  0.1667 0.0621442233
C  C72  1  0.02780000  0.28930000  0.04060000  0.1667 0.0621442233
C  C73  1  0.45940000  0.71070000  0.97220000  0.1667 0.0621442233
C  C74  1  0.04060000  0.78930000  0.97220000  0.1667 0.0621442233
C  C75  1  0.04060000  0.71070000  0.52780000  0.1667 0.0621442233
C  C76  1  0.45940000  0.78930000  0.52780000  0.1667 0.0460492608
C  C77  1  0.47220000  0.45940000  0.21070000  0.1667 0.0460492608
C  C78  1  0.47220000  0.04060000  0.28930000  0.1667 0.0621442233
C  C79  1  0.02780000  0.04060000  0.21070000  0.1667 0.0621442233
C  C80  1  0.02780000  0.45940000  0.28930000  0.1667 0.0621442233
C  C81  1  0.71070000  0.47220000  0.95940000  0.1667 0.0621442233
C  C82  1  0.78930000  0.47220000  0.54060000  0.1667 0.0460492608
C  C83  1  0.71070000  0.02780000  0.54060000  0.1667 0.0621442233
C  C84  1  0.78930000  0.02780000  0.95940000  0.1667 0.0621442233
C  C85  1  0.71070000  0.45940000  0.52780000  0.1667 0.0460492608
C  C86  1  0.78930000  0.04060000  0.52780000  0.1667 0.0621442233
C  C87  1  0.71070000  0.04060000  0.97220000  0.1667 0.0621442233
C  C88  1  0.78930000  0.45940000  0.97220000  0.1667 0.0621442233
C  C89  1  0.45940000  0.47220000  0.28930000  0.1667 0.0460492608
C  C90  1  0.04060000  0.47220000  0.21070000  0.1667 0.0621442233
C  C91  1  0.04060000  0.02780000  0.28930000  0.1667 0.0621442233
C  C92  1  0.45940000  0.02780000  0.21070000  0.1667 0.0621442233
C  C93  1  0.47220000  0.71070000  0.54060000  0.1667 0.0460492608
C  C94  1  0.47220000  0.78930000  0.95940000  0.1667 0.0621442233
C  C95  1  0.02780000  0.71070000  0.95940000  0.1667 0.0621442233
C  C96  1  0.02780000  0.78930000  0.54060000  0.1667 0.0621442233
C  C97  1  0.54060000  0.28930000  0.52780000  0.1667 0.0460492608
C  C98  1  0.95940000  0.21070000  0.52780000  0.1667 0.0621442233
C  C99  1  0.95940000  0.28930000  0.97220000  0.1667 0.0621442233
C  C100  1  0.54060000  0.21070000  0.97220000  0.1667 0.0621442233
C  C101  1  0.52780000  0.54060000  0.28930000  0.1667 0.0460492608
C  C102  1  0.52780000  0.95940000  0.21070000  0.1667 0.0621442233
C  C103  1  0.97220000  0.95940000  0.28930000  0.1667 0.0621442233
C  C104  1  0.97220000  0.54060000  0.21070000  0.1667 0.0621442233
C  C105  1  0.28930000  0.52780000  0.54060000  0.1667 0.0460492608
C  C106  1  0.21070000  0.52780000  0.95940000  0.1667 0.0621442233
C  C107  1  0.28930000  0.97220000  0.95940000  0.1667 0.0621442233
C  C108  1  0.21070000  0.97220000  0.54060000  0.1667 0.0621442233
C  C109  1  0.28930000  0.54060000  0.97220000  0.1667 0.0621442233
C  C110  1  0.21070000  0.95940000  0.97220000  0.1667 0.0621442233
C  C111  1  0.28930000  0.95940000  0.52780000  0.1667 0.0621442233
C  C112  1  0.21070000  0.54060000  0.52780000  0.1667 0.0460492608
C  C113  1  0.54060000  0.52780000  0.21070000  0.1667 0.0460492608
C  C114  1  0.95940000  0.52780000  0.28930000  0.1667 0.0621442233
C  C115  1  0.95940000  0.97220000  0.21070000  0.1667 0.0621442233
C  C116  1  0.54060000  0.97220000  0.28930000  0.1667 0.0621442233
C  C117  1  0.52780000  0.28930000  0.95940000  0.1667 0.0621442233
C  C118  1  0.52780000  0.21070000  0.54060000  0.1667 0.0460492608
C  C119  1  0.97220000  0.28930000  0.54060000  0.1667 0.0621442233
C  C120  1  0.97220000  0.21070000  0.95940000  0.1667 0.0621442233
C  C121  1  0.54060000  0.78930000  0.02780000  0.1667 0.0621442233
C  C122  1  0.95940000  0.71070000  0.02780000  0.1667 0.0621442233
C  C123  1  0.95940000  0.78930000  0.47220000  0.1667 0.0621442233
C  C124  1  0.54060000  0.71070000  0.47220000  0.1667 0.0460492608
C  C125  1  0.52780000  0.04060000  0.78930000  0.1667 0.0621442233
C  C126  1  0.52780000  0.45940000  0.71070000  0.1667 0.0460492608
C  C127  1  0.97220000  0.45940000  0.78930000  0.1667 0.0621442233
C  C128  1  0.97220000  0.04060000  0.71070000  0.1667 0.0621442233
C  C129  1  0.28930000  0.02780000  0.04060000  0.1667 0.0621442233
C  C130  1  0.21070000  0.02780000  0.45940000  0.1667 0.0621442233
C  C131  1  0.28930000  0.47220000  0.45940000  0.1667 0.0460492608
C  C132  1  0.21070000  0.47220000  0.04060000  0.1667 0.0621442233
C  C133  1  0.28930000  0.04060000  0.47220000  0.1667 0.0621442233
C  C134  1  0.21070000  0.45940000  0.47220000  0.1667 0.0460492608
C  C135  1  0.28930000  0.45940000  0.02780000  0.1667 0.0621442233
C  C136  1  0.21070000  0.04060000  0.02780000  0.1667 0.0621442233
C  C137  1  0.54060000  0.02780000  0.71070000  0.1667 0.0621442233
C  C138  1  0.95940000  0.02780000  0.78930000  0.1667 0.0621442233
C  C139  1  0.95940000  0.47220000  0.71070000  0.1667 0.0621442233
C  C140  1  0.54060000  0.47220000  0.78930000  0.1667 0.0460492608
C  C141  1  0.52780000  0.78930000  0.45940000  0.1667 0.0460492608
C  C142  1  0.52780000  0.71070000  0.04060000  0.1667 0.0621442233
C  C143  1  0.97220000  0.78930000  0.04060000  0.1667 0.0621442233
C  C144  1  0.97220000  0.71070000  0.45940000  0.1667 0.0621442233
C  C145  1  0.04060000  0.28930000  0.02780000  0.1667 0.0621442233
C  C146  1  0.45940000  0.21070000  0.02780000  0.1667 0.0621442233
C  C147  1  0.45940000  0.28930000  0.47220000  0.1667 0.0460492608
C  C148  1  0.04060000  0.21070000  0.47220000  0.1667 0.0621442233
C  C149  1  0.02780000  0.54060000  0.78930000  0.1667 0.0621442233
C  C150  1  0.02780000  0.95940000  0.71070000  0.1667 0.0621442233
C  C151  1  0.47220000  0.95940000  0.78930000  0.1667 0.0621442233
C  C152  1  0.47220000  0.54060000  0.71070000  0.1667 0.0460492608
C  C153  1  0.78930000  0.52780000  0.04060000  0.1667 0.0621442233
C  C154  1  0.71070000  0.52780000  0.45940000  0.1667 0.0460492608
C  C155  1  0.78930000  0.97220000  0.45940000  0.1667 0.0621442233
C  C156  1  0.71070000  0.97220000  0.04060000  0.1667 0.0621442233
C  C157  1  0.78930000  0.54060000  0.47220000  0.1667 0.0460492608
C  C158  1  0.71070000  0.95940000  0.47220000  0.1667 0.0621442233
C  C159  1  0.78930000  0.95940000  0.02780000  0.1667 0.0621442233
C  C160  1  0.71070000  0.54060000  0.02780000  0.1667 0.0621442233
C  C161  1  0.04060000  0.52780000  0.71070000  0.1667 0.0621442233
C  C162  1  0.45940000  0.52780000  0.78930000  0.1667 0.0460492608
C  C163  1  0.45940000  0.97220000  0.71070000  0.1667 0.0621442233
C  C164  1  0.04060000  0.97220000  0.78930000  0.1667 0.0621442233
C  C165  1  0.02780000  0.28930000  0.45940000  0.1667 0.0621442233
C  C166  1  0.02780000  0.21070000  0.04060000  0.1667 0.0621442233
C  C167  1  0.47220000  0.28930000  0.04060000  0.1667 0.0621442233
C  C168  1  0.47220000  0.21070000  0.45940000  0.1667 0.0460492608
C  C169  1  0.04060000  0.78930000  0.52780000  0.1667 0.0621442233
C  C170  1  0.45940000  0.71070000  0.52780000  0.1667 0.0460492608
C  C171  1  0.45940000  0.78930000  0.97220000  0.1667 0.0621442233
C  C172  1  0.04060000  0.71070000  0.97220000  0.1667 0.0621442233
C  C173  1  0.02780000  0.04060000  0.28930000  0.1667 0.0621442233
C  C174  1  0.02780000  0.45940000  0.21070000  0.1667 0.0621442233
C  C175  1  0.47220000  0.45940000  0.28930000  0.1667 0.0460492608
C  C176  1  0.47220000  0.04060000  0.21070000  0.1667 0.0621442233
C  C177  1  0.78930000  0.02780000  0.54060000  0.1667 0.0621442233
C  C178  1  0.71070000  0.02780000  0.95940000  0.1667 0.0621442233
C  C179  1  0.78930000  0.47220000  0.95940000  0.1667 0.0621442233
C  C180  1  0.71070000  0.47220000  0.54060000  0.1667 0.0460492608
C  C181  1  0.78930000  0.04060000  0.97220000  0.1667 0.0621442233
C  C182  1  0.71070000  0.45940000  0.97220000  0.1667 0.0621442233
C  C183  1  0.78930000  0.45940000  0.52780000  0.1667 0.0460492608
C  C184  1  0.71070000  0.04060000  0.52780000  0.1667 0.0621442233
C  C185  1  0.04060000  0.02780000  0.21070000  0.1667 0.0621442233
C  C186  1  0.45940000  0.02780000  0.28930000  0.1667 0.0621442233
C  C187  1  0.45940000  0.47220000  0.21070000  0.1667 0.0460492608
C  C188  1  0.04060000  0.47220000  0.28930000  0.1667 0.0621442233
C  C189  1  0.02780000  0.78930000  0.95940000  0.1667 0.0621442233
C  C190  1  0.02780000  0.71070000  0.54060000  0.1667 0.0621442233
C  C191  1  0.47220000  0.78930000  0.54060000  0.1667 0.0460492608
C  C192  1  0.47220000  0.71070000  0.95940000  0.1667 0.0621442233
C  C193  1  0.00650000  0.25140000  0.00550000  0.1667 -0.1626759448
C  C194  1  0.49350000  0.24860000  0.00550000  0.1667 -0.1626759448
C  C195  1  0.49350000  0.25140000  0.49450000  0.1667 -0.1399161275
C  C196  1  0.00650000  0.24860000  0.49450000  0.1667 -0.1626759448
C  C197  1  0.00550000  0.00650000  0.25140000  0.1667 -0.1626759448
C  C198  1  0.00550000  0.49350000  0.24860000  0.1667 -0.1626759448
C  C199  1  0.49450000  0.49350000  0.25140000  0.1667 -0.1399161275
C  C200  1  0.49450000  0.00650000  0.24860000  0.1667 -0.1665040381
C  C201  1  0.25140000  0.00550000  0.00650000  0.1667 -0.1626759448
C  C202  1  0.24860000  0.00550000  0.49350000  0.1667 -0.1626759448
C  C203  1  0.25140000  0.49450000  0.49350000  0.1667 -0.1399161275
C  C204  1  0.24860000  0.49450000  0.00650000  0.1667 -0.1626759448
C  C205  1  0.25140000  0.00650000  0.49450000  0.1667 -0.1626759448
C  C206  1  0.24860000  0.49350000  0.49450000  0.1667 -0.1399161275
C  C207  1  0.25140000  0.49350000  0.00550000  0.1667 -0.1626759448
C  C208  1  0.24860000  0.00650000  0.00550000  0.1667 -0.1626759448
C  C209  1  0.00650000  0.00550000  0.24860000  0.1667 -0.1626759448
C  C210  1  0.49350000  0.00550000  0.25140000  0.1667 -0.1665040381
C  C211  1  0.49350000  0.49450000  0.24860000  0.1667 -0.1399161275
C  C212  1  0.00650000  0.49450000  0.25140000  0.1667 -0.1626759448
C  C213  1  0.00550000  0.25140000  0.49350000  0.1667 -0.1626759448
C  C214  1  0.00550000  0.24860000  0.00650000  0.1667 -0.1626759448
C  C215  1  0.49450000  0.25140000  0.00650000  0.1667 -0.1626759448
C  C216  1  0.49450000  0.24860000  0.49350000  0.1667 -0.1399161275
C  C217  1  0.00650000  0.75140000  0.50550000  0.1667 -0.1626759448
C  C218  1  0.49350000  0.74860000  0.50550000  0.1667 -0.1399161275
C  C219  1  0.49350000  0.75140000  0.99450000  0.1667 -0.1626759448
C  C220  1  0.00650000  0.74860000  0.99450000  0.1667 -0.1626759448
C  C221  1  0.00550000  0.50650000  0.75140000  0.1667 -0.1626759448
C  C222  1  0.00550000  0.99350000  0.74860000  0.1667 -0.1626759448
C  C223  1  0.49450000  0.99350000  0.75140000  0.1667 -0.1626759448
C  C224  1  0.49450000  0.50650000  0.74860000  0.1667 -0.1399161275
C  C225  1  0.25140000  0.50550000  0.50650000  0.1667 -0.1399161275
C  C226  1  0.24860000  0.50550000  0.99350000  0.1667 -0.1626759448
C  C227  1  0.25140000  0.99450000  0.99350000  0.1667 -0.1626759448
C  C228  1  0.24860000  0.99450000  0.50650000  0.1667 -0.1626759448
C  C229  1  0.25140000  0.50650000  0.99450000  0.1667 -0.1626759448
C  C230  1  0.24860000  0.99350000  0.99450000  0.1667 -0.1626759448
C  C231  1  0.25140000  0.99350000  0.50550000  0.1667 -0.1626759448
C  C232  1  0.24860000  0.50650000  0.50550000  0.1667 -0.1399161275
C  C233  1  0.00650000  0.50550000  0.74860000  0.1667 -0.1626759448
C  C234  1  0.49350000  0.50550000  0.75140000  0.1667 -0.1399161275
C  C235  1  0.49350000  0.99450000  0.74860000  0.1667 -0.1626759448
C  C236  1  0.00650000  0.99450000  0.75140000  0.1667 -0.1626759448
C  C237  1  0.00550000  0.75140000  0.99350000  0.1667 -0.1626759448
C  C238  1  0.00550000  0.74860000  0.50650000  0.1667 -0.1626759448
C  C239  1  0.49450000  0.75140000  0.50650000  0.1667 -0.1399161275
C  C240  1  0.49450000  0.74860000  0.99350000  0.1667 -0.1626759448
C  C241  1  0.50650000  0.25140000  0.50550000  0.1667 -0.1399161275
C  C242  1  0.99350000  0.24860000  0.50550000  0.1667 -0.1665040381
C  C243  1  0.99350000  0.25140000  0.99450000  0.1667 -0.1665040381
C  C244  1  0.50650000  0.24860000  0.99450000  0.1667 -0.1665040381
C  C245  1  0.50550000  0.00650000  0.75140000  0.1667 -0.1665040381
C  C246  1  0.50550000  0.49350000  0.74860000  0.1667 -0.1399161275
C  C247  1  0.99450000  0.49350000  0.75140000  0.1667 -0.1626759448
C  C248  1  0.99450000  0.00650000  0.74860000  0.1667 -0.1665040381
C  C249  1  0.75140000  0.00550000  0.50650000  0.1667 -0.1665040381
C  C250  1  0.74860000  0.00550000  0.99350000  0.1667 -0.1665040381
C  C251  1  0.75140000  0.49450000  0.99350000  0.1667 -0.1626759448
C  C252  1  0.74860000  0.49450000  0.50650000  0.1667 -0.1399161275
C  C253  1  0.75140000  0.00650000  0.99450000  0.1667 -0.1665040381
C  C254  1  0.74860000  0.49350000  0.99450000  0.1667 -0.1626759448
C  C255  1  0.75140000  0.49350000  0.50550000  0.1667 -0.1399161275
C  C256  1  0.74860000  0.00650000  0.50550000  0.1667 -0.1665040381
C  C257  1  0.50650000  0.00550000  0.74860000  0.1667 -0.1626759448
C  C258  1  0.99350000  0.00550000  0.75140000  0.1667 -0.1665040381
C  C259  1  0.99350000  0.49450000  0.74860000  0.1667 -0.1626759448
C  C260  1  0.50650000  0.49450000  0.75140000  0.1667 -0.1399161275
C  C261  1  0.50550000  0.25140000  0.99350000  0.1667 -0.1665040381
C  C262  1  0.50550000  0.24860000  0.50650000  0.1667 -0.1399161275
C  C263  1  0.99450000  0.25140000  0.50650000  0.1667 -0.1665040381
C  C264  1  0.99450000  0.24860000  0.99350000  0.1667 -0.1665040381
C  C265  1  0.50650000  0.75140000  0.00550000  0.1667 -0.1626759448
C  C266  1  0.99350000  0.74860000  0.00550000  0.1667 -0.1626759448
C  C267  1  0.99350000  0.75140000  0.49450000  0.1667 -0.1626759448
C  C268  1  0.50650000  0.74860000  0.49450000  0.1667 -0.1399161275
C  C269  1  0.50550000  0.50650000  0.25140000  0.1667 -0.1399161275
C  C270  1  0.50550000  0.99350000  0.24860000  0.1667 -0.1626759448
C  C271  1  0.99450000  0.99350000  0.25140000  0.1667 -0.1626759448
C  C272  1  0.99450000  0.50650000  0.24860000  0.1667 -0.1665040381
C  C273  1  0.75140000  0.50550000  0.00650000  0.1667 -0.1626759448
C  C274  1  0.74860000  0.50550000  0.49350000  0.1667 -0.1399161275
C  C275  1  0.75140000  0.99450000  0.49350000  0.1667 -0.1626759448
C  C276  1  0.74860000  0.99450000  0.00650000  0.1667 -0.1626759448
C  C277  1  0.75140000  0.50650000  0.49450000  0.1667 -0.1399161275
C  C278  1  0.74860000  0.99350000  0.49450000  0.1667 -0.1626759448
C  C279  1  0.75140000  0.99350000  0.00550000  0.1667 -0.1626759448
C  C280  1  0.74860000  0.50650000  0.00550000  0.1667 -0.1626759448
C  C281  1  0.50650000  0.50550000  0.24860000  0.1667 -0.1399161275
C  C282  1  0.99350000  0.50550000  0.25140000  0.1667 -0.1665040381
C  C283  1  0.99350000  0.99450000  0.24860000  0.1667 -0.1626759448
C  C284  1  0.50650000  0.99450000  0.25140000  0.1667 -0.1626759448
C  C285  1  0.50550000  0.75140000  0.49350000  0.1667 -0.1399161275
C  C286  1  0.50550000  0.74860000  0.00650000  0.1667 -0.1626759448
C  C287  1  0.99450000  0.75140000  0.00650000  0.1667 -0.1626759448
C  C288  1  0.99450000  0.74860000  0.49350000  0.1667 -0.1626759448
C  C289  1  0.00650000  0.25140000  0.49450000  0.1667 -0.1626759448
C  C290  1  0.00650000  0.24860000  0.00550000  0.1667 -0.1626759448
C  C291  1  0.49350000  0.25140000  0.00550000  0.1667 -0.1626759448
C  C292  1  0.49450000  0.00650000  0.25140000  0.1667 -0.1665040381
C  C293  1  0.00550000  0.00650000  0.24860000  0.1667 -0.1626759448
C  C294  1  0.00550000  0.49350000  0.25140000  0.1667 -0.1626759448
C  C295  1  0.25140000  0.49450000  0.00650000  0.1667 -0.1626759448
C  C296  1  0.24860000  0.00550000  0.00650000  0.1667 -0.1626759448
C  C297  1  0.25140000  0.00550000  0.49350000  0.1667 -0.1626759448
C  C298  1  0.24860000  0.49350000  0.00550000  0.1667 -0.1626759448
C  C299  1  0.25140000  0.00650000  0.00550000  0.1667 -0.1626759448
C  C300  1  0.24860000  0.00650000  0.49450000  0.1667 -0.1626759448
C  C301  1  0.00650000  0.49450000  0.24860000  0.1667 -0.1626759448
C  C302  1  0.00650000  0.00550000  0.25140000  0.1667 -0.1626759448
C  C303  1  0.49350000  0.00550000  0.24860000  0.1667 -0.1665040381
C  C304  1  0.49450000  0.24860000  0.00650000  0.1667 -0.1626759448
C  C305  1  0.00550000  0.24860000  0.49350000  0.1667 -0.1626759448
C  C306  1  0.00550000  0.25140000  0.00650000  0.1667 -0.1626759448
C  C307  1  0.49350000  0.74860000  0.99450000  0.1667 -0.1626759448
C  C308  1  0.00650000  0.75140000  0.99450000  0.1667 -0.1626759448
C  C309  1  0.00650000  0.74860000  0.50550000  0.1667 -0.1626759448
C  C310  1  0.49450000  0.99350000  0.74860000  0.1667 -0.1626759448
C  C311  1  0.00550000  0.50650000  0.74860000  0.1667 -0.1626759448
C  C312  1  0.00550000  0.99350000  0.75140000  0.1667 -0.1626759448
C  C313  1  0.24860000  0.99450000  0.99350000  0.1667 -0.1626759448
C  C314  1  0.25140000  0.99450000  0.50650000  0.1667 -0.1626759448
C  C315  1  0.25140000  0.50550000  0.99350000  0.1667 -0.1626759448
C  C316  1  0.24860000  0.99350000  0.50550000  0.1667 -0.1626759448
C  C317  1  0.24860000  0.50650000  0.99450000  0.1667 -0.1626759448
C  C318  1  0.25140000  0.99350000  0.99450000  0.1667 -0.1626759448
C  C319  1  0.49350000  0.99450000  0.75140000  0.1667 -0.1626759448
C  C320  1  0.00650000  0.99450000  0.74860000  0.1667 -0.1626759448
C  C321  1  0.00650000  0.50550000  0.75140000  0.1667 -0.1626759448
C  C322  1  0.49450000  0.75140000  0.99350000  0.1667 -0.1626759448
C  C323  1  0.00550000  0.74860000  0.99350000  0.1667 -0.1626759448
C  C324  1  0.00550000  0.75140000  0.50650000  0.1667 -0.1626759448
C  C325  1  0.99350000  0.24860000  0.99450000  0.1667 -0.1665040381
C  C326  1  0.50650000  0.25140000  0.99450000  0.1667 -0.1665040381
C  C327  1  0.99350000  0.25140000  0.50550000  0.1667 -0.1665040381
C  C328  1  0.99450000  0.49350000  0.74860000  0.1667 -0.1626759448
C  C329  1  0.99450000  0.00650000  0.75140000  0.1667 -0.1665040381
C  C330  1  0.50550000  0.00650000  0.74860000  0.1667 -0.1626759448
C  C331  1  0.74860000  0.49450000  0.99350000  0.1667 -0.1626759448
C  C332  1  0.74860000  0.00550000  0.50650000  0.1667 -0.1665040381
C  C333  1  0.75140000  0.00550000  0.99350000  0.1667 -0.1665040381
C  C334  1  0.75140000  0.00650000  0.50550000  0.1667 -0.1665040381
C  C335  1  0.74860000  0.00650000  0.99450000  0.1667 -0.1665040381
C  C336  1  0.75140000  0.49350000  0.99450000  0.1667 -0.1626759448
C  C337  1  0.99350000  0.49450000  0.75140000  0.1667 -0.1626759448
C  C338  1  0.50650000  0.00550000  0.75140000  0.1667 -0.1626759448
C  C339  1  0.99350000  0.00550000  0.74860000  0.1667 -0.1665040381
C  C340  1  0.99450000  0.24860000  0.50650000  0.1667 -0.1665040381
C  C341  1  0.99450000  0.25140000  0.99350000  0.1667 -0.1665040381
C  C342  1  0.50550000  0.24860000  0.99350000  0.1667 -0.1665040381
C  C343  1  0.99350000  0.74860000  0.49450000  0.1667 -0.1626759448
C  C344  1  0.50650000  0.74860000  0.00550000  0.1667 -0.1626759448
C  C345  1  0.99350000  0.75140000  0.00550000  0.1667 -0.1626759448
C  C346  1  0.99450000  0.99350000  0.24860000  0.1667 -0.1626759448
C  C347  1  0.99450000  0.50650000  0.25140000  0.1667 -0.1665040381
C  C348  1  0.50550000  0.99350000  0.25140000  0.1667 -0.1626759448
C  C349  1  0.74860000  0.99450000  0.49350000  0.1667 -0.1626759448
C  C350  1  0.75140000  0.99450000  0.00650000  0.1667 -0.1626759448
C  C351  1  0.74860000  0.50550000  0.00650000  0.1667 -0.1626759448
C  C352  1  0.74860000  0.99350000  0.00550000  0.1667 -0.1626759448
C  C353  1  0.75140000  0.50650000  0.00550000  0.1667 -0.1626759448
C  C354  1  0.75140000  0.99350000  0.49450000  0.1667 -0.1626759448
C  C355  1  0.99350000  0.99450000  0.25140000  0.1667 -0.1626759448
C  C356  1  0.50650000  0.99450000  0.24860000  0.1667 -0.1626759448
C  C357  1  0.99350000  0.50550000  0.24860000  0.1667 -0.1665040381
C  C358  1  0.99450000  0.74860000  0.00650000  0.1667 -0.1626759448
C  C359  1  0.99450000  0.75140000  0.49350000  0.1667 -0.1626759448
C  C360  1  0.50550000  0.75140000  0.00650000  0.1667 -0.1626759448
C  C361  1  0.04910000  0.20930000  0.04290000  0.1667 0.0754886733
C  C362  1  0.45090000  0.29070000  0.04290000  0.1667 0.0754886733
C  C363  1  0.45090000  0.20930000  0.45710000  0.1667 0.0713335437
C  C364  1  0.04910000  0.29070000  0.45710000  0.1667 0.0754886733
C  C365  1  0.04290000  0.04910000  0.20930000  0.1667 0.0754886733
C  C366  1  0.04290000  0.45090000  0.29070000  0.1667 0.0754886733
C  C367  1  0.45710000  0.45090000  0.20930000  0.1667 0.0713335437
C  C368  1  0.45710000  0.04910000  0.29070000  0.1667 0.0754886733
C  C369  1  0.20930000  0.04290000  0.04910000  0.1667 0.0754886733
C  C370  1  0.29070000  0.04290000  0.45090000  0.1667 0.0713335437
C  C371  1  0.20930000  0.45710000  0.45090000  0.1667 0.0713335437
C  C372  1  0.29070000  0.45710000  0.04910000  0.1667 0.0754886733
C  C373  1  0.20930000  0.04910000  0.45710000  0.1667 0.0754886733
C  C374  1  0.29070000  0.45090000  0.45710000  0.1667 0.0713335437
C  C375  1  0.20930000  0.45090000  0.04290000  0.1667 0.0754886733
C  C376  1  0.29070000  0.04910000  0.04290000  0.1667 0.0754886733
C  C377  1  0.04910000  0.04290000  0.29070000  0.1667 0.0754886733
C  C378  1  0.45090000  0.04290000  0.20930000  0.1667 0.0754886733
C  C379  1  0.45090000  0.45710000  0.29070000  0.1667 0.0713335437
C  C380  1  0.04910000  0.45710000  0.20930000  0.1667 0.0754886733
C  C381  1  0.04290000  0.20930000  0.45090000  0.1667 0.0754886733
C  C382  1  0.04290000  0.29070000  0.04910000  0.1667 0.0754886733
C  C383  1  0.45710000  0.20930000  0.04910000  0.1667 0.0754886733
C  C384  1  0.45710000  0.29070000  0.45090000  0.1667 0.0713335437
C  C385  1  0.04910000  0.70930000  0.54290000  0.1667 0.0713335437
C  C386  1  0.45090000  0.79070000  0.54290000  0.1667 0.0713335437
C  C387  1  0.45090000  0.70930000  0.95710000  0.1667 0.0754886733
C  C388  1  0.04910000  0.79070000  0.95710000  0.1667 0.0754886733
C  C389  1  0.04290000  0.54910000  0.70930000  0.1667 0.0754886733
C  C390  1  0.04290000  0.95090000  0.79070000  0.1667 0.0754886733
C  C391  1  0.45710000  0.95090000  0.70930000  0.1667 0.0754886733
C  C392  1  0.45710000  0.54910000  0.79070000  0.1667 0.0713335437
C  C393  1  0.20930000  0.54290000  0.54910000  0.1667 0.0713335437
C  C394  1  0.29070000  0.54290000  0.95090000  0.1667 0.0754886733
C  C395  1  0.20930000  0.95710000  0.95090000  0.1667 0.0754886733
C  C396  1  0.29070000  0.95710000  0.54910000  0.1667 0.0754886733
C  C397  1  0.20930000  0.54910000  0.95710000  0.1667 0.0754886733
C  C398  1  0.29070000  0.95090000  0.95710000  0.1667 0.0754886733
C  C399  1  0.20930000  0.95090000  0.54290000  0.1667 0.0754886733
C  C400  1  0.29070000  0.54910000  0.54290000  0.1667 0.0713335437
C  C401  1  0.04910000  0.54290000  0.79070000  0.1667 0.0754886733
C  C402  1  0.45090000  0.54290000  0.70930000  0.1667 0.0713335437
C  C403  1  0.45090000  0.95710000  0.79070000  0.1667 0.0754886733
C  C404  1  0.04910000  0.95710000  0.70930000  0.1667 0.0754886733
C  C405  1  0.04290000  0.70930000  0.95090000  0.1667 0.0754886733
C  C406  1  0.04290000  0.79070000  0.54910000  0.1667 0.0754886733
C  C407  1  0.45710000  0.70930000  0.54910000  0.1667 0.0713335437
C  C408  1  0.45710000  0.79070000  0.95090000  0.1667 0.0754886733
C  C409  1  0.54910000  0.20930000  0.54290000  0.1667 0.0713335437
C  C410  1  0.95090000  0.29070000  0.54290000  0.1667 0.0754886733
C  C411  1  0.95090000  0.20930000  0.95710000  0.1667 0.0754886733
C  C412  1  0.54910000  0.29070000  0.95710000  0.1667 0.0754886733
C  C413  1  0.54290000  0.04910000  0.70930000  0.1667 0.0754886733
C  C414  1  0.54290000  0.45090000  0.79070000  0.1667 0.0713335437
C  C415  1  0.95710000  0.45090000  0.70930000  0.1667 0.0754886733
C  C416  1  0.95710000  0.04910000  0.79070000  0.1667 0.0754886733
C  C417  1  0.70930000  0.04290000  0.54910000  0.1667 0.0754886733
C  C418  1  0.79070000  0.04290000  0.95090000  0.1667 0.0754886733
C  C419  1  0.70930000  0.45710000  0.95090000  0.1667 0.0754886733
C  C420  1  0.79070000  0.45710000  0.54910000  0.1667 0.0713335437
C  C421  1  0.70930000  0.04910000  0.95710000  0.1667 0.0754886733
C  C422  1  0.79070000  0.45090000  0.95710000  0.1667 0.0754886733
C  C423  1  0.70930000  0.45090000  0.54290000  0.1667 0.0713335437
C  C424  1  0.79070000  0.04910000  0.54290000  0.1667 0.0754886733
C  C425  1  0.54910000  0.04290000  0.79070000  0.1667 0.0754886733
C  C426  1  0.95090000  0.04290000  0.70930000  0.1667 0.0754886733
C  C427  1  0.95090000  0.45710000  0.79070000  0.1667 0.0754886733
C  C428  1  0.54910000  0.45710000  0.70930000  0.1667 0.0713335437
C  C429  1  0.54290000  0.20930000  0.95090000  0.1667 0.0754886733
C  C430  1  0.54290000  0.29070000  0.54910000  0.1667 0.0713335437
C  C431  1  0.95710000  0.20930000  0.54910000  0.1667 0.0754886733
C  C432  1  0.95710000  0.29070000  0.95090000  0.1667 0.0754886733
C  C433  1  0.54910000  0.70930000  0.04290000  0.1667 0.0754886733
C  C434  1  0.95090000  0.79070000  0.04290000  0.1667 0.0754886733
C  C435  1  0.95090000  0.70930000  0.45710000  0.1667 0.0754886733
C  C436  1  0.54910000  0.79070000  0.45710000  0.1667 0.0713335437
C  C437  1  0.54290000  0.54910000  0.20930000  0.1667 0.0713335437
C  C438  1  0.54290000  0.95090000  0.29070000  0.1667 0.0754886733
C  C439  1  0.95710000  0.95090000  0.20930000  0.1667 0.0754886733
C  C440  1  0.95710000  0.54910000  0.29070000  0.1667 0.0754886733
C  C441  1  0.70930000  0.54290000  0.04910000  0.1667 0.0754886733
C  C442  1  0.79070000  0.54290000  0.45090000  0.1667 0.0713335437
C  C443  1  0.70930000  0.95710000  0.45090000  0.1667 0.0754886733
C  C444  1  0.79070000  0.95710000  0.04910000  0.1667 0.0754886733
C  C445  1  0.70930000  0.54910000  0.45710000  0.1667 0.0713335437
C  C446  1  0.79070000  0.95090000  0.45710000  0.1667 0.0754886733
C  C447  1  0.70930000  0.95090000  0.04290000  0.1667 0.0754886733
C  C448  1  0.79070000  0.54910000  0.04290000  0.1667 0.0754886733
C  C449  1  0.54910000  0.54290000  0.29070000  0.1667 0.0713335437
C  C450  1  0.95090000  0.54290000  0.20930000  0.1667 0.0754886733
C  C451  1  0.95090000  0.95710000  0.29070000  0.1667 0.0754886733
C  C452  1  0.54910000  0.95710000  0.20930000  0.1667 0.0754886733
C  C453  1  0.54290000  0.70930000  0.45090000  0.1667 0.0713335437
C  C454  1  0.54290000  0.79070000  0.04910000  0.1667 0.0754886733
C  C455  1  0.95710000  0.70930000  0.04910000  0.1667 0.0754886733
C  C456  1  0.95710000  0.79070000  0.45090000  0.1667 0.0754886733
C  C457  1  0.45090000  0.29070000  0.45710000  0.1667 0.0713335437
C  C458  1  0.04910000  0.20930000  0.45710000  0.1667 0.0754886733
C  C459  1  0.04910000  0.29070000  0.04290000  0.1667 0.0754886733
C  C460  1  0.45090000  0.20930000  0.04290000  0.1667 0.0754886733
C  C461  1  0.45710000  0.45090000  0.29070000  0.1667 0.0713335437
C  C462  1  0.45710000  0.04910000  0.20930000  0.1667 0.0754886733
C  C463  1  0.04290000  0.04910000  0.29070000  0.1667 0.0754886733
C  C464  1  0.04290000  0.45090000  0.20930000  0.1667 0.0754886733
C  C465  1  0.29070000  0.45710000  0.45090000  0.1667 0.0713335437
C  C466  1  0.20930000  0.45710000  0.04910000  0.1667 0.0754886733
C  C467  1  0.29070000  0.04290000  0.04910000  0.1667 0.0754886733
C  C468  1  0.20930000  0.04290000  0.45090000  0.1667 0.0754886733
C  C469  1  0.29070000  0.45090000  0.04290000  0.1667 0.0754886733
C  C470  1  0.20930000  0.04910000  0.04290000  0.1667 0.0754886733
C  C471  1  0.29070000  0.04910000  0.45710000  0.1667 0.0713335437
C  C472  1  0.20930000  0.45090000  0.45710000  0.1667 0.0713335437
C  C473  1  0.45090000  0.45710000  0.20930000  0.1667 0.0713335437
C  C474  1  0.04910000  0.45710000  0.29070000  0.1667 0.0713335437
C  C475  1  0.04910000  0.04290000  0.20930000  0.1667 0.0754886733
C  C476  1  0.45090000  0.04290000  0.29070000  0.1667 0.0754886733
C  C477  1  0.45710000  0.29070000  0.04910000  0.1667 0.0754886733
C  C478  1  0.45710000  0.20930000  0.45090000  0.1667 0.0713335437
C  C479  1  0.04290000  0.29070000  0.45090000  0.1667 0.0754886733
C  C480  1  0.04290000  0.20930000  0.04910000  0.1667 0.0754886733
C  C481  1  0.45090000  0.79070000  0.95710000  0.1667 0.0754886733
C  C482  1  0.04910000  0.70930000  0.95710000  0.1667 0.0754886733
C  C483  1  0.04910000  0.79070000  0.54290000  0.1667 0.0754886733
C  C484  1  0.45090000  0.70930000  0.54290000  0.1667 0.0713335437
C  C485  1  0.45710000  0.95090000  0.79070000  0.1667 0.0754886733
C  C486  1  0.45710000  0.54910000  0.70930000  0.1667 0.0713335437
C  C487  1  0.04290000  0.54910000  0.79070000  0.1667 0.0754886733
C  C488  1  0.04290000  0.95090000  0.70930000  0.1667 0.0754886733
C  C489  1  0.29070000  0.95710000  0.95090000  0.1667 0.0754886733
C  C490  1  0.20930000  0.95710000  0.54910000  0.1667 0.0754886733
C  C491  1  0.29070000  0.54290000  0.54910000  0.1667 0.0713335437
C  C492  1  0.20930000  0.54290000  0.95090000  0.1667 0.0754886733
C  C493  1  0.29070000  0.95090000  0.54290000  0.1667 0.0754886733
C  C494  1  0.20930000  0.54910000  0.54290000  0.1667 0.0713335437
C  C495  1  0.29070000  0.54910000  0.95710000  0.1667 0.0754886733
C  C496  1  0.20930000  0.95090000  0.95710000  0.1667 0.0754886733
C  C497  1  0.45090000  0.95710000  0.70930000  0.1667 0.0754886733
C  C498  1  0.04910000  0.95710000  0.79070000  0.1667 0.0754886733
C  C499  1  0.04910000  0.54290000  0.70930000  0.1667 0.0713335437
C  C500  1  0.45090000  0.54290000  0.79070000  0.1667 0.0713335437
C  C501  1  0.45710000  0.79070000  0.54910000  0.1667 0.0713335437
C  C502  1  0.45710000  0.70930000  0.95090000  0.1667 0.0754886733
C  C503  1  0.04290000  0.79070000  0.95090000  0.1667 0.0754886733
C  C504  1  0.04290000  0.70930000  0.54910000  0.1667 0.0713335437
C  C505  1  0.95090000  0.29070000  0.95710000  0.1667 0.0754886733
C  C506  1  0.54910000  0.20930000  0.95710000  0.1667 0.0754886733
C  C507  1  0.54910000  0.29070000  0.54290000  0.1667 0.0713335437
C  C508  1  0.95090000  0.20930000  0.54290000  0.1667 0.0754886733
C  C509  1  0.95710000  0.45090000  0.79070000  0.1667 0.0754886733
C  C510  1  0.95710000  0.04910000  0.70930000  0.1667 0.0754886733
C  C511  1  0.54290000  0.04910000  0.79070000  0.1667 0.0754886733
C  C512  1  0.54290000  0.45090000  0.70930000  0.1667 0.0713335437
C  C513  1  0.79070000  0.45710000  0.95090000  0.1667 0.0754886733
C  C514  1  0.70930000  0.45710000  0.54910000  0.1667 0.0713335437
C  C515  1  0.79070000  0.04290000  0.54910000  0.1667 0.0754886733
C  C516  1  0.70930000  0.04290000  0.95090000  0.1667 0.0754886733
C  C517  1  0.79070000  0.45090000  0.54290000  0.1667 0.0713335437
C  C518  1  0.70930000  0.04910000  0.54290000  0.1667 0.0754886733
C  C519  1  0.79070000  0.04910000  0.95710000  0.1667 0.0754886733
C  C520  1  0.70930000  0.45090000  0.95710000  0.1667 0.0754886733
C  C521  1  0.95090000  0.45710000  0.70930000  0.1667 0.0754886733
C  C522  1  0.54910000  0.45710000  0.79070000  0.1667 0.0713335437
C  C523  1  0.54910000  0.04290000  0.70930000  0.1667 0.0754886733
C  C524  1  0.95090000  0.04290000  0.79070000  0.1667 0.0754886733
C  C525  1  0.95710000  0.29070000  0.54910000  0.1667 0.0754886733
C  C526  1  0.95710000  0.20930000  0.95090000  0.1667 0.0754886733
C  C527  1  0.54290000  0.29070000  0.95090000  0.1667 0.0754886733
C  C528  1  0.54290000  0.20930000  0.54910000  0.1667 0.0713335437
C  C529  1  0.95090000  0.79070000  0.45710000  0.1667 0.0754886733
C  C530  1  0.54910000  0.70930000  0.45710000  0.1667 0.0713335437
C  C531  1  0.54910000  0.79070000  0.04290000  0.1667 0.0754886733
C  C532  1  0.95090000  0.70930000  0.04290000  0.1667 0.0754886733
C  C533  1  0.95710000  0.95090000  0.29070000  0.1667 0.0754886733
C  C534  1  0.95710000  0.54910000  0.20930000  0.1667 0.0754886733
C  C535  1  0.54290000  0.54910000  0.29070000  0.1667 0.0713335437
C  C536  1  0.54290000  0.95090000  0.20930000  0.1667 0.0754886733
C  C537  1  0.79070000  0.95710000  0.45090000  0.1667 0.0754886733
C  C538  1  0.70930000  0.95710000  0.04910000  0.1667 0.0754886733
C  C539  1  0.79070000  0.54290000  0.04910000  0.1667 0.0754886733
C  C540  1  0.70930000  0.54290000  0.45090000  0.1667 0.0713335437
C  C541  1  0.79070000  0.95090000  0.04290000  0.1667 0.0754886733
C  C542  1  0.70930000  0.54910000  0.04290000  0.1667 0.0754886733
C  C543  1  0.79070000  0.54910000  0.45710000  0.1667 0.0713335437
C  C544  1  0.70930000  0.95090000  0.45710000  0.1667 0.0754886733
C  C545  1  0.95090000  0.95710000  0.20930000  0.1667 0.0754886733
C  C546  1  0.54910000  0.95710000  0.29070000  0.1667 0.0754886733
C  C547  1  0.54910000  0.54290000  0.20930000  0.1667 0.0713335437
C  C548  1  0.95090000  0.54290000  0.29070000  0.1667 0.0754886733
C  C549  1  0.95710000  0.79070000  0.04910000  0.1667 0.0754886733
C  C550  1  0.95710000  0.70930000  0.45090000  0.1667 0.0754886733
C  C551  1  0.54290000  0.79070000  0.45090000  0.1667 0.0713335437
C  C552  1  0.54290000  0.70930000  0.04910000  0.1667 0.0754886733
C  C553  1  0.01050000  0.32410000  0.00200000  0.1667 0.1655783855
C  C554  1  0.48950000  0.17590000  0.00200000  0.1667 0.1655783855
C  C555  1  0.48950000  0.32410000  0.49800000  0.1667 0.16146827
C  C556  1  0.01050000  0.17590000  0.49800000  0.1667 0.1655783855
C  C557  1  0.00200000  0.01050000  0.32410000  0.1667 0.1655783855
C  C558  1  0.00200000  0.48950000  0.17590000  0.1667 0.1655783855
C  C559  1  0.49800000  0.48950000  0.32410000  0.1667 0.16146827
C  C560  1  0.49800000  0.01050000  0.17590000  0.1667 0.1655783855
C  C561  1  0.32410000  0.00200000  0.01050000  0.1667 0.1655783855
C  C562  1  0.17590000  0.00200000  0.48950000  0.1667 0.16146827
C  C563  1  0.32410000  0.49800000  0.48950000  0.1667 0.16146827
C  C564  1  0.17590000  0.49800000  0.01050000  0.1667 0.1655783855
C  C565  1  0.32410000  0.01050000  0.49800000  0.1667 0.16146827
C  C566  1  0.17590000  0.48950000  0.49800000  0.1667 0.16146827
C  C567  1  0.32410000  0.48950000  0.00200000  0.1667 0.16146827
C  C568  1  0.17590000  0.01050000  0.00200000  0.1667 0.1655783855
C  C569  1  0.01050000  0.00200000  0.17590000  0.1667 0.1655783855
C  C570  1  0.48950000  0.00200000  0.32410000  0.1667 0.16146827
C  C571  1  0.48950000  0.49800000  0.17590000  0.1667 0.16146827
C  C572  1  0.01050000  0.49800000  0.32410000  0.1667 0.16146827
C  C573  1  0.00200000  0.32410000  0.48950000  0.1667 0.16146827
C  C574  1  0.00200000  0.17590000  0.01050000  0.1667 0.1655783855
C  C575  1  0.49800000  0.32410000  0.01050000  0.1667 0.16146827
C  C576  1  0.49800000  0.17590000  0.48950000  0.1667 0.16146827
C  C577  1  0.01050000  0.82410000  0.50200000  0.1667 0.1655783855
C  C578  1  0.48950000  0.67590000  0.50200000  0.1667 0.16146827
C  C579  1  0.48950000  0.82410000  0.99800000  0.1667 0.1655783855
C  C580  1  0.01050000  0.67590000  0.99800000  0.1667 0.1655783855
C  C581  1  0.00200000  0.51050000  0.82410000  0.1667 0.1655783855
C  C582  1  0.00200000  0.98950000  0.67590000  0.1667 0.1655783855
C  C583  1  0.49800000  0.98950000  0.82410000  0.1667 0.1655783855
C  C584  1  0.49800000  0.51050000  0.67590000  0.1667 0.16146827
C  C585  1  0.32410000  0.50200000  0.51050000  0.1667 0.16146827
C  C586  1  0.17590000  0.50200000  0.98950000  0.1667 0.16146827
C  C587  1  0.32410000  0.99800000  0.98950000  0.1667 0.1655783855
C  C588  1  0.17590000  0.99800000  0.51050000  0.1667 0.1655783855
C  C589  1  0.32410000  0.51050000  0.99800000  0.1667 0.16146827
C  C590  1  0.17590000  0.98950000  0.99800000  0.1667 0.1655783855
C  C591  1  0.32410000  0.98950000  0.50200000  0.1667 0.16146827
C  C592  1  0.17590000  0.51050000  0.50200000  0.1667 0.16146827
C  C593  1  0.01050000  0.50200000  0.67590000  0.1667 0.16146827
C  C594  1  0.48950000  0.50200000  0.82410000  0.1667 0.16146827
C  C595  1  0.48950000  0.99800000  0.67590000  0.1667 0.1655783855
C  C596  1  0.01050000  0.99800000  0.82410000  0.1667 0.1655783855
C  C597  1  0.00200000  0.82410000  0.98950000  0.1667 0.1655783855
C  C598  1  0.00200000  0.67590000  0.51050000  0.1667 0.16146827
C  C599  1  0.49800000  0.82410000  0.51050000  0.1667 0.16146827
C  C600  1  0.49800000  0.67590000  0.98950000  0.1667 0.16146827
C  C601  1  0.51050000  0.32410000  0.50200000  0.1667 0.16146827
C  C602  1  0.98950000  0.17590000  0.50200000  0.1667 0.1655783855
C  C603  1  0.98950000  0.32410000  0.99800000  0.1667 0.1655783855
C  C604  1  0.51050000  0.17590000  0.99800000  0.1667 0.1655783855
C  C605  1  0.50200000  0.01050000  0.82410000  0.1667 0.16146827
C  C606  1  0.50200000  0.48950000  0.67590000  0.1667 0.16146827
C  C607  1  0.99800000  0.48950000  0.82410000  0.1667 0.1655783855
C  C608  1  0.99800000  0.01050000  0.67590000  0.1667 0.1655783855
C  C609  1  0.82410000  0.00200000  0.51050000  0.1667 0.1655783855
C  C610  1  0.67590000  0.00200000  0.98950000  0.1667 0.1655783855
C  C611  1  0.82410000  0.49800000  0.98950000  0.1667 0.1655783855
C  C612  1  0.67590000  0.49800000  0.51050000  0.1667 0.16146827
C  C613  1  0.82410000  0.01050000  0.99800000  0.1667 0.1655783855
C  C614  1  0.67590000  0.48950000  0.99800000  0.1667 0.16146827
C  C615  1  0.82410000  0.48950000  0.50200000  0.1667 0.16146827
C  C616  1  0.67590000  0.01050000  0.50200000  0.1667 0.16146827
C  C617  1  0.51050000  0.00200000  0.67590000  0.1667 0.16146827
C  C618  1  0.98950000  0.00200000  0.82410000  0.1667 0.1655783855
C  C619  1  0.98950000  0.49800000  0.67590000  0.1667 0.16146827
C  C620  1  0.51050000  0.49800000  0.82410000  0.1667 0.16146827
C  C621  1  0.50200000  0.32410000  0.98950000  0.1667 0.16146827
C  C622  1  0.50200000  0.17590000  0.51050000  0.1667 0.16146827
C  C623  1  0.99800000  0.32410000  0.51050000  0.1667 0.16146827
C  C624  1  0.99800000  0.17590000  0.98950000  0.1667 0.1655783855
C  C625  1  0.51050000  0.82410000  0.00200000  0.1667 0.1655783855
C  C626  1  0.98950000  0.67590000  0.00200000  0.1667 0.1655783855
C  C627  1  0.98950000  0.82410000  0.49800000  0.1667 0.1655783855
C  C628  1  0.51050000  0.67590000  0.49800000  0.1667 0.16146827
C  C629  1  0.50200000  0.51050000  0.32410000  0.1667 0.16146827
C  C630  1  0.50200000  0.98950000  0.17590000  0.1667 0.1655783855
C  C631  1  0.99800000  0.98950000  0.32410000  0.1667 0.1655783855
C  C632  1  0.99800000  0.51050000  0.17590000  0.1667 0.1655783855
C  C633  1  0.82410000  0.50200000  0.01050000  0.1667 0.1655783855
C  C634  1  0.67590000  0.50200000  0.48950000  0.1667 0.16146827
C  C635  1  0.82410000  0.99800000  0.48950000  0.1667 0.1655783855
C  C636  1  0.67590000  0.99800000  0.01050000  0.1667 0.1655783855
C  C637  1  0.82410000  0.51050000  0.49800000  0.1667 0.16146827
C  C638  1  0.67590000  0.98950000  0.49800000  0.1667 0.1655783855
C  C639  1  0.82410000  0.98950000  0.00200000  0.1667 0.1655783855
C  C640  1  0.67590000  0.51050000  0.00200000  0.1667 0.1655783855
C  C641  1  0.51050000  0.50200000  0.17590000  0.1667 0.16146827
C  C642  1  0.98950000  0.50200000  0.32410000  0.1667 0.16146827
C  C643  1  0.98950000  0.99800000  0.17590000  0.1667 0.1655783855
C  C644  1  0.51050000  0.99800000  0.32410000  0.1667 0.1655783855
C  C645  1  0.50200000  0.82410000  0.48950000  0.1667 0.16146827
C  C646  1  0.50200000  0.67590000  0.01050000  0.1667 0.16146827
C  C647  1  0.99800000  0.82410000  0.01050000  0.1667 0.1655783855
C  C648  1  0.99800000  0.67590000  0.48950000  0.1667 0.16146827
C  C649  1  0.48950000  0.17590000  0.49800000  0.1667 0.16146827
C  C650  1  0.01050000  0.32410000  0.49800000  0.1667 0.16146827
C  C651  1  0.01050000  0.17590000  0.00200000  0.1667 0.1655783855
C  C652  1  0.48950000  0.32410000  0.00200000  0.1667 0.16146827
C  C653  1  0.49800000  0.48950000  0.17590000  0.1667 0.16146827
C  C654  1  0.49800000  0.01050000  0.32410000  0.1667 0.16146827
C  C655  1  0.00200000  0.01050000  0.17590000  0.1667 0.1655783855
C  C656  1  0.00200000  0.48950000  0.32410000  0.1667 0.16146827
C  C657  1  0.17590000  0.49800000  0.48950000  0.1667 0.16146827
C  C658  1  0.32410000  0.49800000  0.01050000  0.1667 0.16146827
C  C659  1  0.17590000  0.00200000  0.01050000  0.1667 0.1655783855
C  C660  1  0.32410000  0.00200000  0.48950000  0.1667 0.16146827
C  C661  1  0.17590000  0.48950000  0.00200000  0.1667 0.1655783855
C  C662  1  0.32410000  0.01050000  0.00200000  0.1667 0.1655783855
C  C663  1  0.17590000  0.01050000  0.49800000  0.1667 0.16146827
C  C664  1  0.32410000  0.48950000  0.49800000  0.1667 0.16146827
C  C665  1  0.48950000  0.49800000  0.32410000  0.1667 0.16146827
C  C666  1  0.01050000  0.49800000  0.17590000  0.1667 0.1655783855
C  C667  1  0.01050000  0.00200000  0.32410000  0.1667 0.1655783855
C  C668  1  0.48950000  0.00200000  0.17590000  0.1667 0.1655783855
C  C669  1  0.49800000  0.17590000  0.01050000  0.1667 0.1655783855
C  C670  1  0.49800000  0.32410000  0.48950000  0.1667 0.16146827
C  C671  1  0.00200000  0.17590000  0.48950000  0.1667 0.1655783855
C  C672  1  0.00200000  0.32410000  0.01050000  0.1667 0.1655783855
C  C673  1  0.48950000  0.67590000  0.99800000  0.1667 0.16146827
C  C674  1  0.01050000  0.82410000  0.99800000  0.1667 0.1655783855
C  C675  1  0.01050000  0.67590000  0.50200000  0.1667 0.16146827
C  C676  1  0.48950000  0.82410000  0.50200000  0.1667 0.16146827
C  C677  1  0.49800000  0.98950000  0.67590000  0.1667 0.16146827
C  C678  1  0.49800000  0.51050000  0.82410000  0.1667 0.16146827
C  C679  1  0.00200000  0.51050000  0.67590000  0.1667 0.16146827
C  C680  1  0.00200000  0.98950000  0.82410000  0.1667 0.1655783855
C  C681  1  0.17590000  0.99800000  0.98950000  0.1667 0.1655783855
C  C682  1  0.32410000  0.99800000  0.51050000  0.1667 0.16146827
C  C683  1  0.17590000  0.50200000  0.51050000  0.1667 0.16146827
C  C684  1  0.32410000  0.50200000  0.98950000  0.1667 0.16146827
C  C685  1  0.17590000  0.98950000  0.50200000  0.1667 0.1655783855
C  C686  1  0.32410000  0.51050000  0.50200000  0.1667 0.16146827
C  C687  1  0.17590000  0.51050000  0.99800000  0.1667 0.16146827
C  C688  1  0.32410000  0.98950000  0.99800000  0.1667 0.1655783855
C  C689  1  0.48950000  0.99800000  0.82410000  0.1667 0.1655783855
C  C690  1  0.01050000  0.99800000  0.67590000  0.1667 0.1655783855
C  C691  1  0.01050000  0.50200000  0.82410000  0.1667 0.1655783855
C  C692  1  0.48950000  0.50200000  0.67590000  0.1667 0.16146827
C  C693  1  0.49800000  0.67590000  0.51050000  0.1667 0.16146827
C  C694  1  0.49800000  0.82410000  0.98950000  0.1667 0.1655783855
C  C695  1  0.00200000  0.67590000  0.98950000  0.1667 0.1655783855
C  C696  1  0.00200000  0.82410000  0.51050000  0.1667 0.1655783855
C  C697  1  0.98950000  0.17590000  0.99800000  0.1667 0.1655783855
C  C698  1  0.51050000  0.32410000  0.99800000  0.1667 0.16146827
C  C699  1  0.51050000  0.17590000  0.50200000  0.1667 0.16146827
C  C700  1  0.98950000  0.32410000  0.50200000  0.1667 0.16146827
C  C701  1  0.99800000  0.48950000  0.67590000  0.1667 0.16146827
C  C702  1  0.99800000  0.01050000  0.82410000  0.1667 0.1655783855
C  C703  1  0.50200000  0.01050000  0.67590000  0.1667 0.16146827
C  C704  1  0.50200000  0.48950000  0.82410000  0.1667 0.16146827
C  C705  1  0.67590000  0.49800000  0.98950000  0.1667 0.16146827
C  C706  1  0.82410000  0.49800000  0.51050000  0.1667 0.16146827
C  C707  1  0.67590000  0.00200000  0.51050000  0.1667 0.16146827
C  C708  1  0.82410000  0.00200000  0.98950000  0.1667 0.1655783855
C  C709  1  0.67590000  0.48950000  0.50200000  0.1667 0.16146827
C  C710  1  0.82410000  0.01050000  0.50200000  0.1667 0.1655783855
C  C711  1  0.67590000  0.01050000  0.99800000  0.1667 0.1655783855
C  C712  1  0.82410000  0.48950000  0.99800000  0.1667 0.1655783855
C  C713  1  0.98950000  0.49800000  0.82410000  0.1667 0.1655783855
C  C714  1  0.51050000  0.49800000  0.67590000  0.1667 0.16146827
C  C715  1  0.51050000  0.00200000  0.82410000  0.1667 0.16146827
C  C716  1  0.98950000  0.00200000  0.67590000  0.1667 0.1655783855
C  C717  1  0.99800000  0.17590000  0.51050000  0.1667 0.1655783855
C  C718  1  0.99800000  0.32410000  0.98950000  0.1667 0.1655783855
C  C719  1  0.50200000  0.17590000  0.98950000  0.1667 0.1655783855
C  C720  1  0.50200000  0.32410000  0.51050000  0.1667 0.16146827
C  C721  1  0.98950000  0.67590000  0.49800000  0.1667 0.16146827
C  C722  1  0.51050000  0.82410000  0.49800000  0.1667 0.16146827
C  C723  1  0.51050000  0.67590000  0.00200000  0.1667 0.16146827
C  C724  1  0.98950000  0.82410000  0.00200000  0.1667 0.1655783855
C  C725  1  0.99800000  0.98950000  0.17590000  0.1667 0.1655783855
C  C726  1  0.99800000  0.51050000  0.32410000  0.1667 0.16146827
C  C727  1  0.50200000  0.51050000  0.17590000  0.1667 0.16146827
C  C728  1  0.50200000  0.98950000  0.32410000  0.1667 0.1655783855
C  C729  1  0.67590000  0.99800000  0.48950000  0.1667 0.1655783855
C  C730  1  0.82410000  0.99800000  0.01050000  0.1667 0.1655783855
C  C731  1  0.67590000  0.50200000  0.01050000  0.1667 0.16146827
C  C732  1  0.82410000  0.50200000  0.48950000  0.1667 0.16146827
C  C733  1  0.67590000  0.98950000  0.00200000  0.1667 0.1655783855
C  C734  1  0.82410000  0.51050000  0.00200000  0.1667 0.1655783855
C  C735  1  0.67590000  0.51050000  0.49800000  0.1667 0.16146827
C  C736  1  0.82410000  0.98950000  0.49800000  0.1667 0.1655783855
C  C737  1  0.98950000  0.99800000  0.32410000  0.1667 0.1655783855
C  C738  1  0.51050000  0.99800000  0.17590000  0.1667 0.1655783855
C  C739  1  0.51050000  0.50200000  0.32410000  0.1667 0.16146827
C  C740  1  0.98950000  0.50200000  0.17590000  0.1667 0.1655783855
C  C741  1  0.99800000  0.67590000  0.01050000  0.1667 0.1655783855
C  C742  1  0.99800000  0.82410000  0.48950000  0.1667 0.1655783855
C  C743  1  0.50200000  0.67590000  0.48950000  0.1667 0.16146827
C  C744  1  0.50200000  0.82410000  0.01050000  0.1667 0.1655783855
N  N1  1  0.02830000  0.14260000  0.03270000  0.1667 -0.1399161275
N  N2  1  0.47170000  0.35740000  0.03270000  0.1667 -0.1399161275
N  N3  1  0.47170000  0.14260000  0.46730000  0.1667 -0.1399161275
N  N4  1  0.02830000  0.35740000  0.46730000  0.1667 -0.1399161275
N  N5  1  0.03270000  0.02830000  0.14260000  0.1667 -0.1399161275
N  N6  1  0.03270000  0.47170000  0.35740000  0.1667 -0.1399161275
N  N7  1  0.46730000  0.47170000  0.14260000  0.1667 -0.1399161275
N  N8  1  0.46730000  0.02830000  0.35740000  0.1667 -0.1399161275
N  N9  1  0.14260000  0.03270000  0.02830000  0.1667 -0.1399161275
N  N10  1  0.35740000  0.03270000  0.47170000  0.1667 -0.1399161275
N  N11  1  0.14260000  0.46730000  0.47170000  0.1667 -0.1399161275
N  N12  1  0.35740000  0.46730000  0.02830000  0.1667 -0.1399161275
N  N13  1  0.14260000  0.02830000  0.46730000  0.1667 -0.1399161275
N  N14  1  0.35740000  0.47170000  0.46730000  0.1667 -0.1399161275
N  N15  1  0.14260000  0.47170000  0.03270000  0.1667 -0.1399161275
N  N16  1  0.35740000  0.02830000  0.03270000  0.1667 -0.1399161275
N  N17  1  0.02830000  0.03270000  0.35740000  0.1667 -0.1399161275
N  N18  1  0.47170000  0.03270000  0.14260000  0.1667 -0.1399161275
N  N19  1  0.47170000  0.46730000  0.35740000  0.1667 -0.1399161275
N  N20  1  0.02830000  0.46730000  0.14260000  0.1667 -0.1399161275
N  N21  1  0.03270000  0.14260000  0.47170000  0.1667 -0.1399161275
N  N22  1  0.03270000  0.35740000  0.02830000  0.1667 -0.1399161275
N  N23  1  0.46730000  0.14260000  0.02830000  0.1667 -0.1399161275
N  N24  1  0.46730000  0.35740000  0.47170000  0.1667 -0.1399161275
N  N25  1  0.02830000  0.64260000  0.53270000  0.1667 -0.1399161275
N  N26  1  0.47170000  0.85740000  0.53270000  0.1667 -0.1399161275
N  N27  1  0.47170000  0.64260000  0.96730000  0.1667 -0.1399161275
N  N28  1  0.02830000  0.85740000  0.96730000  0.1667 -0.1399161275
N  N29  1  0.03270000  0.52830000  0.64260000  0.1667 -0.1399161275
N  N30  1  0.03270000  0.97170000  0.85740000  0.1667 -0.1399161275
N  N31  1  0.46730000  0.97170000  0.64260000  0.1667 -0.1399161275
N  N32  1  0.46730000  0.52830000  0.85740000  0.1667 -0.134981333
N  N33  1  0.14260000  0.53270000  0.52830000  0.1667 -0.1399161275
N  N34  1  0.35740000  0.53270000  0.97170000  0.1667 -0.1399161275
N  N35  1  0.14260000  0.96730000  0.97170000  0.1667 -0.1399161275
N  N36  1  0.35740000  0.96730000  0.52830000  0.1667 -0.1399161275
N  N37  1  0.14260000  0.52830000  0.96730000  0.1667 -0.1399161275
N  N38  1  0.35740000  0.97170000  0.96730000  0.1667 -0.1399161275
N  N39  1  0.14260000  0.97170000  0.53270000  0.1667 -0.1399161275
N  N40  1  0.35740000  0.52830000  0.53270000  0.1667 -0.1399161275
N  N41  1  0.02830000  0.53270000  0.85740000  0.1667 -0.1399161275
N  N42  1  0.47170000  0.53270000  0.64260000  0.1667 -0.1399161275
N  N43  1  0.47170000  0.96730000  0.85740000  0.1667 -0.1399161275
N  N44  1  0.02830000  0.96730000  0.64260000  0.1667 -0.1399161275
N  N45  1  0.03270000  0.64260000  0.97170000  0.1667 -0.1399161275
N  N46  1  0.03270000  0.85740000  0.52830000  0.1667 -0.1399161275
N  N47  1  0.46730000  0.64260000  0.52830000  0.1667 -0.1399161275
N  N48  1  0.46730000  0.85740000  0.97170000  0.1667 -0.1399161275
N  N49  1  0.52830000  0.14260000  0.53270000  0.1667 -0.1399161275
N  N50  1  0.97170000  0.35740000  0.53270000  0.1667 -0.1399161275
N  N51  1  0.97170000  0.14260000  0.96730000  0.1667 -0.1399161275
N  N52  1  0.52830000  0.35740000  0.96730000  0.1667 -0.1399161275
N  N53  1  0.53270000  0.02830000  0.64260000  0.1667 -0.1399161275
N  N54  1  0.53270000  0.47170000  0.85740000  0.1667 -0.134981333
N  N55  1  0.96730000  0.47170000  0.64260000  0.1667 -0.1399161275
N  N56  1  0.96730000  0.02830000  0.85740000  0.1667 -0.1399161275
N  N57  1  0.64260000  0.03270000  0.52830000  0.1667 -0.1399161275
N  N58  1  0.85740000  0.03270000  0.97170000  0.1667 -0.1399161275
N  N59  1  0.64260000  0.46730000  0.97170000  0.1667 -0.1399161275
N  N60  1  0.85740000  0.46730000  0.52830000  0.1667 -0.134981333
N  N61  1  0.64260000  0.02830000  0.96730000  0.1667 -0.1399161275
N  N62  1  0.85740000  0.47170000  0.96730000  0.1667 -0.1399161275
N  N63  1  0.64260000  0.47170000  0.53270000  0.1667 -0.1399161275
N  N64  1  0.85740000  0.02830000  0.53270000  0.1667 -0.1399161275
N  N65  1  0.52830000  0.03270000  0.85740000  0.1667 -0.1399161275
N  N66  1  0.97170000  0.03270000  0.64260000  0.1667 -0.1399161275
N  N67  1  0.97170000  0.46730000  0.85740000  0.1667 -0.1399161275
N  N68  1  0.52830000  0.46730000  0.64260000  0.1667 -0.1399161275
N  N69  1  0.53270000  0.14260000  0.97170000  0.1667 -0.1399161275
N  N70  1  0.53270000  0.35740000  0.52830000  0.1667 -0.1399161275
N  N71  1  0.96730000  0.14260000  0.52830000  0.1667 -0.1399161275
N  N72  1  0.96730000  0.35740000  0.97170000  0.1667 -0.1399161275
N  N73  1  0.52830000  0.64260000  0.03270000  0.1667 -0.1399161275
N  N74  1  0.97170000  0.85740000  0.03270000  0.1667 -0.1399161275
N  N75  1  0.97170000  0.64260000  0.46730000  0.1667 -0.1399161275
N  N76  1  0.52830000  0.85740000  0.46730000  0.1667 -0.1399161275
N  N77  1  0.53270000  0.52830000  0.14260000  0.1667 -0.1399161275
N  N78  1  0.53270000  0.97170000  0.35740000  0.1667 -0.1399161275
N  N79  1  0.96730000  0.97170000  0.14260000  0.1667 -0.1399161275
N  N80  1  0.96730000  0.52830000  0.35740000  0.1667 -0.1399161275
N  N81  1  0.64260000  0.53270000  0.02830000  0.1667 -0.1399161275
N  N82  1  0.85740000  0.53270000  0.47170000  0.1667 -0.1399161275
N  N83  1  0.64260000  0.96730000  0.47170000  0.1667 -0.1399161275
N  N84  1  0.85740000  0.96730000  0.02830000  0.1667 -0.1399161275
N  N85  1  0.64260000  0.52830000  0.46730000  0.1667 -0.1399161275
N  N86  1  0.85740000  0.97170000  0.46730000  0.1667 -0.1399161275
N  N87  1  0.64260000  0.97170000  0.03270000  0.1667 -0.1399161275
N  N88  1  0.85740000  0.52830000  0.03270000  0.1667 -0.1399161275
N  N89  1  0.52830000  0.53270000  0.35740000  0.1667 -0.1399161275
N  N90  1  0.97170000  0.53270000  0.14260000  0.1667 -0.1399161275
N  N91  1  0.97170000  0.96730000  0.35740000  0.1667 -0.1399161275
N  N92  1  0.52830000  0.96730000  0.14260000  0.1667 -0.1399161275
N  N93  1  0.53270000  0.64260000  0.47170000  0.1667 -0.1399161275
N  N94  1  0.53270000  0.85740000  0.02830000  0.1667 -0.1399161275
N  N95  1  0.96730000  0.64260000  0.02830000  0.1667 -0.1399161275
N  N96  1  0.96730000  0.85740000  0.47170000  0.1667 -0.1399161275
N  N97  1  0.47170000  0.35740000  0.46730000  0.1667 -0.1399161275
N  N98  1  0.02830000  0.14260000  0.46730000  0.1667 -0.1399161275
N  N99  1  0.02830000  0.35740000  0.03270000  0.1667 -0.1399161275
N  N100  1  0.47170000  0.14260000  0.03270000  0.1667 -0.1399161275
N  N101  1  0.46730000  0.47170000  0.35740000  0.1667 -0.1399161275
N  N102  1  0.46730000  0.02830000  0.14260000  0.1667 -0.1399161275
N  N103  1  0.03270000  0.02830000  0.35740000  0.1667 -0.1399161275
N  N104  1  0.03270000  0.47170000  0.14260000  0.1667 -0.1399161275
N  N105  1  0.35740000  0.46730000  0.47170000  0.1667 -0.1399161275
N  N106  1  0.14260000  0.46730000  0.02830000  0.1667 -0.1399161275
N  N107  1  0.35740000  0.03270000  0.02830000  0.1667 -0.1399161275
N  N108  1  0.14260000  0.03270000  0.47170000  0.1667 -0.1399161275
N  N109  1  0.35740000  0.47170000  0.03270000  0.1667 -0.1399161275
N  N110  1  0.14260000  0.02830000  0.03270000  0.1667 -0.1399161275
N  N111  1  0.35740000  0.02830000  0.46730000  0.1667 -0.1399161275
N  N112  1  0.14260000  0.47170000  0.46730000  0.1667 -0.1399161275
N  N113  1  0.47170000  0.46730000  0.14260000  0.1667 -0.1399161275
N  N114  1  0.02830000  0.46730000  0.35740000  0.1667 -0.1399161275
N  N115  1  0.02830000  0.03270000  0.14260000  0.1667 -0.1399161275
N  N116  1  0.47170000  0.03270000  0.35740000  0.1667 -0.1399161275
N  N117  1  0.46730000  0.35740000  0.02830000  0.1667 -0.1399161275
N  N118  1  0.46730000  0.14260000  0.47170000  0.1667 -0.1399161275
N  N119  1  0.03270000  0.35740000  0.47170000  0.1667 -0.1399161275
N  N120  1  0.03270000  0.14260000  0.02830000  0.1667 -0.1399161275
N  N121  1  0.47170000  0.85740000  0.96730000  0.1667 -0.1399161275
N  N122  1  0.02830000  0.64260000  0.96730000  0.1667 -0.1399161275
N  N123  1  0.02830000  0.85740000  0.53270000  0.1667 -0.1399161275
N  N124  1  0.47170000  0.64260000  0.53270000  0.1667 -0.1399161275
N  N125  1  0.46730000  0.97170000  0.85740000  0.1667 -0.1399161275
N  N126  1  0.46730000  0.52830000  0.64260000  0.1667 -0.1399161275
N  N127  1  0.03270000  0.52830000  0.85740000  0.1667 -0.1399161275
N  N128  1  0.03270000  0.97170000  0.64260000  0.1667 -0.1399161275
N  N129  1  0.35740000  0.96730000  0.97170000  0.1667 -0.1399161275
N  N130  1  0.14260000  0.96730000  0.52830000  0.1667 -0.1399161275
N  N131  1  0.35740000  0.53270000  0.52830000  0.1667 -0.1399161275
N  N132  1  0.14260000  0.53270000  0.97170000  0.1667 -0.1399161275
N  N133  1  0.35740000  0.97170000  0.53270000  0.1667 -0.1399161275
N  N134  1  0.14260000  0.52830000  0.53270000  0.1667 -0.1399161275
N  N135  1  0.35740000  0.52830000  0.96730000  0.1667 -0.1399161275
N  N136  1  0.14260000  0.97170000  0.96730000  0.1667 -0.1399161275
N  N137  1  0.47170000  0.96730000  0.64260000  0.1667 -0.1399161275
N  N138  1  0.02830000  0.96730000  0.85740000  0.1667 -0.1399161275
N  N139  1  0.02830000  0.53270000  0.64260000  0.1667 -0.1399161275
N  N140  1  0.47170000  0.53270000  0.85740000  0.1667 -0.134981333
N  N141  1  0.46730000  0.85740000  0.52830000  0.1667 -0.1399161275
N  N142  1  0.46730000  0.64260000  0.97170000  0.1667 -0.1399161275
N  N143  1  0.03270000  0.85740000  0.97170000  0.1667 -0.1399161275
N  N144  1  0.03270000  0.64260000  0.52830000  0.1667 -0.1399161275
N  N145  1  0.97170000  0.35740000  0.96730000  0.1667 -0.1399161275
N  N146  1  0.52830000  0.14260000  0.96730000  0.1667 -0.1399161275
N  N147  1  0.52830000  0.35740000  0.53270000  0.1667 -0.1399161275
N  N148  1  0.97170000  0.14260000  0.53270000  0.1667 -0.1399161275
N  N149  1  0.96730000  0.47170000  0.85740000  0.1667 -0.1399161275
N  N150  1  0.96730000  0.02830000  0.64260000  0.1667 -0.1399161275
N  N151  1  0.53270000  0.02830000  0.85740000  0.1667 -0.1399161275
N  N152  1  0.53270000  0.47170000  0.64260000  0.1667 -0.1399161275
N  N153  1  0.85740000  0.46730000  0.97170000  0.1667 -0.1399161275
N  N154  1  0.64260000  0.46730000  0.52830000  0.1667 -0.1399161275
N  N155  1  0.85740000  0.03270000  0.52830000  0.1667 -0.1399161275
N  N156  1  0.64260000  0.03270000  0.97170000  0.1667 -0.1399161275
N  N157  1  0.85740000  0.47170000  0.53270000  0.1667 -0.1399161275
N  N158  1  0.64260000  0.02830000  0.53270000  0.1667 -0.1399161275
N  N159  1  0.85740000  0.02830000  0.96730000  0.1667 -0.1399161275
N  N160  1  0.64260000  0.47170000  0.96730000  0.1667 -0.1399161275
N  N161  1  0.97170000  0.46730000  0.64260000  0.1667 -0.1399161275
N  N162  1  0.52830000  0.46730000  0.85740000  0.1667 -0.134981333
N  N163  1  0.52830000  0.03270000  0.64260000  0.1667 -0.1399161275
N  N164  1  0.97170000  0.03270000  0.85740000  0.1667 -0.1399161275
N  N165  1  0.96730000  0.35740000  0.52830000  0.1667 -0.1399161275
N  N166  1  0.96730000  0.14260000  0.97170000  0.1667 -0.1399161275
N  N167  1  0.53270000  0.35740000  0.97170000  0.1667 -0.1399161275
N  N168  1  0.53270000  0.14260000  0.52830000  0.1667 -0.1399161275
N  N169  1  0.97170000  0.85740000  0.46730000  0.1667 -0.1399161275
N  N170  1  0.52830000  0.64260000  0.46730000  0.1667 -0.1399161275
N  N171  1  0.52830000  0.85740000  0.03270000  0.1667 -0.1399161275
N  N172  1  0.97170000  0.64260000  0.03270000  0.1667 -0.1399161275
N  N173  1  0.96730000  0.97170000  0.35740000  0.1667 -0.1399161275
N  N174  1  0.96730000  0.52830000  0.14260000  0.1667 -0.1399161275
N  N175  1  0.53270000  0.52830000  0.35740000  0.1667 -0.1399161275
N  N176  1  0.53270000  0.97170000  0.14260000  0.1667 -0.1399161275
N  N177  1  0.85740000  0.96730000  0.47170000  0.1667 -0.1399161275
N  N178  1  0.64260000  0.96730000  0.02830000  0.1667 -0.1399161275
N  N179  1  0.85740000  0.53270000  0.02830000  0.1667 -0.1399161275
N  N180  1  0.64260000  0.53270000  0.47170000  0.1667 -0.1399161275
N  N181  1  0.85740000  0.97170000  0.03270000  0.1667 -0.1399161275
N  N182  1  0.64260000  0.52830000  0.03270000  0.1667 -0.1399161275
N  N183  1  0.85740000  0.52830000  0.46730000  0.1667 -0.1399161275
N  N184  1  0.64260000  0.97170000  0.46730000  0.1667 -0.1399161275
N  N185  1  0.97170000  0.96730000  0.14260000  0.1667 -0.1399161275
N  N186  1  0.52830000  0.96730000  0.35740000  0.1667 -0.1399161275
N  N187  1  0.52830000  0.53270000  0.14260000  0.1667 -0.1399161275
N  N188  1  0.97170000  0.53270000  0.35740000  0.1667 -0.1399161275
N  N189  1  0.96730000  0.85740000  0.02830000  0.1667 -0.1399161275
N  N190  1  0.96730000  0.64260000  0.47170000  0.1667 -0.1399161275
N  N191  1  0.53270000  0.85740000  0.47170000  0.1667 -0.1399161275
N  N192  1  0.53270000  0.64260000  0.02830000  0.1667 -0.1399161275
N  N193  1  0.97290000  0.14350000  0.98900000  0.1667 -0.0138670078
N  N194  1  0.52710000  0.35650000  0.98900000  0.1667 -0.0173248133
N  N195  1  0.52710000  0.14350000  0.51100000  0.1667 0.0077072105
N  N196  1  0.97290000  0.35650000  0.51100000  0.1667 -0.0173248133
N  N197  1  0.98900000  0.97290000  0.14350000  0.1667 -0.0138670078
N  N198  1  0.98900000  0.52710000  0.35650000  0.1667 -0.0138670078
N  N199  1  0.51100000  0.52710000  0.14350000  0.1667 0.0077072105
N  N200  1  0.51100000  0.97290000  0.35650000  0.1667 -0.0173248133
N  N201  1  0.14350000  0.98900000  0.97290000  0.1667 -0.0173248133
N  N202  1  0.35650000  0.98900000  0.52710000  0.1667 -0.0173248133
N  N203  1  0.14350000  0.51100000  0.52710000  0.1667 0.00452795
N  N204  1  0.35650000  0.51100000  0.97290000  0.1667 -0.0173248133
N  N205  1  0.14350000  0.97290000  0.51100000  0.1667 -0.0173248133
N  N206  1  0.35650000  0.52710000  0.51100000  0.1667 -0.0018507866
N  N207  1  0.14350000  0.52710000  0.98900000  0.1667 -0.0173248133
N  N208  1  0.35650000  0.97290000  0.98900000  0.1667 -0.0173248133
N  N209  1  0.97290000  0.98900000  0.35650000  0.1667 -0.0138670078
N  N210  1  0.52710000  0.98900000  0.14350000  0.1667 -0.0173248133
N  N211  1  0.52710000  0.51100000  0.35650000  0.1667 -0.0018507866
N  N212  1  0.97290000  0.51100000  0.14350000  0.1667 -0.0138670078
N  N213  1  0.98900000  0.14350000  0.52710000  0.1667 -0.0138670078
N  N214  1  0.98900000  0.35650000  0.97290000  0.1667 -0.0138670078
N  N215  1  0.51100000  0.14350000  0.97290000  0.1667 -0.0138670078
N  N216  1  0.51100000  0.35650000  0.52710000  0.1667 -0.0018507866
N  N217  1  0.97290000  0.64350000  0.48900000  0.1667 -0.0173248133
N  N218  1  0.52710000  0.85650000  0.48900000  0.1667 0.0077072105
N  N219  1  0.52710000  0.64350000  0.01100000  0.1667 -0.0173248133
N  N220  1  0.97290000  0.85650000  0.01100000  0.1667 -0.0138670078
N  N221  1  0.98900000  0.47290000  0.64350000  0.1667 -0.0138670078
N  N222  1  0.98900000  0.02710000  0.85650000  0.1667 -0.0138670078
N  N223  1  0.51100000  0.02710000  0.64350000  0.1667 -0.0173248133
N  N224  1  0.51100000  0.47290000  0.85650000  0.1667 0.0077072105
N  N225  1  0.14350000  0.48900000  0.47290000  0.1667 0.00452795
N  N226  1  0.35650000  0.48900000  0.02710000  0.1667 -0.0173248133
N  N227  1  0.14350000  0.01100000  0.02710000  0.1667 -0.0138670078
N  N228  1  0.35650000  0.01100000  0.47290000  0.1667 -0.0173248133
N  N229  1  0.14350000  0.47290000  0.01100000  0.1667 -0.0173248133
N  N230  1  0.35650000  0.02710000  0.01100000  0.1667 -0.0138670078
N  N231  1  0.14350000  0.02710000  0.48900000  0.1667 -0.0173248133
N  N232  1  0.35650000  0.47290000  0.48900000  0.1667 -0.0018507866
N  N233  1  0.97290000  0.48900000  0.85650000  0.1667 -0.0138670078
N  N234  1  0.52710000  0.48900000  0.64350000  0.1667 -0.0018507866
N  N235  1  0.52710000  0.01100000  0.85650000  0.1667 -0.0138670078
N  N236  1  0.97290000  0.01100000  0.64350000  0.1667 -0.0138670078
N  N237  1  0.98900000  0.64350000  0.02710000  0.1667 -0.0138670078
N  N238  1  0.98900000  0.85650000  0.47290000  0.1667 -0.0138670078
N  N239  1  0.51100000  0.64350000  0.47290000  0.1667 -0.0018507866
N  N240  1  0.51100000  0.85650000  0.02710000  0.1667 -0.0173248133
N  N241  1  0.47290000  0.14350000  0.48900000  0.1667 0.0077072105
N  N242  1  0.02710000  0.35650000  0.48900000  0.1667 -0.0173248133
N  N243  1  0.02710000  0.14350000  0.01100000  0.1667 -0.0173248133
N  N244  1  0.47290000  0.35650000  0.01100000  0.1667 -0.0173248133
N  N245  1  0.48900000  0.97290000  0.64350000  0.1667 -0.0173248133
N  N246  1  0.48900000  0.52710000  0.85650000  0.1667 0.0077072105
N  N247  1  0.01100000  0.52710000  0.64350000  0.1667 -0.0173248133
N  N248  1  0.01100000  0.97290000  0.85650000  0.1667 -0.0173248133
N  N249  1  0.64350000  0.98900000  0.47290000  0.1667 -0.0173248133
N  N250  1  0.85650000  0.98900000  0.02710000  0.1667 -0.0138670078
N  N251  1  0.64350000  0.51100000  0.02710000  0.1667 -0.0173248133
N  N252  1  0.85650000  0.51100000  0.47290000  0.1667 0.0077072105
N  N253  1  0.64350000  0.97290000  0.01100000  0.1667 -0.0173248133
N  N254  1  0.85650000  0.52710000  0.01100000  0.1667 -0.0138670078
N  N255  1  0.64350000  0.52710000  0.48900000  0.1667 -0.0018507866
N  N256  1  0.85650000  0.97290000  0.48900000  0.1667 -0.0138670078
N  N257  1  0.47290000  0.98900000  0.85650000  0.1667 -0.0173248133
N  N258  1  0.02710000  0.98900000  0.64350000  0.1667 -0.0173248133
N  N259  1  0.02710000  0.51100000  0.85650000  0.1667 -0.0173248133
N  N260  1  0.47290000  0.51100000  0.64350000  0.1667 -0.0018507866
N  N261  1  0.48900000  0.14350000  0.02710000  0.1667 -0.0138670078
N  N262  1  0.48900000  0.35650000  0.47290000  0.1667 -0.0018507866
N  N263  1  0.01100000  0.14350000  0.47290000  0.1667 -0.0173248133
N  N264  1  0.01100000  0.35650000  0.02710000  0.1667 -0.0173248133
N  N265  1  0.47290000  0.64350000  0.98900000  0.1667 -0.0173248133
N  N266  1  0.02710000  0.85650000  0.98900000  0.1667 -0.0173248133
N  N267  1  0.02710000  0.64350000  0.51100000  0.1667 -0.0173248133
N  N268  1  0.47290000  0.85650000  0.51100000  0.1667 0.0077072105
N  N269  1  0.48900000  0.47290000  0.14350000  0.1667 0.0077072105
N  N270  1  0.48900000  0.02710000  0.35650000  0.1667 -0.0173248133
N  N271  1  0.01100000  0.02710000  0.14350000  0.1667 -0.0173248133
N  N272  1  0.01100000  0.47290000  0.35650000  0.1667 -0.0173248133
N  N273  1  0.64350000  0.48900000  0.97290000  0.1667 -0.0173248133
N  N274  1  0.85650000  0.48900000  0.52710000  0.1667 0.0077072105
N  N275  1  0.64350000  0.01100000  0.52710000  0.1667 -0.0138670078
N  N276  1  0.85650000  0.01100000  0.97290000  0.1667 -0.0138670078
N  N277  1  0.64350000  0.47290000  0.51100000  0.1667 -0.0018507866
N  N278  1  0.85650000  0.02710000  0.51100000  0.1667 -0.0138670078
N  N279  1  0.64350000  0.02710000  0.98900000  0.1667 -0.0138670078
N  N280  1  0.85650000  0.47290000  0.98900000  0.1667 -0.0138670078
N  N281  1  0.47290000  0.48900000  0.35650000  0.1667 -0.0018507866
N  N282  1  0.02710000  0.48900000  0.14350000  0.1667 -0.0173248133
N  N283  1  0.02710000  0.01100000  0.35650000  0.1667 -0.0173248133
N  N284  1  0.47290000  0.01100000  0.14350000  0.1667 -0.0138670078
N  N285  1  0.48900000  0.64350000  0.52710000  0.1667 -0.0018507866
N  N286  1  0.48900000  0.85650000  0.97290000  0.1667 -0.0173248133
N  N287  1  0.01100000  0.64350000  0.97290000  0.1667 -0.0173248133
N  N288  1  0.01100000  0.85650000  0.52710000  0.1667 -0.0173248133
N  N289  1  0.52710000  0.35650000  0.51100000  0.1667 -0.0018507866
N  N290  1  0.97290000  0.14350000  0.51100000  0.1667 -0.0138670078
N  N291  1  0.97290000  0.35650000  0.98900000  0.1667 -0.0138670078
N  N292  1  0.52710000  0.14350000  0.98900000  0.1667 -0.0138670078
N  N293  1  0.51100000  0.52710000  0.35650000  0.1667 -0.0018507866
N  N294  1  0.51100000  0.97290000  0.14350000  0.1667 -0.0173248133
N  N295  1  0.98900000  0.97290000  0.35650000  0.1667 -0.0138670078
N  N296  1  0.98900000  0.52710000  0.14350000  0.1667 -0.0138670078
N  N297  1  0.35650000  0.51100000  0.52710000  0.1667 -0.0018507866
N  N298  1  0.14350000  0.51100000  0.97290000  0.1667 -0.0173248133
N  N299  1  0.35650000  0.98900000  0.97290000  0.1667 -0.0173248133
N  N300  1  0.14350000  0.98900000  0.52710000  0.1667 -0.0173248133
N  N301  1  0.35650000  0.52710000  0.98900000  0.1667 -0.0173248133
N  N302  1  0.14350000  0.97290000  0.98900000  0.1667 -0.0173248133
N  N303  1  0.35650000  0.97290000  0.51100000  0.1667 -0.0173248133
N  N304  1  0.14350000  0.52710000  0.51100000  0.1667 0.00452795
N  N305  1  0.52710000  0.51100000  0.14350000  0.1667 0.0077072105
N  N306  1  0.97290000  0.51100000  0.35650000  0.1667 -0.0173248133
N  N307  1  0.97290000  0.98900000  0.14350000  0.1667 -0.0138670078
N  N308  1  0.52710000  0.98900000  0.35650000  0.1667 -0.0173248133
N  N309  1  0.51100000  0.35650000  0.97290000  0.1667 -0.0173248133
N  N310  1  0.51100000  0.14350000  0.52710000  0.1667 0.0077072105
N  N311  1  0.98900000  0.35650000  0.52710000  0.1667 -0.0138670078
N  N312  1  0.98900000  0.14350000  0.97290000  0.1667 -0.0138670078
N  N313  1  0.52710000  0.85650000  0.01100000  0.1667 -0.0173248133
N  N314  1  0.97290000  0.64350000  0.01100000  0.1667 -0.0138670078
N  N315  1  0.97290000  0.85650000  0.48900000  0.1667 -0.0138670078
N  N316  1  0.52710000  0.64350000  0.48900000  0.1667 -0.0018507866
N  N317  1  0.51100000  0.02710000  0.85650000  0.1667 -0.0138670078
N  N318  1  0.51100000  0.47290000  0.64350000  0.1667 -0.0018507866
N  N319  1  0.98900000  0.47290000  0.85650000  0.1667 -0.0138670078
N  N320  1  0.98900000  0.02710000  0.64350000  0.1667 -0.0138670078
N  N321  1  0.35650000  0.01100000  0.02710000  0.1667 -0.0138670078
N  N322  1  0.14350000  0.01100000  0.47290000  0.1667 -0.0173248133
N  N323  1  0.35650000  0.48900000  0.47290000  0.1667 -0.0018507866
N  N324  1  0.14350000  0.48900000  0.02710000  0.1667 -0.0173248133
N  N325  1  0.35650000  0.02710000  0.48900000  0.1667 -0.0173248133
N  N326  1  0.14350000  0.47290000  0.48900000  0.1667 0.00452795
N  N327  1  0.35650000  0.47290000  0.01100000  0.1667 -0.0173248133
N  N328  1  0.14350000  0.02710000  0.01100000  0.1667 -0.0138670078
N  N329  1  0.52710000  0.01100000  0.64350000  0.1667 -0.0173248133
N  N330  1  0.97290000  0.01100000  0.85650000  0.1667 -0.0138670078
N  N331  1  0.97290000  0.48900000  0.64350000  0.1667 -0.0173248133
N  N332  1  0.52710000  0.48900000  0.85650000  0.1667 0.0077072105
N  N333  1  0.51100000  0.85650000  0.47290000  0.1667 0.0077072105
N  N334  1  0.51100000  0.64350000  0.02710000  0.1667 -0.0173248133
N  N335  1  0.98900000  0.85650000  0.02710000  0.1667 -0.0138670078
N  N336  1  0.98900000  0.64350000  0.47290000  0.1667 -0.0138670078
N  N337  1  0.02710000  0.35650000  0.01100000  0.1667 -0.0173248133
N  N338  1  0.47290000  0.14350000  0.01100000  0.1667 -0.0138670078
N  N339  1  0.47290000  0.35650000  0.48900000  0.1667 -0.0018507866
N  N340  1  0.02710000  0.14350000  0.48900000  0.1667 -0.0173248133
N  N341  1  0.01100000  0.52710000  0.85650000  0.1667 -0.0173248133
N  N342  1  0.01100000  0.97290000  0.64350000  0.1667 -0.0173248133
N  N343  1  0.48900000  0.97290000  0.85650000  0.1667 -0.0173248133
N  N344  1  0.48900000  0.52710000  0.64350000  0.1667 -0.0018507866
N  N345  1  0.85650000  0.51100000  0.02710000  0.1667 -0.0138670078
N  N346  1  0.64350000  0.51100000  0.47290000  0.1667 -0.0018507866
N  N347  1  0.85650000  0.98900000  0.47290000  0.1667 -0.0138670078
N  N348  1  0.64350000  0.98900000  0.02710000  0.1667 -0.0173248133
N  N349  1  0.85650000  0.52710000  0.48900000  0.1667 0.0077072105
N  N350  1  0.64350000  0.97290000  0.48900000  0.1667 -0.0173248133
N  N351  1  0.85650000  0.97290000  0.01100000  0.1667 -0.0138670078
N  N352  1  0.64350000  0.52710000  0.01100000  0.1667 -0.0173248133
N  N353  1  0.02710000  0.51100000  0.64350000  0.1667 -0.0173248133
N  N354  1  0.47290000  0.51100000  0.85650000  0.1667 0.0077072105
N  N355  1  0.47290000  0.98900000  0.64350000  0.1667 -0.0173248133
N  N356  1  0.02710000  0.98900000  0.85650000  0.1667 -0.0173248133
N  N357  1  0.01100000  0.35650000  0.47290000  0.1667 -0.0173248133
N  N358  1  0.01100000  0.14350000  0.02710000  0.1667 -0.0173248133
N  N359  1  0.48900000  0.35650000  0.02710000  0.1667 -0.0173248133
N  N360  1  0.48900000  0.14350000  0.47290000  0.1667 0.0077072105
N  N361  1  0.02710000  0.85650000  0.51100000  0.1667 -0.0173248133
N  N362  1  0.47290000  0.64350000  0.51100000  0.1667 -0.0018507866
N  N363  1  0.47290000  0.85650000  0.98900000  0.1667 -0.0173248133
N  N364  1  0.02710000  0.64350000  0.98900000  0.1667 -0.0173248133
N  N365  1  0.01100000  0.02710000  0.35650000  0.1667 -0.0173248133
N  N366  1  0.01100000  0.47290000  0.14350000  0.1667 -0.0173248133
N  N367  1  0.48900000  0.47290000  0.35650000  0.1667 -0.0018507866
N  N368  1  0.48900000  0.02710000  0.14350000  0.1667 -0.0138670078
N  N369  1  0.85650000  0.01100000  0.52710000  0.1667 -0.0138670078
N  N370  1  0.64350000  0.01100000  0.97290000  0.1667 -0.0138670078
N  N371  1  0.85650000  0.48900000  0.97290000  0.1667 -0.0138670078
N  N372  1  0.64350000  0.48900000  0.52710000  0.1667 -0.0018507866
N  N373  1  0.85650000  0.02710000  0.98900000  0.1667 -0.0138670078
N  N374  1  0.64350000  0.47290000  0.98900000  0.1667 -0.0173248133
N  N375  1  0.85650000  0.47290000  0.51100000  0.1667 0.0077072105
N  N376  1  0.64350000  0.02710000  0.51100000  0.1667 -0.0173248133
N  N377  1  0.02710000  0.01100000  0.14350000  0.1667 -0.0173248133
N  N378  1  0.47290000  0.01100000  0.35650000  0.1667 -0.0173248133
N  N379  1  0.47290000  0.48900000  0.14350000  0.1667 0.0077072105
N  N380  1  0.02710000  0.48900000  0.35650000  0.1667 -0.0173248133
N  N381  1  0.01100000  0.85650000  0.97290000  0.1667 -0.0173248133
N  N382  1  0.01100000  0.64350000  0.52710000  0.1667 -0.0173248133
N  N383  1  0.48900000  0.85650000  0.52710000  0.1667 0.0077072105
N  N384  1  0.48900000  0.64350000  0.97290000  0.1667 -0.0173248133
O  O1  1  0.00000000  0.50000000  0.00000000  1.0 -0.1897482711
O  O2  1  0.50000000  0.00000000  0.00000000  1.0 -0.1897482711
O  O3  1  0.50000000  0.50000000  0.50000000  1.0 -0.2757253263
O  O4  1  0.00000000  0.00000000  0.50000000  1.0 -0.1897482711
O  O5  1  0.50000000  0.00000000  0.50000000  1.0 -0.2186086837
O  O6  1  0.00000000  0.50000000  0.50000000  1.0 -0.2186086837
O  O7  1  0.50000000  0.50000000  0.00000000  1.0 -0.2186086837
O  O8  1  0.00000000  0.00000000  0.00000000  1.0 -0.1897482711
O  O9  1  0.05450000  0.34890000  0.03880000  0.1667 0.0077072105
O  O10  1  0.44550000  0.15110000  0.03880000  0.1667 0.0077072105
O  O11  1  0.44550000  0.34890000  0.46120000  0.1667 0.0228609302
O  O12  1  0.05450000  0.15110000  0.46120000  0.1667 0.0077072105
O  O13  1  0.03880000  0.05450000  0.34890000  0.1667 0.0077072105
O  O14  1  0.03880000  0.44550000  0.15110000  0.1667 0.0077072105
O  O15  1  0.46120000  0.44550000  0.34890000  0.1667 0.0228609302
O  O16  1  0.46120000  0.05450000  0.15110000  0.1667 0.0077072105
O  O17  1  0.34890000  0.03880000  0.05450000  0.1667 0.0077072105
O  O18  1  0.15110000  0.03880000  0.44550000  0.1667 0.0077072105
O  O19  1  0.34890000  0.46120000  0.44550000  0.1667 0.0228609302
O  O20  1  0.15110000  0.46120000  0.05450000  0.1667 0.0077072105
O  O21  1  0.34890000  0.05450000  0.46120000  0.1667 0.0077072105
O  O22  1  0.15110000  0.44550000  0.46120000  0.1667 0.0282690077
O  O23  1  0.34890000  0.44550000  0.03880000  0.1667 0.0077072105
O  O24  1  0.15110000  0.05450000  0.03880000  0.1667 0.0077072105
O  O25  1  0.05450000  0.03880000  0.15110000  0.1667 0.0077072105
O  O26  1  0.44550000  0.03880000  0.34890000  0.1667 0.0077072105
O  O27  1  0.44550000  0.46120000  0.15110000  0.1667 0.0282690077
O  O28  1  0.05450000  0.46120000  0.34890000  0.1667 0.0077072105
O  O29  1  0.03880000  0.34890000  0.44550000  0.1667 0.0077072105
O  O30  1  0.03880000  0.15110000  0.05450000  0.1667 0.0077072105
O  O31  1  0.46120000  0.34890000  0.05450000  0.1667 0.0077072105
O  O32  1  0.46120000  0.15110000  0.44550000  0.1667 0.0282690077
O  O33  1  0.05450000  0.84890000  0.53880000  0.1667 0.0077072105
O  O34  1  0.44550000  0.65110000  0.53880000  0.1667 0.0228609302
O  O35  1  0.44550000  0.84890000  0.96120000  0.1667 0.0077072105
O  O36  1  0.05450000  0.65110000  0.96120000  0.1667 0.0077072105
O  O37  1  0.03880000  0.55450000  0.84890000  0.1667 0.0077072105
O  O38  1  0.03880000  0.94550000  0.65110000  0.1667 0.0077072105
O  O39  1  0.46120000  0.94550000  0.84890000  0.1667 0.0077072105
O  O40  1  0.46120000  0.55450000  0.65110000  0.1667 0.0228609302
O  O41  1  0.34890000  0.53880000  0.55450000  0.1667 0.0228609302
O  O42  1  0.15110000  0.53880000  0.94550000  0.1667 0.0077072105
O  O43  1  0.34890000  0.96120000  0.94550000  0.1667 0.0077072105
O  O44  1  0.15110000  0.96120000  0.55450000  0.1667 0.0077072105
O  O45  1  0.34890000  0.55450000  0.96120000  0.1667 0.0077072105
O  O46  1  0.15110000  0.94550000  0.96120000  0.1667 0.0077072105
O  O47  1  0.34890000  0.94550000  0.53880000  0.1667 0.0077072105
O  O48  1  0.15110000  0.55450000  0.53880000  0.1667 0.0282690077
O  O49  1  0.05450000  0.53880000  0.65110000  0.1667 0.0077072105
O  O50  1  0.44550000  0.53880000  0.84890000  0.1667 0.0282690077
O  O51  1  0.44550000  0.96120000  0.65110000  0.1667 0.0077072105
O  O52  1  0.05450000  0.96120000  0.84890000  0.1667 0.0077072105
O  O53  1  0.03880000  0.84890000  0.94550000  0.1667 0.0077072105
O  O54  1  0.03880000  0.65110000  0.55450000  0.1667 0.0077072105
O  O55  1  0.46120000  0.84890000  0.55450000  0.1667 0.0282690077
O  O56  1  0.46120000  0.65110000  0.94550000  0.1667 0.0077072105
O  O57  1  0.55450000  0.34890000  0.53880000  0.1667 0.0228609302
O  O58  1  0.94550000  0.15110000  0.53880000  0.1667 0.0077072105
O  O59  1  0.94550000  0.34890000  0.96120000  0.1667 0.0077072105
O  O60  1  0.55450000  0.15110000  0.96120000  0.1667 0.0077072105
O  O61  1  0.53880000  0.05450000  0.84890000  0.1667 0.0077072105
O  O62  1  0.53880000  0.44550000  0.65110000  0.1667 0.0228609302
O  O63  1  0.96120000  0.44550000  0.84890000  0.1667 0.0077072105
O  O64  1  0.96120000  0.05450000  0.65110000  0.1667 0.0077072105
O  O65  1  0.84890000  0.03880000  0.55450000  0.1667 0.0077072105
O  O66  1  0.65110000  0.03880000  0.94550000  0.1667 0.0077072105
O  O67  1  0.84890000  0.46120000  0.94550000  0.1667 0.0077072105
O  O68  1  0.65110000  0.46120000  0.55450000  0.1667 0.0282690077
O  O69  1  0.84890000  0.05450000  0.96120000  0.1667 0.0077072105
O  O70  1  0.65110000  0.44550000  0.96120000  0.1667 0.0077072105
O  O71  1  0.84890000  0.44550000  0.53880000  0.1667 0.0282690077
O  O72  1  0.65110000  0.05450000  0.53880000  0.1667 0.0077072105
O  O73  1  0.55450000  0.03880000  0.65110000  0.1667 0.0077072105
O  O74  1  0.94550000  0.03880000  0.84890000  0.1667 0.0077072105
O  O75  1  0.94550000  0.46120000  0.65110000  0.1667 0.0077072105
O  O76  1  0.55450000  0.46120000  0.84890000  0.1667 0.0282690077
O  O77  1  0.53880000  0.34890000  0.94550000  0.1667 0.0077072105
O  O78  1  0.53880000  0.15110000  0.55450000  0.1667 0.0282690077
O  O79  1  0.96120000  0.34890000  0.55450000  0.1667 0.0077072105
O  O80  1  0.96120000  0.15110000  0.94550000  0.1667 0.0077072105
O  O81  1  0.55450000  0.84890000  0.03880000  0.1667 0.0077072105
O  O82  1  0.94550000  0.65110000  0.03880000  0.1667 0.0077072105
O  O83  1  0.94550000  0.84890000  0.46120000  0.1667 0.0077072105
O  O84  1  0.55450000  0.65110000  0.46120000  0.1667 0.0228609302
O  O85  1  0.53880000  0.55450000  0.34890000  0.1667 0.0228609302
O  O86  1  0.53880000  0.94550000  0.15110000  0.1667 0.0077072105
O  O87  1  0.96120000  0.94550000  0.34890000  0.1667 0.0077072105
O  O88  1  0.96120000  0.55450000  0.15110000  0.1667 0.0077072105
O  O89  1  0.84890000  0.53880000  0.05450000  0.1667 0.0077072105
O  O90  1  0.65110000  0.53880000  0.44550000  0.1667 0.0282690077
O  O91  1  0.84890000  0.96120000  0.44550000  0.1667 0.0077072105
O  O92  1  0.65110000  0.96120000  0.05450000  0.1667 0.0077072105
O  O93  1  0.84890000  0.55450000  0.46120000  0.1667 0.0282690077
O  O94  1  0.65110000  0.94550000  0.46120000  0.1667 0.0077072105
O  O95  1  0.84890000  0.94550000  0.03880000  0.1667 0.0077072105
O  O96  1  0.65110000  0.55450000  0.03880000  0.1667 0.0077072105
O  O97  1  0.55450000  0.53880000  0.15110000  0.1667 0.0282690077
O  O98  1  0.94550000  0.53880000  0.34890000  0.1667 0.0077072105
O  O99  1  0.94550000  0.96120000  0.15110000  0.1667 0.0077072105
O  O100  1  0.55450000  0.96120000  0.34890000  0.1667 0.0077072105
O  O101  1  0.53880000  0.84890000  0.44550000  0.1667 0.0282690077
O  O102  1  0.53880000  0.65110000  0.05450000  0.1667 0.0077072105
O  O103  1  0.96120000  0.84890000  0.05450000  0.1667 0.0077072105
O  O104  1  0.96120000  0.65110000  0.44550000  0.1667 0.0077072105
O  O105  1  0.44550000  0.15110000  0.46120000  0.1667 0.0282690077
O  O106  1  0.05450000  0.34890000  0.46120000  0.1667 0.0077072105
O  O107  1  0.05450000  0.15110000  0.03880000  0.1667 0.0077072105
O  O108  1  0.44550000  0.34890000  0.03880000  0.1667 0.0077072105
O  O109  1  0.46120000  0.44550000  0.15110000  0.1667 0.0282690077
O  O110  1  0.46120000  0.05450000  0.34890000  0.1667 0.0077072105
O  O111  1  0.03880000  0.05450000  0.15110000  0.1667 0.0077072105
O  O112  1  0.03880000  0.44550000  0.34890000  0.1667 0.0077072105
O  O113  1  0.15110000  0.46120000  0.44550000  0.1667 0.0282690077
O  O114  1  0.34890000  0.46120000  0.05450000  0.1667 0.0077072105
O  O115  1  0.15110000  0.03880000  0.05450000  0.1667 0.0077072105
O  O116  1  0.34890000  0.03880000  0.44550000  0.1667 0.0077072105
O  O117  1  0.15110000  0.44550000  0.03880000  0.1667 0.0077072105
O  O118  1  0.34890000  0.05450000  0.03880000  0.1667 0.0077072105
O  O119  1  0.15110000  0.05450000  0.46120000  0.1667 0.0077072105
O  O120  1  0.34890000  0.44550000  0.46120000  0.1667 0.0228609302
O  O121  1  0.44550000  0.46120000  0.34890000  0.1667 0.0228609302
O  O122  1  0.05450000  0.46120000  0.15110000  0.1667 0.0077072105
O  O123  1  0.05450000  0.03880000  0.34890000  0.1667 0.0077072105
O  O124  1  0.44550000  0.03880000  0.15110000  0.1667 0.0077072105
O  O125  1  0.46120000  0.15110000  0.05450000  0.1667 0.0077072105
O  O126  1  0.46120000  0.34890000  0.44550000  0.1667 0.0228609302
O  O127  1  0.03880000  0.15110000  0.44550000  0.1667 0.0077072105
O  O128  1  0.03880000  0.34890000  0.05450000  0.1667 0.0077072105
O  O129  1  0.44550000  0.65110000  0.96120000  0.1667 0.0077072105
O  O130  1  0.05450000  0.84890000  0.96120000  0.1667 0.0077072105
O  O131  1  0.05450000  0.65110000  0.53880000  0.1667 0.0077072105
O  O132  1  0.44550000  0.84890000  0.53880000  0.1667 0.0282690077
O  O133  1  0.46120000  0.94550000  0.65110000  0.1667 0.0077072105
O  O134  1  0.46120000  0.55450000  0.84890000  0.1667 0.0282690077
O  O135  1  0.03880000  0.55450000  0.65110000  0.1667 0.0077072105
O  O136  1  0.03880000  0.94550000  0.84890000  0.1667 0.0077072105
O  O137  1  0.15110000  0.96120000  0.94550000  0.1667 0.0077072105
O  O138  1  0.34890000  0.96120000  0.55450000  0.1667 0.0077072105
O  O139  1  0.15110000  0.53880000  0.55450000  0.1667 0.0282690077
O  O140  1  0.34890000  0.53880000  0.94550000  0.1667 0.0077072105
O  O141  1  0.15110000  0.94550000  0.53880000  0.1667 0.0077072105
O  O142  1  0.34890000  0.55450000  0.53880000  0.1667 0.0228609302
O  O143  1  0.15110000  0.55450000  0.96120000  0.1667 0.0077072105
O  O144  1  0.34890000  0.94550000  0.96120000  0.1667 0.0077072105
O  O145  1  0.44550000  0.96120000  0.84890000  0.1667 0.0077072105
O  O146  1  0.05450000  0.96120000  0.65110000  0.1667 0.0077072105
O  O147  1  0.05450000  0.53880000  0.84890000  0.1667 0.0077072105
O  O148  1  0.44550000  0.53880000  0.65110000  0.1667 0.0228609302
O  O149  1  0.46120000  0.65110000  0.55450000  0.1667 0.0228609302
O  O150  1  0.46120000  0.84890000  0.94550000  0.1667 0.0077072105
O  O151  1  0.03880000  0.65110000  0.94550000  0.1667 0.0077072105
O  O152  1  0.03880000  0.84890000  0.55450000  0.1667 0.0077072105
O  O153  1  0.94550000  0.15110000  0.96120000  0.1667 0.0077072105
O  O154  1  0.55450000  0.34890000  0.96120000  0.1667 0.0077072105
O  O155  1  0.55450000  0.15110000  0.53880000  0.1667 0.0282690077
O  O156  1  0.94550000  0.34890000  0.53880000  0.1667 0.0077072105
O  O157  1  0.96120000  0.44550000  0.65110000  0.1667 0.0077072105
O  O158  1  0.96120000  0.05450000  0.84890000  0.1667 0.0077072105
O  O159  1  0.53880000  0.05450000  0.65110000  0.1667 0.0077072105
O  O160  1  0.53880000  0.44550000  0.84890000  0.1667 0.0282690077
O  O161  1  0.65110000  0.46120000  0.94550000  0.1667 0.0077072105
O  O162  1  0.84890000  0.46120000  0.55450000  0.1667 0.0282690077
O  O163  1  0.65110000  0.03880000  0.55450000  0.1667 0.0077072105
O  O164  1  0.84890000  0.03880000  0.94550000  0.1667 0.0077072105
O  O165  1  0.65110000  0.44550000  0.53880000  0.1667 0.0228609302
O  O166  1  0.84890000  0.05450000  0.53880000  0.1667 0.0077072105
O  O167  1  0.65110000  0.05450000  0.96120000  0.1667 0.0077072105
O  O168  1  0.84890000  0.44550000  0.96120000  0.1667 0.0077072105
O  O169  1  0.94550000  0.46120000  0.84890000  0.1667 0.0077072105
O  O170  1  0.55450000  0.46120000  0.65110000  0.1667 0.0228609302
O  O171  1  0.55450000  0.03880000  0.84890000  0.1667 0.0077072105
O  O172  1  0.94550000  0.03880000  0.65110000  0.1667 0.0077072105
O  O173  1  0.96120000  0.15110000  0.55450000  0.1667 0.0077072105
O  O174  1  0.96120000  0.34890000  0.94550000  0.1667 0.0077072105
O  O175  1  0.53880000  0.15110000  0.94550000  0.1667 0.0077072105
O  O176  1  0.53880000  0.34890000  0.55450000  0.1667 0.0228609302
O  O177  1  0.94550000  0.65110000  0.46120000  0.1667 0.0077072105
O  O178  1  0.55450000  0.84890000  0.46120000  0.1667 0.0282690077
O  O179  1  0.55450000  0.65110000  0.03880000  0.1667 0.0077072105
O  O180  1  0.94550000  0.84890000  0.03880000  0.1667 0.0077072105
O  O181  1  0.96120000  0.94550000  0.15110000  0.1667 0.0077072105
O  O182  1  0.96120000  0.55450000  0.34890000  0.1667 0.0077072105
O  O183  1  0.53880000  0.55450000  0.15110000  0.1667 0.0282690077
O  O184  1  0.53880000  0.94550000  0.34890000  0.1667 0.0077072105
O  O185  1  0.65110000  0.96120000  0.44550000  0.1667 0.0077072105
O  O186  1  0.84890000  0.96120000  0.05450000  0.1667 0.0077072105
O  O187  1  0.65110000  0.53880000  0.05450000  0.1667 0.0077072105
O  O188  1  0.84890000  0.53880000  0.44550000  0.1667 0.0282690077
O  O189  1  0.65110000  0.94550000  0.03880000  0.1667 0.0077072105
O  O190  1  0.84890000  0.55450000  0.03880000  0.1667 0.0077072105
O  O191  1  0.65110000  0.55450000  0.46120000  0.1667 0.0282690077
O  O192  1  0.84890000  0.94550000  0.46120000  0.1667 0.0077072105
O  O193  1  0.94550000  0.96120000  0.34890000  0.1667 0.0077072105
O  O194  1  0.55450000  0.96120000  0.15110000  0.1667 0.0077072105
O  O195  1  0.55450000  0.53880000  0.34890000  0.1667 0.0228609302
O  O196  1  0.94550000  0.53880000  0.15110000  0.1667 0.0077072105
O  O197  1  0.96120000  0.65110000  0.05450000  0.1667 0.0077072105
O  O198  1  0.96120000  0.84890000  0.44550000  0.1667 0.0077072105
O  O199  1  0.53880000  0.65110000  0.44550000  0.1667 0.0228609302
O  O200  1  0.53880000  0.84890000  0.05450000  0.1667 0.0077072105
O  O201  1  0.97300000  0.35200000  0.96600000  0.1667 -0.0991795538
O  O202  1  0.52700000  0.14800000  0.96600000  0.1667 -0.0991795538
O  O203  1  0.52700000  0.35200000  0.53400000  0.1667 -0.0765426631
O  O204  1  0.97300000  0.14800000  0.53400000  0.1667 -0.0991795538
O  O205  1  0.96600000  0.97300000  0.35200000  0.1667 -0.0991795538
O  O206  1  0.96600000  0.52700000  0.14800000  0.1667 -0.0991795538
O  O207  1  0.53400000  0.52700000  0.35200000  0.1667 -0.0765426631
O  O208  1  0.53400000  0.97300000  0.14800000  0.1667 -0.0991795538
O  O209  1  0.35200000  0.96600000  0.97300000  0.1667 -0.0991795538
O  O210  1  0.14800000  0.96600000  0.52700000  0.1667 -0.0991795538
O  O211  1  0.35200000  0.53400000  0.52700000  0.1667 -0.0765426631
O  O212  1  0.14800000  0.53400000  0.97300000  0.1667 -0.0991795538
O  O213  1  0.35200000  0.97300000  0.53400000  0.1667 -0.0991795538
O  O214  1  0.14800000  0.52700000  0.53400000  0.1667 -0.0716846153
O  O215  1  0.35200000  0.52700000  0.96600000  0.1667 -0.0991795538
O  O216  1  0.14800000  0.97300000  0.96600000  0.1667 -0.0991795538
O  O217  1  0.97300000  0.96600000  0.14800000  0.1667 -0.0991795538
O  O218  1  0.52700000  0.96600000  0.35200000  0.1667 -0.0991795538
O  O219  1  0.52700000  0.53400000  0.14800000  0.1667 -0.0716846153
O  O220  1  0.97300000  0.53400000  0.35200000  0.1667 -0.0991795538
O  O221  1  0.96600000  0.35200000  0.52700000  0.1667 -0.0991795538
O  O222  1  0.96600000  0.14800000  0.97300000  0.1667 -0.0991795538
O  O223  1  0.53400000  0.35200000  0.97300000  0.1667 -0.0991795538
O  O224  1  0.53400000  0.14800000  0.52700000  0.1667 -0.0716846153
O  O225  1  0.97300000  0.85200000  0.46600000  0.1667 -0.0991795538
O  O226  1  0.52700000  0.64800000  0.46600000  0.1667 -0.0765426631
O  O227  1  0.52700000  0.85200000  0.03400000  0.1667 -0.0991795538
O  O228  1  0.97300000  0.64800000  0.03400000  0.1667 -0.0991795538
O  O229  1  0.96600000  0.47300000  0.85200000  0.1667 -0.0991795538
O  O230  1  0.96600000  0.02700000  0.64800000  0.1667 -0.0991795538
O  O231  1  0.53400000  0.02700000  0.85200000  0.1667 -0.0991795538
O  O232  1  0.53400000  0.47300000  0.64800000  0.1667 -0.0765426631
O  O233  1  0.35200000  0.46600000  0.47300000  0.1667 -0.0765426631
O  O234  1  0.14800000  0.46600000  0.02700000  0.1667 -0.0991795538
O  O235  1  0.35200000  0.03400000  0.02700000  0.1667 -0.0991795538
O  O236  1  0.14800000  0.03400000  0.47300000  0.1667 -0.0991795538
O  O237  1  0.35200000  0.47300000  0.03400000  0.1667 -0.0991795538
O  O238  1  0.14800000  0.02700000  0.03400000  0.1667 -0.0991795538
O  O239  1  0.35200000  0.02700000  0.46600000  0.1667 -0.0991795538
O  O240  1  0.14800000  0.47300000  0.46600000  0.1667 -0.0716846153
O  O241  1  0.97300000  0.46600000  0.64800000  0.1667 -0.0991795538
O  O242  1  0.52700000  0.46600000  0.85200000  0.1667 -0.0716846153
O  O243  1  0.52700000  0.03400000  0.64800000  0.1667 -0.0991795538
O  O244  1  0.97300000  0.03400000  0.85200000  0.1667 -0.0991795538
O  O245  1  0.96600000  0.85200000  0.02700000  0.1667 -0.0991795538
O  O246  1  0.96600000  0.64800000  0.47300000  0.1667 -0.0991795538
O  O247  1  0.53400000  0.85200000  0.47300000  0.1667 -0.0716846153
O  O248  1  0.53400000  0.64800000  0.02700000  0.1667 -0.0991795538
O  O249  1  0.47300000  0.35200000  0.46600000  0.1667 -0.0765426631
O  O250  1  0.02700000  0.14800000  0.46600000  0.1667 -0.0991795538
O  O251  1  0.02700000  0.35200000  0.03400000  0.1667 -0.0991795538
O  O252  1  0.47300000  0.14800000  0.03400000  0.1667 -0.0991795538
O  O253  1  0.46600000  0.97300000  0.85200000  0.1667 -0.0991795538
O  O254  1  0.46600000  0.52700000  0.64800000  0.1667 -0.0765426631
O  O255  1  0.03400000  0.52700000  0.85200000  0.1667 -0.0991795538
O  O256  1  0.03400000  0.97300000  0.64800000  0.1667 -0.0991795538
O  O257  1  0.85200000  0.96600000  0.47300000  0.1667 -0.0991795538
O  O258  1  0.64800000  0.96600000  0.02700000  0.1667 -0.0991795538
O  O259  1  0.85200000  0.53400000  0.02700000  0.1667 -0.0991795538
O  O260  1  0.64800000  0.53400000  0.47300000  0.1667 -0.0765426631
O  O261  1  0.85200000  0.97300000  0.03400000  0.1667 -0.0991795538
O  O262  1  0.64800000  0.52700000  0.03400000  0.1667 -0.0991795538
O  O263  1  0.85200000  0.52700000  0.46600000  0.1667 -0.0716846153
O  O264  1  0.64800000  0.97300000  0.46600000  0.1667 -0.0991795538
O  O265  1  0.47300000  0.96600000  0.64800000  0.1667 -0.0991795538
O  O266  1  0.02700000  0.96600000  0.85200000  0.1667 -0.0991795538
O  O267  1  0.02700000  0.53400000  0.64800000  0.1667 -0.0991795538
O  O268  1  0.47300000  0.53400000  0.85200000  0.1667 -0.0716846153
O  O269  1  0.46600000  0.35200000  0.02700000  0.1667 -0.0991795538
O  O270  1  0.46600000  0.14800000  0.47300000  0.1667 -0.0716846153
O  O271  1  0.03400000  0.35200000  0.47300000  0.1667 -0.0991795538
O  O272  1  0.03400000  0.14800000  0.02700000  0.1667 -0.0991795538
O  O273  1  0.47300000  0.85200000  0.96600000  0.1667 -0.0991795538
O  O274  1  0.02700000  0.64800000  0.96600000  0.1667 -0.0991795538
O  O275  1  0.02700000  0.85200000  0.53400000  0.1667 -0.0991795538
O  O276  1  0.47300000  0.64800000  0.53400000  0.1667 -0.0765426631
O  O277  1  0.46600000  0.47300000  0.35200000  0.1667 -0.0765426631
O  O278  1  0.46600000  0.02700000  0.14800000  0.1667 -0.0991795538
O  O279  1  0.03400000  0.02700000  0.35200000  0.1667 -0.0991795538
O  O280  1  0.03400000  0.47300000  0.14800000  0.1667 -0.0991795538
O  O281  1  0.85200000  0.46600000  0.97300000  0.1667 -0.0991795538
O  O282  1  0.64800000  0.46600000  0.52700000  0.1667 -0.0765426631
O  O283  1  0.85200000  0.03400000  0.52700000  0.1667 -0.0991795538
O  O284  1  0.64800000  0.03400000  0.97300000  0.1667 -0.0991795538
O  O285  1  0.85200000  0.47300000  0.53400000  0.1667 -0.0716846153
O  O286  1  0.64800000  0.02700000  0.53400000  0.1667 -0.0991795538
O  O287  1  0.85200000  0.02700000  0.96600000  0.1667 -0.0991795538
O  O288  1  0.64800000  0.47300000  0.96600000  0.1667 -0.0991795538
O  O289  1  0.47300000  0.46600000  0.14800000  0.1667 -0.0716846153
O  O290  1  0.02700000  0.46600000  0.35200000  0.1667 -0.0991795538
O  O291  1  0.02700000  0.03400000  0.14800000  0.1667 -0.0991795538
O  O292  1  0.47300000  0.03400000  0.35200000  0.1667 -0.0991795538
O  O293  1  0.46600000  0.85200000  0.52700000  0.1667 -0.0716846153
O  O294  1  0.46600000  0.64800000  0.97300000  0.1667 -0.0991795538
O  O295  1  0.03400000  0.85200000  0.97300000  0.1667 -0.0991795538
O  O296  1  0.03400000  0.64800000  0.52700000  0.1667 -0.0991795538
O  O297  1  0.52700000  0.14800000  0.53400000  0.1667 -0.0716846153
O  O298  1  0.97300000  0.35200000  0.53400000  0.1667 -0.0991795538
O  O299  1  0.97300000  0.14800000  0.96600000  0.1667 -0.0991795538
O  O300  1  0.52700000  0.35200000  0.96600000  0.1667 -0.0991795538
O  O301  1  0.53400000  0.52700000  0.14800000  0.1667 -0.0716846153
O  O302  1  0.53400000  0.97300000  0.35200000  0.1667 -0.0991795538
O  O303  1  0.96600000  0.97300000  0.14800000  0.1667 -0.0991795538
O  O304  1  0.96600000  0.52700000  0.35200000  0.1667 -0.0991795538
O  O305  1  0.14800000  0.53400000  0.52700000  0.1667 -0.0716846153
O  O306  1  0.35200000  0.53400000  0.97300000  0.1667 -0.0991795538
O  O307  1  0.14800000  0.96600000  0.97300000  0.1667 -0.0991795538
O  O308  1  0.35200000  0.96600000  0.52700000  0.1667 -0.0991795538
O  O309  1  0.14800000  0.52700000  0.96600000  0.1667 -0.0991795538
O  O310  1  0.35200000  0.97300000  0.96600000  0.1667 -0.0991795538
O  O311  1  0.14800000  0.97300000  0.53400000  0.1667 -0.0991795538
O  O312  1  0.35200000  0.52700000  0.53400000  0.1667 -0.0765426631
O  O313  1  0.52700000  0.53400000  0.35200000  0.1667 -0.0765426631
O  O314  1  0.97300000  0.53400000  0.14800000  0.1667 -0.0991795538
O  O315  1  0.97300000  0.96600000  0.35200000  0.1667 -0.0991795538
O  O316  1  0.52700000  0.96600000  0.14800000  0.1667 -0.0991795538
O  O317  1  0.53400000  0.14800000  0.97300000  0.1667 -0.0991795538
O  O318  1  0.53400000  0.35200000  0.52700000  0.1667 -0.0765426631
O  O319  1  0.96600000  0.14800000  0.52700000  0.1667 -0.0991795538
O  O320  1  0.96600000  0.35200000  0.97300000  0.1667 -0.0991795538
O  O321  1  0.52700000  0.64800000  0.03400000  0.1667 -0.0991795538
O  O322  1  0.97300000  0.85200000  0.03400000  0.1667 -0.0991795538
O  O323  1  0.97300000  0.64800000  0.46600000  0.1667 -0.0991795538
O  O324  1  0.52700000  0.85200000  0.46600000  0.1667 -0.0716846153
O  O325  1  0.53400000  0.02700000  0.64800000  0.1667 -0.0991795538
O  O326  1  0.53400000  0.47300000  0.85200000  0.1667 -0.0716846153
O  O327  1  0.96600000  0.47300000  0.64800000  0.1667 -0.0991795538
O  O328  1  0.96600000  0.02700000  0.85200000  0.1667 -0.0991795538
O  O329  1  0.14800000  0.03400000  0.02700000  0.1667 -0.0991795538
O  O330  1  0.35200000  0.03400000  0.47300000  0.1667 -0.0991795538
O  O331  1  0.14800000  0.46600000  0.47300000  0.1667 -0.0716846153
O  O332  1  0.35200000  0.46600000  0.02700000  0.1667 -0.0991795538
O  O333  1  0.14800000  0.02700000  0.46600000  0.1667 -0.0991795538
O  O334  1  0.35200000  0.47300000  0.46600000  0.1667 -0.0765426631
O  O335  1  0.14800000  0.47300000  0.03400000  0.1667 -0.0991795538
O  O336  1  0.35200000  0.02700000  0.03400000  0.1667 -0.0991795538
O  O337  1  0.52700000  0.03400000  0.85200000  0.1667 -0.0991795538
O  O338  1  0.97300000  0.03400000  0.64800000  0.1667 -0.0991795538
O  O339  1  0.97300000  0.46600000  0.85200000  0.1667 -0.0991795538
O  O340  1  0.52700000  0.46600000  0.64800000  0.1667 -0.0765426631
O  O341  1  0.53400000  0.64800000  0.47300000  0.1667 -0.0765426631
O  O342  1  0.53400000  0.85200000  0.02700000  0.1667 -0.0991795538
O  O343  1  0.96600000  0.64800000  0.02700000  0.1667 -0.0991795538
O  O344  1  0.96600000  0.85200000  0.47300000  0.1667 -0.0991795538
O  O345  1  0.02700000  0.14800000  0.03400000  0.1667 -0.0991795538
O  O346  1  0.47300000  0.35200000  0.03400000  0.1667 -0.0991795538
O  O347  1  0.47300000  0.14800000  0.46600000  0.1667 -0.0716846153
O  O348  1  0.02700000  0.35200000  0.46600000  0.1667 -0.0991795538
O  O349  1  0.03400000  0.52700000  0.64800000  0.1667 -0.0991795538
O  O350  1  0.03400000  0.97300000  0.85200000  0.1667 -0.0991795538
O  O351  1  0.46600000  0.97300000  0.64800000  0.1667 -0.0991795538
O  O352  1  0.46600000  0.52700000  0.85200000  0.1667 -0.0716846153
O  O353  1  0.64800000  0.53400000  0.02700000  0.1667 -0.0991795538
O  O354  1  0.85200000  0.53400000  0.47300000  0.1667 -0.0716846153
O  O355  1  0.64800000  0.96600000  0.47300000  0.1667 -0.0991795538
O  O356  1  0.85200000  0.96600000  0.02700000  0.1667 -0.0991795538
O  O357  1  0.64800000  0.52700000  0.46600000  0.1667 -0.0765426631
O  O358  1  0.85200000  0.97300000  0.46600000  0.1667 -0.0991795538
O  O359  1  0.64800000  0.97300000  0.03400000  0.1667 -0.0991795538
O  O360  1  0.85200000  0.52700000  0.03400000  0.1667 -0.0991795538
O  O361  1  0.02700000  0.53400000  0.85200000  0.1667 -0.0991795538
O  O362  1  0.47300000  0.53400000  0.64800000  0.1667 -0.0765426631
O  O363  1  0.47300000  0.96600000  0.85200000  0.1667 -0.0991795538
O  O364  1  0.02700000  0.96600000  0.64800000  0.1667 -0.0991795538
O  O365  1  0.03400000  0.14800000  0.47300000  0.1667 -0.0991795538
O  O366  1  0.03400000  0.35200000  0.02700000  0.1667 -0.0991795538
O  O367  1  0.46600000  0.14800000  0.02700000  0.1667 -0.0991795538
O  O368  1  0.46600000  0.35200000  0.47300000  0.1667 -0.0765426631
O  O369  1  0.02700000  0.64800000  0.53400000  0.1667 -0.0991795538
O  O370  1  0.47300000  0.85200000  0.53400000  0.1667 -0.0716846153
O  O371  1  0.47300000  0.64800000  0.96600000  0.1667 -0.0991795538
O  O372  1  0.02700000  0.85200000  0.96600000  0.1667 -0.0991795538
O  O373  1  0.03400000  0.02700000  0.14800000  0.1667 -0.0991795538
O  O374  1  0.03400000  0.47300000  0.35200000  0.1667 -0.0991795538
O  O375  1  0.46600000  0.47300000  0.14800000  0.1667 -0.0716846153
O  O376  1  0.46600000  0.02700000  0.35200000  0.1667 -0.0991795538
O  O377  1  0.64800000  0.03400000  0.52700000  0.1667 -0.0991795538
O  O378  1  0.85200000  0.03400000  0.97300000  0.1667 -0.0991795538
O  O379  1  0.64800000  0.46600000  0.97300000  0.1667 -0.0991795538
O  O380  1  0.85200000  0.46600000  0.52700000  0.1667 -0.0716846153
O  O381  1  0.64800000  0.02700000  0.96600000  0.1667 -0.0991795538
O  O382  1  0.85200000  0.47300000  0.96600000  0.1667 -0.0991795538
O  O383  1  0.64800000  0.47300000  0.53400000  0.1667 -0.0765426631
O  O384  1  0.85200000  0.02700000  0.53400000  0.1667 -0.0991795538
O  O385  1  0.02700000  0.03400000  0.35200000  0.1667 -0.0991795538
O  O386  1  0.47300000  0.03400000  0.14800000  0.1667 -0.0991795538
O  O387  1  0.47300000  0.46600000  0.35200000  0.1667 -0.0765426631
O  O388  1  0.02700000  0.46600000  0.14800000  0.1667 -0.0991795538
O  O389  1  0.03400000  0.64800000  0.97300000  0.1667 -0.0991795538
O  O390  1  0.03400000  0.85200000  0.52700000  0.1667 -0.0991795538
O  O391  1  0.46600000  0.64800000  0.52700000  0.1667 -0.0765426631
O  O392  1  0.46600000  0.85200000  0.97300000  0.1667 -0.0991795538
