# DDEC6 charges by PACMAN v1.1 (https://github.com/mtap-research/PACMAN-charge/)
data_2020[Zn][tfz]3[FSR]2
_chemical_formula_sum              "Zn24 H320 C528 N16 O96"
_cell_length_a       19.3354
_cell_length_b       28.3102
_cell_length_c       31.8382
_cell_angle_alpha    90
_cell_angle_beta     90
_cell_angle_gamma    90

_symmetry_space_group_name_H-M    "P 1"
_symmetry_Int_Tables_number       1

loop_
  _symmetry_equiv_pos_as_xyz
  'x, y, z'

loop_
  _atom_site_type_symbol
  _atom_site_label
  _atom_site_symmetry_multiplicity
  _atom_site_fract_x
  _atom_site_fract_y
  _atom_site_fract_z
  _atom_site_occupancy
  _atom_site_charge
Zn  Zn1       1.0  0.50081  0.77909  0.62697  1.0000 0.8010238277
Zn  Zn2       1.0  0.50081  0.22091  0.37303  1.0000 0.8010238277
Zn  Zn3       1.0  0.50081  0.27909  0.87303  1.0000 0.8010238277
Zn  Zn4       1.0  0.50081  0.72091  0.12697  1.0000 0.8010238277
Zn  Zn5       1.0  0.34529  0.74782  0.63750  1.0000 1.0059461461
Zn  Zn6       1.0  0.34529  0.25218  0.36250  1.0000 1.0059461461
Zn  Zn7       1.0  0.34529  0.24782  0.86250  1.0000 1.0059461461
Zn  Zn8       1.0  0.34529  0.75218  0.13750  1.0000 1.0059461461
Zn  Zn9       1.0  0.18592  0.71523  0.63012  1.0000 0.8098766373
Zn  Zn10      1.0  0.18592  0.28477  0.36988  1.0000 0.8098766373
Zn  Zn11      1.0  0.18592  0.21523  0.86988  1.0000 0.8098766373
Zn  Zn12      1.0  0.18592  0.78477  0.13012  1.0000 0.8098766373
Zn  Zn13      1.0  0.49919  0.22091  0.62697  1.0000 0.8010238277
Zn  Zn14      1.0  0.49919  0.77909  0.37303  1.0000 0.8010238277
Zn  Zn15      1.0  0.49919  0.72091  0.87303  1.0000 0.8010238277
Zn  Zn16      1.0  0.49919  0.27909  0.12697  1.0000 0.8010238277
Zn  Zn17      1.0  0.65471  0.25218  0.63750  1.0000 1.0059461461
Zn  Zn18      1.0  0.65471  0.74782  0.36250  1.0000 1.0059461461
Zn  Zn19      1.0  0.65471  0.75218  0.86250  1.0000 1.0059461461
Zn  Zn20      1.0  0.65471  0.24782  0.13750  1.0000 1.0059461461
Zn  Zn21      1.0  0.81408  0.28477  0.63012  1.0000 0.8098766373
Zn  Zn22      1.0  0.81408  0.71523  0.36988  1.0000 0.8098766373
Zn  Zn23      1.0  0.81408  0.78477  0.86988  1.0000 0.8098766373
Zn  Zn24      1.0  0.81408  0.21523  0.13012  1.0000 0.8098766373
H   H1        1.0  0.33210  0.62880  0.88740  1.0000 0.1124828744
H   H2        1.0  0.33210  0.37120  0.11260  1.0000 0.1124828744
H   H3        1.0  0.33210  0.12880  0.61260  1.0000 0.1124828744
H   H4        1.0  0.33210  0.87120  0.38740  1.0000 0.1124828744
H   H5        1.0  0.45210  0.54660  0.54880  1.0000 0.1124828744
H   H6        1.0  0.45210  0.45340  0.45120  1.0000 0.1124828744
H   H7        1.0  0.45210  0.04660  0.95120  1.0000 0.1124828744
H   H8        1.0  0.45210  0.95340  0.04880  1.0000 0.1124828744
H   H9        1.0  0.27960  0.65200  0.95760  1.0000 0.1124828744
H   H10       1.0  0.27960  0.34800  0.04240  1.0000 0.1124828744
H   H11       1.0  0.27960  0.15200  0.54240  1.0000 0.1124828744
H   H12       1.0  0.27960  0.84800  0.45760  1.0000 0.1124828744
H   H13       1.0  0.22990  0.44810  0.94890  1.0000 0.1124828744
H   H14       1.0  0.22990  0.55190  0.05110  1.0000 0.1124828744
H   H15       1.0  0.22990  0.94810  0.55110  1.0000 0.1124828744
H   H16       1.0  0.22990  0.05190  0.44890  1.0000 0.1124828744
H   H17       1.0  0.47960  0.62530  0.54690  1.0000 0.1193045173
H   H18       1.0  0.47960  0.37470  0.45310  1.0000 0.1193045173
H   H19       1.0  0.47960  0.12530  0.95310  1.0000 0.1193045173
H   H20       1.0  0.47960  0.87470  0.04690  1.0000 0.1193045173
H   H21       1.0  0.49040  0.42480  0.70910  1.0000 0.1193045173
H   H22       1.0  0.49040  0.57520  0.29090  1.0000 0.1193045173
H   H23       1.0  0.49040  0.92480  0.79090  1.0000 0.1193045173
H   H24       1.0  0.49040  0.07520  0.20910  1.0000 0.1193045173
H   H25       1.0  0.28650  0.35260  0.83590  1.0000 0.1268792284
H   H26       1.0  0.28650  0.64740  0.16410  1.0000 0.1268792284
H   H27       1.0  0.28650  0.85260  0.66410  1.0000 0.1268792284
H   H28       1.0  0.28650  0.14740  0.33590  1.0000 0.1268792284
H   H29       1.0  0.36500  0.48720  0.55070  1.0000 0.1193045173
H   H30       1.0  0.36500  0.51280  0.44930  1.0000 0.1193045173
H   H31       1.0  0.36500  0.98720  0.94930  1.0000 0.1193045173
H   H32       1.0  0.36500  0.01280  0.05070  1.0000 0.1193045173
H   H33       1.0  0.27280  0.50910  0.82880  1.0000 0.1193045173
H   H34       1.0  0.27280  0.49090  0.17120  1.0000 0.1193045173
H   H35       1.0  0.27280  0.00910  0.67120  1.0000 0.1193045173
H   H36       1.0  0.27280  0.99090  0.32880  1.0000 0.1193045173
H   H37       1.0  0.36450  0.36580  0.61370  1.0000 0.1193045173
H   H38       1.0  0.36450  0.63420  0.38630  1.0000 0.1193045173
H   H39       1.0  0.36450  0.86580  0.88630  1.0000 0.1193045173
H   H40       1.0  0.36450  0.13420  0.11370  1.0000 0.1193045173
H   H41       1.0  0.83990  0.74320  0.59070  1.0000 0.1193045173
H   H42       1.0  0.83990  0.25680  0.40930  1.0000 0.1268792284
H   H43       1.0  0.83990  0.24320  0.90930  1.0000 0.1268792284
H   H44       1.0  0.83990  0.75680  0.09070  1.0000 0.1193045173
H   H45       1.0  0.40700  0.64230  0.66320  1.0000 0.1193045173
H   H46       1.0  0.40700  0.35770  0.33680  1.0000 0.1193045173
H   H47       1.0  0.40700  0.14230  0.83680  1.0000 0.1193045173
H   H48       1.0  0.40700  0.85770  0.16320  1.0000 0.1193045173
H   H49       1.0  0.37230  0.67480  0.75080  1.0000 0.1268792284
H   H50       1.0  0.37230  0.32520  0.24920  1.0000 0.1268792284
H   H51       1.0  0.37230  0.17480  0.74920  1.0000 0.1268792284
H   H52       1.0  0.37230  0.82520  0.25080  1.0000 0.1268792284
H   H53       1.0  0.31920  0.50770  0.95140  1.0000 0.1193045173
H   H54       1.0  0.31920  0.49230  0.04860  1.0000 0.1193045173
H   H55       1.0  0.31920  0.00770  0.54860  1.0000 0.1193045173
H   H56       1.0  0.31920  0.99230  0.45140  1.0000 0.1193045173
H   H57       1.0  0.42610  0.48450  0.67060  1.0000 0.1193045173
H   H58       1.0  0.42610  0.51550  0.32940  1.0000 0.1193045173
H   H59       1.0  0.42610  0.98450  0.82940  1.0000 0.1193045173
H   H60       1.0  0.42610  0.01550  0.17060  1.0000 0.1193045173
H   H61       1.0  0.45770  0.59900  0.04210  1.0000 0.1193045173
H   H62       1.0  0.45770  0.40100  0.95790  1.0000 0.1193045173
H   H63       1.0  0.45770  0.09900  0.45790  1.0000 0.1193045173
H   H64       1.0  0.45770  0.90100  0.54210  1.0000 0.1193045173
H   H65       1.0  0.39780  0.33840  0.54570  1.0000 0.1193045173
H   H66       1.0  0.39780  0.66160  0.45430  1.0000 0.1193045173
H   H67       1.0  0.39780  0.83840  0.95430  1.0000 0.1193045173
H   H68       1.0  0.39780  0.16160  0.04570  1.0000 0.1193045173
H   H69       1.0  0.50720  0.38050  0.76840  1.0000 0.1193045173
H   H70       1.0  0.50720  0.61950  0.23160  1.0000 0.1193045173
H   H71       1.0  0.50720  0.88050  0.73160  1.0000 0.1193045173
H   H72       1.0  0.50720  0.11950  0.26840  1.0000 0.1193045173
H   H73       1.0  0.31080  0.69450  0.01490  1.0000 0.1268792284
H   H74       1.0  0.31080  0.30550  0.98510  1.0000 0.1268792284
H   H75       1.0  0.31080  0.19450  0.48510  1.0000 0.1268792284
H   H76       1.0  0.31080  0.80550  0.51490  1.0000 0.1268792284
H   H77       1.0  0.20140  0.36980  0.95000  1.0000 0.1193045173
H   H78       1.0  0.20140  0.63020  0.05000  1.0000 0.1193045173
H   H79       1.0  0.20140  0.86980  0.55000  1.0000 0.1193045173
H   H80       1.0  0.20140  0.13020  0.45000  1.0000 0.1193045173
H   H81       1.0  0.38050  0.56290  0.66570  1.0000 0.1193045173
H   H82       1.0  0.38050  0.43710  0.33430  1.0000 0.1193045173
H   H83       1.0  0.38050  0.06290  0.83430  1.0000 0.1193045173
H   H84       1.0  0.38050  0.93710  0.16570  1.0000 0.1193045173
H   H85       1.0  0.36460  0.30140  0.48460  1.0000 0.1268792284
H   H86       1.0  0.36460  0.69860  0.51540  1.0000 0.1268792284
H   H87       1.0  0.36460  0.80140  0.01540  1.0000 0.1268792284
H   H88       1.0  0.36460  0.19860  0.98460  1.0000 0.1268792284
H   H89       1.0  0.22940  0.40400  0.45960  1.0000 0.1268792284
H   H90       1.0  0.22940  0.59600  0.54040  1.0000 0.1268792284
H   H91       1.0  0.22940  0.90400  0.04040  1.0000 0.1268792284
H   H92       1.0  0.22940  0.09600  0.95960  1.0000 0.1268792284
H   H93       1.0  0.31650  0.35510  0.68570  1.0000 0.1124828744
H   H94       1.0  0.31650  0.64490  0.31430  1.0000 0.1124828744
H   H95       1.0  0.31650  0.85510  0.81430  1.0000 0.1124828744
H   H96       1.0  0.31650  0.14490  0.18570  1.0000 0.1124828744
H   H97       1.0  0.38460  0.63510  0.81310  1.0000 0.1193045173
H   H98       1.0  0.38460  0.36490  0.18690  1.0000 0.1193045173
H   H99       1.0  0.38460  0.13510  0.68690  1.0000 0.1193045173
H   H100      1.0  0.38460  0.86490  0.31310  1.0000 0.1193045173
H   H101      1.0  0.41920  0.55290  0.98760  1.0000 0.1193045173
H   H102      1.0  0.41920  0.44710  0.01240  1.0000 0.1193045173
H   H103      1.0  0.41920  0.05290  0.51240  1.0000 0.1193045173
H   H104      1.0  0.41920  0.94710  0.48760  1.0000 0.1193045173
H   H105      1.0  0.32730  0.31430  0.74600  1.0000 0.1193045173
H   H106      1.0  0.32730  0.68570  0.25400  1.0000 0.1193045173
H   H107      1.0  0.32730  0.81430  0.75400  1.0000 0.1193045173
H   H108      1.0  0.32730  0.18570  0.24600  1.0000 0.1193045173
H   H109      1.0  0.31530  0.43140  0.83480  1.0000 0.1193045173
H   H110      1.0  0.31530  0.56860  0.16520  1.0000 0.1193045173
H   H111      1.0  0.31530  0.93140  0.66520  1.0000 0.1193045173
H   H112      1.0  0.31530  0.06860  0.33480  1.0000 0.1193045173
H   H113      1.0  0.19980  0.57370  0.79490  1.0000 0.1193045173
H   H114      1.0  0.19980  0.42630  0.20510  1.0000 0.1193045173
H   H115      1.0  0.19980  0.07370  0.70510  1.0000 0.1193045173
H   H116      1.0  0.19980  0.92630  0.29490  1.0000 0.1193045173
H   H117      1.0  0.18770  0.61460  0.73320  1.0000 0.1193045173
H   H118      1.0  0.18770  0.38540  0.26680  1.0000 0.1193045173
H   H119      1.0  0.18770  0.11460  0.76680  1.0000 0.1193045173
H   H120      1.0  0.18770  0.88540  0.23320  1.0000 0.1193045173
H   H121      1.0  0.26840  0.44610  0.51680  1.0000 0.1193045173
H   H122      1.0  0.26840  0.55390  0.48320  1.0000 0.1193045173
H   H123      1.0  0.26840  0.94610  0.98320  1.0000 0.1193045173
H   H124      1.0  0.26840  0.05390  0.01680  1.0000 0.1193045173
H   H125      1.0  0.61290  0.76730  0.56390  1.0000 0.1193045173
H   H126      1.0  0.61290  0.23270  0.43610  1.0000 0.1193045173
H   H127      1.0  0.61290  0.26730  0.93610  1.0000 0.1193045173
H   H128      1.0  0.61290  0.73270  0.06390  1.0000 0.1193045173
H   H129      1.0  0.61710  0.76080  0.68550  1.0000 0.1124828744
H   H130      1.0  0.61710  0.23920  0.31450  1.0000 0.1124828744
H   H131      1.0  0.61710  0.26080  0.81450  1.0000 0.1124828744
H   H132      1.0  0.61710  0.73920  0.18550  1.0000 0.1124828744
H   H133      1.0  0.73400  0.74650  0.68370  1.0000 0.1384728963
H   H134      1.0  0.73400  0.25350  0.31630  1.0000 0.1384728963
H   H135      1.0  0.73400  0.24650  0.81630  1.0000 0.1384728963
H   H136      1.0  0.73400  0.75350  0.18370  1.0000 0.1384728963
H   H137      1.0  0.72640  0.75340  0.55870  1.0000 0.1384728963
H   H138      1.0  0.72640  0.24660  0.44130  1.0000 0.1384728963
H   H139      1.0  0.72640  0.25340  0.94130  1.0000 0.1384728963
H   H140      1.0  0.72640  0.74660  0.05870  1.0000 0.1384728963
H   H141      1.0  0.84550  0.72340  0.67480  1.0000 0.1193045173
H   H142      1.0  0.84550  0.27660  0.32520  1.0000 0.1193045173
H   H143      1.0  0.84550  0.22340  0.82520  1.0000 0.1193045173
H   H144      1.0  0.84550  0.77660  0.17480  1.0000 0.1193045173
H   H145      1.0  0.06500  0.73690  0.57450  1.0000 0.1268792284
H   H146      1.0  0.06500  0.26310  0.42550  1.0000 0.1268792284
H   H147      1.0  0.06500  0.23690  0.92550  1.0000 0.1268792284
H   H148      1.0  0.06500  0.76310  0.07450  1.0000 0.1268792284
H   H149      1.0  0.95150  0.74180  0.57740  1.0000 0.1384728963
H   H150      1.0  0.95150  0.25820  0.42260  1.0000 0.1384728963
H   H151      1.0  0.95150  0.24180  0.92260  1.0000 0.1384728963
H   H152      1.0  0.95150  0.75820  0.07740  1.0000 0.1384728963
H   H153      1.0  0.95740  0.70350  0.69660  1.0000 0.1384728963
H   H154      1.0  0.95740  0.29650  0.30340  1.0000 0.1384728963
H   H155      1.0  0.95740  0.20350  0.80340  1.0000 0.1384728963
H   H156      1.0  0.95740  0.79650  0.19660  1.0000 0.1384728963
H   H157      1.0  0.06910  0.69920  0.69080  1.0000 0.1193045173
H   H158      1.0  0.06910  0.30080  0.30920  1.0000 0.1193045173
H   H159      1.0  0.06910  0.19920  0.80920  1.0000 0.1193045173
H   H160      1.0  0.06910  0.80080  0.19080  1.0000 0.1193045173
H   H161      1.0  0.66790  0.37120  0.88740  1.0000 0.1124828744
H   H162      1.0  0.66790  0.62880  0.11260  1.0000 0.1124828744
H   H163      1.0  0.66790  0.87120  0.61260  1.0000 0.1124828744
H   H164      1.0  0.66790  0.12880  0.38740  1.0000 0.1124828744
H   H165      1.0  0.54790  0.45340  0.54880  1.0000 0.1124828744
H   H166      1.0  0.54790  0.54660  0.45120  1.0000 0.1124828744
H   H167      1.0  0.54790  0.95340  0.95120  1.0000 0.1124828744
H   H168      1.0  0.54790  0.04660  0.04880  1.0000 0.1124828744
H   H169      1.0  0.72040  0.34800  0.95760  1.0000 0.1124828744
H   H170      1.0  0.72040  0.65200  0.04240  1.0000 0.1124828744
H   H171      1.0  0.72040  0.84800  0.54240  1.0000 0.1124828744
H   H172      1.0  0.72040  0.15200  0.45760  1.0000 0.1124828744
H   H173      1.0  0.77010  0.55190  0.94890  1.0000 0.1124828744
H   H174      1.0  0.77010  0.44810  0.05110  1.0000 0.1124828744
H   H175      1.0  0.77010  0.05190  0.55110  1.0000 0.1124828744
H   H176      1.0  0.77010  0.94810  0.44890  1.0000 0.1124828744
H   H177      1.0  0.52040  0.37470  0.54690  1.0000 0.1193045173
H   H178      1.0  0.52040  0.62530  0.45310  1.0000 0.1193045173
H   H179      1.0  0.52040  0.87470  0.95310  1.0000 0.1193045173
H   H180      1.0  0.52040  0.12530  0.04690  1.0000 0.1193045173
H   H181      1.0  0.50960  0.57520  0.70910  1.0000 0.1193045173
H   H182      1.0  0.50960  0.42480  0.29090  1.0000 0.1193045173
H   H183      1.0  0.50960  0.07520  0.79090  1.0000 0.1193045173
H   H184      1.0  0.50960  0.92480  0.20910  1.0000 0.1193045173
H   H185      1.0  0.71350  0.64740  0.83590  1.0000 0.1268792284
H   H186      1.0  0.71350  0.35260  0.16410  1.0000 0.1268792284
H   H187      1.0  0.71350  0.14740  0.66410  1.0000 0.1268792284
H   H188      1.0  0.71350  0.85260  0.33590  1.0000 0.1268792284
H   H189      1.0  0.63500  0.51280  0.55070  1.0000 0.1193045173
H   H190      1.0  0.63500  0.48720  0.44930  1.0000 0.1193045173
H   H191      1.0  0.63500  0.01280  0.94930  1.0000 0.1193045173
H   H192      1.0  0.63500  0.98720  0.05070  1.0000 0.1193045173
H   H193      1.0  0.72720  0.49090  0.82880  1.0000 0.1193045173
H   H194      1.0  0.72720  0.50910  0.17120  1.0000 0.1193045173
H   H195      1.0  0.72720  0.99090  0.67120  1.0000 0.1193045173
H   H196      1.0  0.72720  0.00910  0.32880  1.0000 0.1193045173
H   H197      1.0  0.63550  0.63420  0.61370  1.0000 0.1193045173
H   H198      1.0  0.63550  0.36580  0.38630  1.0000 0.1193045173
H   H199      1.0  0.63550  0.13420  0.88630  1.0000 0.1193045173
H   H200      1.0  0.63550  0.86580  0.11370  1.0000 0.1193045173
H   H201      1.0  0.16010  0.25680  0.59070  1.0000 0.1268792284
H   H202      1.0  0.16010  0.74320  0.40930  1.0000 0.1193045173
H   H203      1.0  0.16010  0.75680  0.90930  1.0000 0.1193045173
H   H204      1.0  0.16010  0.24320  0.09070  1.0000 0.1268792284
H   H205      1.0  0.59300  0.35770  0.66320  1.0000 0.1193045173
H   H206      1.0  0.59300  0.64230  0.33680  1.0000 0.1193045173
H   H207      1.0  0.59300  0.85770  0.83680  1.0000 0.1193045173
H   H208      1.0  0.59300  0.14230  0.16320  1.0000 0.1193045173
H   H209      1.0  0.62770  0.32520  0.75080  1.0000 0.1268792284
H   H210      1.0  0.62770  0.67480  0.24920  1.0000 0.1268792284
H   H211      1.0  0.62770  0.82520  0.74920  1.0000 0.1268792284
H   H212      1.0  0.62770  0.17480  0.25080  1.0000 0.1268792284
H   H213      1.0  0.68080  0.49230  0.95140  1.0000 0.1193045173
H   H214      1.0  0.68080  0.50770  0.04860  1.0000 0.1193045173
H   H215      1.0  0.68080  0.99230  0.54860  1.0000 0.1193045173
H   H216      1.0  0.68080  0.00770  0.45140  1.0000 0.1193045173
H   H217      1.0  0.57390  0.51550  0.67060  1.0000 0.1193045173
H   H218      1.0  0.57390  0.48450  0.32940  1.0000 0.1193045173
H   H219      1.0  0.57390  0.01550  0.82940  1.0000 0.1193045173
H   H220      1.0  0.57390  0.98450  0.17060  1.0000 0.1193045173
H   H221      1.0  0.54230  0.40100  0.04210  1.0000 0.1193045173
H   H222      1.0  0.54230  0.59900  0.95790  1.0000 0.1193045173
H   H223      1.0  0.54230  0.90100  0.45790  1.0000 0.1193045173
H   H224      1.0  0.54230  0.09900  0.54210  1.0000 0.1193045173
H   H225      1.0  0.60220  0.66160  0.54570  1.0000 0.1193045173
H   H226      1.0  0.60220  0.33840  0.45430  1.0000 0.1193045173
H   H227      1.0  0.60220  0.16160  0.95430  1.0000 0.1193045173
H   H228      1.0  0.60220  0.83840  0.04570  1.0000 0.1193045173
H   H229      1.0  0.49280  0.61950  0.76840  1.0000 0.1193045173
H   H230      1.0  0.49280  0.38050  0.23160  1.0000 0.1193045173
H   H231      1.0  0.49280  0.11950  0.73160  1.0000 0.1193045173
H   H232      1.0  0.49280  0.88050  0.26840  1.0000 0.1193045173
H   H233      1.0  0.68920  0.30550  0.01490  1.0000 0.1268792284
H   H234      1.0  0.68920  0.69450  0.98510  1.0000 0.1268792284
H   H235      1.0  0.68920  0.80550  0.48510  1.0000 0.1268792284
H   H236      1.0  0.68920  0.19450  0.51490  1.0000 0.1268792284
H   H237      1.0  0.79860  0.63020  0.95000  1.0000 0.1193045173
H   H238      1.0  0.79860  0.36980  0.05000  1.0000 0.1193045173
H   H239      1.0  0.79860  0.13020  0.55000  1.0000 0.1193045173
H   H240      1.0  0.79860  0.86980  0.45000  1.0000 0.1193045173
H   H241      1.0  0.61950  0.43710  0.66570  1.0000 0.1193045173
H   H242      1.0  0.61950  0.56290  0.33430  1.0000 0.1193045173
H   H243      1.0  0.61950  0.93710  0.83430  1.0000 0.1193045173
H   H244      1.0  0.61950  0.06290  0.16570  1.0000 0.1193045173
H   H245      1.0  0.63540  0.69860  0.48460  1.0000 0.1268792284
H   H246      1.0  0.63540  0.30140  0.51540  1.0000 0.1268792284
H   H247      1.0  0.63540  0.19860  0.01540  1.0000 0.1268792284
H   H248      1.0  0.63540  0.80140  0.98460  1.0000 0.1268792284
H   H249      1.0  0.77060  0.59600  0.45960  1.0000 0.1268792284
H   H250      1.0  0.77060  0.40400  0.54040  1.0000 0.1268792284
H   H251      1.0  0.77060  0.09600  0.04040  1.0000 0.1268792284
H   H252      1.0  0.77060  0.90400  0.95960  1.0000 0.1268792284
H   H253      1.0  0.68350  0.64490  0.68570  1.0000 0.1124828744
H   H254      1.0  0.68350  0.35510  0.31430  1.0000 0.1124828744
H   H255      1.0  0.68350  0.14490  0.81430  1.0000 0.1124828744
H   H256      1.0  0.68350  0.85510  0.18570  1.0000 0.1124828744
H   H257      1.0  0.61540  0.36490  0.81310  1.0000 0.1193045173
H   H258      1.0  0.61540  0.63510  0.18690  1.0000 0.1193045173
H   H259      1.0  0.61540  0.86490  0.68690  1.0000 0.1193045173
H   H260      1.0  0.61540  0.13510  0.31310  1.0000 0.1193045173
H   H261      1.0  0.58080  0.44710  0.98760  1.0000 0.1193045173
H   H262      1.0  0.58080  0.55290  0.01240  1.0000 0.1193045173
H   H263      1.0  0.58080  0.94710  0.51240  1.0000 0.1193045173
H   H264      1.0  0.58080  0.05290  0.48760  1.0000 0.1193045173
H   H265      1.0  0.67270  0.68570  0.74600  1.0000 0.1193045173
H   H266      1.0  0.67270  0.31430  0.25400  1.0000 0.1193045173
H   H267      1.0  0.67270  0.18570  0.75400  1.0000 0.1193045173
H   H268      1.0  0.67270  0.81430  0.24600  1.0000 0.1193045173
H   H269      1.0  0.68470  0.56860  0.83480  1.0000 0.1193045173
H   H270      1.0  0.68470  0.43140  0.16520  1.0000 0.1193045173
H   H271      1.0  0.68470  0.06860  0.66520  1.0000 0.1193045173
H   H272      1.0  0.68470  0.93140  0.33480  1.0000 0.1193045173
H   H273      1.0  0.80020  0.42630  0.79490  1.0000 0.1193045173
H   H274      1.0  0.80020  0.57370  0.20510  1.0000 0.1193045173
H   H275      1.0  0.80020  0.92630  0.70510  1.0000 0.1193045173
H   H276      1.0  0.80020  0.07370  0.29490  1.0000 0.1193045173
H   H277      1.0  0.81230  0.38540  0.73320  1.0000 0.1193045173
H   H278      1.0  0.81230  0.61460  0.26680  1.0000 0.1193045173
H   H279      1.0  0.81230  0.88540  0.76680  1.0000 0.1193045173
H   H280      1.0  0.81230  0.11460  0.23320  1.0000 0.1193045173
H   H281      1.0  0.73160  0.55390  0.51680  1.0000 0.1193045173
H   H282      1.0  0.73160  0.44610  0.48320  1.0000 0.1193045173
H   H283      1.0  0.73160  0.05390  0.98320  1.0000 0.1193045173
H   H284      1.0  0.73160  0.94610  0.01680  1.0000 0.1193045173
H   H285      1.0  0.38710  0.23270  0.56390  1.0000 0.1193045173
H   H286      1.0  0.38710  0.76730  0.43610  1.0000 0.1193045173
H   H287      1.0  0.38710  0.73270  0.93610  1.0000 0.1193045173
H   H288      1.0  0.38710  0.26730  0.06390  1.0000 0.1193045173
H   H289      1.0  0.38290  0.23920  0.68550  1.0000 0.1124828744
H   H290      1.0  0.38290  0.76080  0.31450  1.0000 0.1124828744
H   H291      1.0  0.38290  0.73920  0.81450  1.0000 0.1124828744
H   H292      1.0  0.38290  0.26080  0.18550  1.0000 0.1124828744
H   H293      1.0  0.26600  0.25350  0.68370  1.0000 0.1384728963
H   H294      1.0  0.26600  0.74650  0.31630  1.0000 0.1384728963
H   H295      1.0  0.26600  0.75350  0.81630  1.0000 0.1384728963
H   H296      1.0  0.26600  0.24650  0.18370  1.0000 0.1384728963
H   H297      1.0  0.27360  0.24660  0.55870  1.0000 0.1384728963
H   H298      1.0  0.27360  0.75340  0.44130  1.0000 0.1384728963
H   H299      1.0  0.27360  0.74660  0.94130  1.0000 0.1384728963
H   H300      1.0  0.27360  0.25340  0.05870  1.0000 0.1384728963
H   H301      1.0  0.15450  0.27660  0.67480  1.0000 0.1193045173
H   H302      1.0  0.15450  0.72340  0.32520  1.0000 0.1193045173
H   H303      1.0  0.15450  0.77660  0.82520  1.0000 0.1193045173
H   H304      1.0  0.15450  0.22340  0.17480  1.0000 0.1193045173
H   H305      1.0  0.93500  0.26310  0.57450  1.0000 0.1268792284
H   H306      1.0  0.93500  0.73690  0.42550  1.0000 0.1268792284
H   H307      1.0  0.93500  0.76310  0.92550  1.0000 0.1268792284
H   H308      1.0  0.93500  0.23690  0.07450  1.0000 0.1268792284
H   H309      1.0  0.04850  0.25820  0.57740  1.0000 0.1384728963
H   H310      1.0  0.04850  0.74180  0.42260  1.0000 0.1384728963
H   H311      1.0  0.04850  0.75820  0.92260  1.0000 0.1384728963
H   H312      1.0  0.04850  0.24180  0.07740  1.0000 0.1384728963
H   H313      1.0  0.04260  0.29650  0.69660  1.0000 0.1384728963
H   H314      1.0  0.04260  0.70350  0.30340  1.0000 0.1384728963
H   H315      1.0  0.04260  0.79650  0.80340  1.0000 0.1384728963
H   H316      1.0  0.04260  0.20350  0.19660  1.0000 0.1384728963
H   H317      1.0  0.93090  0.30080  0.69080  1.0000 0.1193045173
H   H318      1.0  0.93090  0.69920  0.30920  1.0000 0.1193045173
H   H319      1.0  0.93090  0.80080  0.80920  1.0000 0.1193045173
H   H320      1.0  0.93090  0.19920  0.19080  1.0000 0.1193045173
C   C1        1.0  0.27710  0.65120  0.73710  1.0000 -0.0355619492
C   C2        1.0  0.27710  0.34880  0.26290  1.0000 -0.0355619492
C   C3        1.0  0.27710  0.15120  0.76290  1.0000 -0.0355619492
C   C4        1.0  0.27710  0.84880  0.23710  1.0000 -0.0355619492
C   C5        1.0  0.44690  0.64160  0.60440  1.0000 -0.0288609936
C   C6        1.0  0.44690  0.35840  0.39560  1.0000 -0.0288609936
C   C7        1.0  0.44690  0.14160  0.89560  1.0000 -0.0288609936
C   C8        1.0  0.44690  0.85840  0.10440  1.0000 -0.0288609936
C   C9        1.0  0.29400  0.34830  0.46660  1.0000 -0.0288609936
C   C10       1.0  0.29400  0.65170  0.53340  1.0000 -0.0288609936
C   C11       1.0  0.29400  0.84830  0.03340  1.0000 -0.0288609936
C   C12       1.0  0.29400  0.15170  0.96660  1.0000 -0.0288609936
C   C13       1.0  0.27770  0.44910  0.89190  1.0000 0.0693905281
C   C14       1.0  0.27770  0.55090  0.10810  1.0000 0.0693905281
C   C15       1.0  0.27770  0.94910  0.60810  1.0000 0.0693905281
C   C16       1.0  0.27770  0.05090  0.39190  1.0000 0.0693905281
C   C17       1.0  0.46610  0.69260  0.60250  1.0000 0.5662922428
C   C18       1.0  0.46610  0.30740  0.39750  1.0000 0.5662922428
C   C19       1.0  0.46610  0.19260  0.89750  1.0000 0.5662922428
C   C20       1.0  0.46610  0.80740  0.10250  1.0000 0.5662922428
C   C21       1.0  0.27170  0.32270  0.42810  1.0000 0.5859872566
C   C22       1.0  0.27170  0.67730  0.57190  1.0000 0.5859872566
C   C23       1.0  0.27170  0.82270  0.07190  1.0000 0.5859872566
C   C24       1.0  0.27170  0.17730  0.92810  1.0000 0.5859872566
C   C25       1.0  0.26480  0.68070  0.69830  1.0000 0.5794751909
C   C26       1.0  0.26480  0.31930  0.30170  1.0000 0.5794751909
C   C27       1.0  0.26480  0.18070  0.80170  1.0000 0.5794751909
C   C28       1.0  0.26480  0.81930  0.19830  1.0000 0.5794751909
C   C29       1.0  0.32240  0.59660  0.88830  1.0000 -0.1967015051
C   C30       1.0  0.32240  0.40340  0.11170  1.0000 -0.1967015051
C   C31       1.0  0.32240  0.09660  0.61170  1.0000 -0.1967015051
C   C32       1.0  0.32240  0.90340  0.38830  1.0000 -0.1967015051
C   C33       1.0  0.21700  0.30220  0.89280  1.0000 0.5662922428
C   C34       1.0  0.21700  0.69780  0.10720  1.0000 0.5662922428
C   C35       1.0  0.21700  0.80220  0.60720  1.0000 0.5662922428
C   C36       1.0  0.21700  0.19780  0.39280  1.0000 0.5662922428
C   C37       1.0  0.44330  0.56550  0.57210  1.0000 -0.151237182
C   C38       1.0  0.44330  0.43450  0.42790  1.0000 -0.151237182
C   C39       1.0  0.44330  0.06550  0.92790  1.0000 -0.151237182
C   C40       1.0  0.44330  0.93450  0.07210  1.0000 -0.151237182
C   C41       1.0  0.41380  0.54570  0.60810  1.0000 0.0693905281
C   C42       1.0  0.41380  0.45430  0.39190  1.0000 0.0693905281
C   C43       1.0  0.41380  0.04570  0.89190  1.0000 0.0693905281
C   C44       1.0  0.41380  0.95430  0.10810  1.0000 0.0693905281
C   C45       1.0  0.31510  0.64090  0.97470  1.0000 -0.151237182
C   C46       1.0  0.31510  0.35910  0.02530  1.0000 -0.151237182
C   C47       1.0  0.31510  0.14090  0.52530  1.0000 -0.151237182
C   C48       1.0  0.31510  0.85910  0.47470  1.0000 -0.151237182
C   C49       1.0  0.24160  0.42910  0.92610  1.0000 -0.151237182
C   C50       1.0  0.24160  0.57090  0.07390  1.0000 -0.151237182
C   C51       1.0  0.24160  0.92910  0.57390  1.0000 -0.151237182
C   C52       1.0  0.24160  0.07090  0.42610  1.0000 -0.151237182
C   C53       1.0  0.41020  0.68030  0.07250  1.0000 0.5794751909
C   C54       1.0  0.41020  0.31970  0.92750  1.0000 0.5794751909
C   C55       1.0  0.41020  0.18030  0.42750  1.0000 0.5794751909
C   C56       1.0  0.41020  0.81970  0.57250  1.0000 0.5794751909
C   C57       1.0  0.45950  0.61270  0.57100  1.0000 -0.0906488991
C   C58       1.0  0.45950  0.38730  0.42900  1.0000 -0.0906488991
C   C59       1.0  0.45950  0.11270  0.92900  1.0000 -0.0906488991
C   C60       1.0  0.45950  0.88730  0.07100  1.0000 -0.0906488991
C   C61       1.0  0.45840  0.40140  0.71590  1.0000 -0.151237182
C   C62       1.0  0.45840  0.59860  0.28410  1.0000 -0.151237182
C   C63       1.0  0.45840  0.90140  0.78410  1.0000 -0.151237182
C   C64       1.0  0.45840  0.09860  0.21590  1.0000 -0.151237182
C   C65       1.0  0.23820  0.35270  0.89250  1.0000 -0.0243278567
C   C66       1.0  0.23820  0.64730  0.10750  1.0000 -0.0243278567
C   C67       1.0  0.23820  0.85270  0.60750  1.0000 -0.0243278567
C   C68       1.0  0.23820  0.14730  0.39250  1.0000 -0.0243278567
C   C69       1.0  0.40300  0.39440  0.68950  1.0000 0.0693905281
C   C70       1.0  0.40300  0.60560  0.31050  1.0000 0.0693905281
C   C71       1.0  0.40300  0.89440  0.81050  1.0000 0.0693905281
C   C72       1.0  0.40300  0.10560  0.18950  1.0000 0.0693905281
C   C73       1.0  0.42060  0.34150  0.76360  1.0000 -0.0288609936
C   C74       1.0  0.42060  0.65850  0.23640  1.0000 -0.0288609936
C   C75       1.0  0.42060  0.84150  0.73640  1.0000 -0.0288609936
C   C76       1.0  0.42060  0.15850  0.26360  1.0000 -0.0288609936
C   C77       1.0  0.30150  0.57310  0.85130  1.0000 0.0791320916
C   C78       1.0  0.30150  0.42690  0.14870  1.0000 0.0791320916
C   C79       1.0  0.30150  0.07310  0.64870  1.0000 0.0791320916
C   C80       1.0  0.30150  0.92690  0.35130  1.0000 0.0791320916
C   C81       1.0  0.27450  0.37180  0.85840  1.0000 -0.0906488991
C   C82       1.0  0.27450  0.62820  0.14160  1.0000 -0.0906488991
C   C83       1.0  0.27450  0.87180  0.64160  1.0000 -0.0906488991
C   C84       1.0  0.27450  0.12820  0.35840  1.0000 -0.0906488991
C   C85       1.0  0.37320  0.47050  0.57540  1.0000 -0.1967015051
C   C86       1.0  0.37320  0.52950  0.42460  1.0000 -0.1967015051
C   C87       1.0  0.37320  0.97050  0.92460  1.0000 -0.1967015051
C   C88       1.0  0.37320  0.02950  0.07540  1.0000 -0.1967015051
C   C89       1.0  0.32870  0.57240  0.92600  1.0000 0.0791320916
C   C90       1.0  0.32870  0.42760  0.07400  1.0000 0.0791320916
C   C91       1.0  0.32870  0.07240  0.57400  1.0000 0.0791320916
C   C92       1.0  0.32870  0.92760  0.42600  1.0000 0.0791320916
C   C93       1.0  0.28710  0.52470  0.85300  1.0000 -0.1967015051
C   C94       1.0  0.28710  0.47530  0.14700  1.0000 -0.1967015051
C   C95       1.0  0.28710  0.02470  0.64700  1.0000 -0.1967015051
C   C96       1.0  0.28710  0.97530  0.35300  1.0000 -0.1967015051
C   C97       1.0  0.37150  0.39830  0.61310  1.0000 -0.1848857237
C   C98       1.0  0.37150  0.60170  0.38690  1.0000 -0.1848857237
C   C99       1.0  0.37150  0.89830  0.88690  1.0000 -0.1848857237
C   C100      1.0  0.37150  0.10170  0.11310  1.0000 -0.1848857237
C   C101      1.0  0.39270  0.42100  0.64950  1.0000 0.0859971808
C   C102      1.0  0.39270  0.57900  0.35050  1.0000 0.0859971808
C   C103      1.0  0.39270  0.92100  0.85050  1.0000 0.0859971808
C   C104      1.0  0.39270  0.07900  0.14950  1.0000 0.0859971808
C   C105      1.0  0.82110  0.73980  0.61740  1.0000 -0.1426008774
C   C106      1.0  0.82110  0.26020  0.38260  1.0000 -0.1426008774
C   C107      1.0  0.82110  0.23980  0.88260  1.0000 -0.1426008774
C   C108      1.0  0.82110  0.76020  0.11740  1.0000 -0.1426008774
C   C109      1.0  0.41650  0.62300  0.64030  1.0000 -0.0906488991
C   C110      1.0  0.41650  0.37700  0.35970  1.0000 -0.0906488991
C   C111      1.0  0.41650  0.12300  0.85970  1.0000 -0.0906488991
C   C112      1.0  0.41650  0.87700  0.14030  1.0000 -0.0906488991
C   C113      1.0  0.38830  0.65110  0.03490  1.0000 -0.0143805964
C   C114      1.0  0.38830  0.34890  0.96510  1.0000 -0.0143805964
C   C115      1.0  0.38830  0.15110  0.46510  1.0000 -0.0143805964
C   C116      1.0  0.38830  0.84890  0.53490  1.0000 -0.0143805964
C   C117      1.0  0.33690  0.65530  0.76030  1.0000 -0.1071780978
C   C118      1.0  0.33690  0.34470  0.23970  1.0000 -0.1071780978
C   C119      1.0  0.33690  0.15530  0.73970  1.0000 -0.1071780978
C   C120      1.0  0.33690  0.84470  0.26030  1.0000 -0.1071780978
C   C121      1.0  0.31470  0.52430  0.92630  1.0000 -0.1919522798
C   C122      1.0  0.31470  0.47570  0.07370  1.0000 -0.1919522798
C   C123      1.0  0.31470  0.02430  0.57370  1.0000 -0.1919522798
C   C124      1.0  0.31470  0.97570  0.42630  1.0000 -0.1919522798
C   C125      1.0  0.39790  0.49430  0.61020  1.0000 0.0791320916
C   C126      1.0  0.39790  0.50570  0.38980  1.0000 0.0791320916
C   C127      1.0  0.39790  0.99430  0.88980  1.0000 0.0791320916
C   C128      1.0  0.39790  0.00570  0.11020  1.0000 0.0791320916
C   C129      1.0  0.43100  0.31360  0.80290  1.0000 0.5794751909
C   C130      1.0  0.43100  0.68640  0.19710  1.0000 0.5794751909
C   C131      1.0  0.43100  0.81360  0.69710  1.0000 0.5794751909
C   C132      1.0  0.43100  0.18640  0.30290  1.0000 0.5794751909
C   C133      1.0  0.40840  0.46910  0.64710  1.0000 -0.1919522798
C   C134      1.0  0.40840  0.53090  0.35290  1.0000 -0.1919522798
C   C135      1.0  0.40840  0.96910  0.85290  1.0000 -0.1919522798
C   C136      1.0  0.40840  0.03090  0.14710  1.0000 -0.1919522798
C   C137      1.0  0.42090  0.60920  0.02560  1.0000 -0.1020638417
C   C138      1.0  0.42090  0.39080  0.97440  1.0000 -0.1020638417
C   C139      1.0  0.42090  0.10920  0.47440  1.0000 -0.1020638417
C   C140      1.0  0.42090  0.89080  0.52560  1.0000 -0.1020638417
C   C141      1.0  0.36520  0.35230  0.52820  1.0000 -0.151237182
C   C142      1.0  0.36520  0.64770  0.47180  1.0000 -0.151237182
C   C143      1.0  0.36520  0.85230  0.97180  1.0000 -0.151237182
C   C144      1.0  0.36520  0.14770  0.02820  1.0000 -0.151237182
C   C145      1.0  0.46830  0.37530  0.75190  1.0000 -0.1020638417
C   C146      1.0  0.46830  0.62470  0.24810  1.0000 -0.1020638417
C   C147      1.0  0.46830  0.87530  0.74810  1.0000 -0.1020638417
C   C148      1.0  0.46830  0.12470  0.25190  1.0000 -0.1020638417
C   C149      1.0  0.33390  0.66650  0.00880  1.0000 -0.1020638417
C   C150      1.0  0.33390  0.33350  0.99120  1.0000 -0.1020638417
C   C151      1.0  0.33390  0.16650  0.49120  1.0000 -0.1020638417
C   C152      1.0  0.33390  0.83350  0.50880  1.0000 -0.1020638417
C   C153      1.0  0.22360  0.38220  0.92660  1.0000 -0.0906488991
C   C154      1.0  0.22360  0.61780  0.07340  1.0000 -0.0906488991
C   C155      1.0  0.22360  0.88220  0.57340  1.0000 -0.0906488991
C   C156      1.0  0.22360  0.11780  0.42660  1.0000 -0.0906488991
C   C157      1.0  0.29260  0.59900  0.81110  1.0000 0.0693905281
C   C158      1.0  0.29260  0.40100  0.18890  1.0000 0.0693905281
C   C159      1.0  0.29260  0.09900  0.68890  1.0000 0.0693905281
C   C160      1.0  0.29260  0.90100  0.31110  1.0000 0.0693905281
C   C161      1.0  0.36030  0.42250  0.57640  1.0000 0.0791320916
C   C162      1.0  0.36030  0.57750  0.42360  1.0000 0.0791320916
C   C163      1.0  0.36030  0.92250  0.92360  1.0000 0.0791320916
C   C164      1.0  0.36030  0.07750  0.07640  1.0000 0.0791320916
C   C165      1.0  0.40060  0.57530  0.64160  1.0000 -0.151237182
C   C166      1.0  0.40060  0.42470  0.35840  1.0000 -0.151237182
C   C167      1.0  0.40060  0.07530  0.85840  1.0000 -0.151237182
C   C168      1.0  0.40060  0.92470  0.14160  1.0000 -0.151237182
C   C169      1.0  0.34410  0.32990  0.49200  1.0000 -0.1020638417
C   C170      1.0  0.34410  0.67010  0.50800  1.0000 -0.1020638417
C   C171      1.0  0.34410  0.82990  0.00800  1.0000 -0.1020638417
C   C172      1.0  0.34410  0.17010  0.99200  1.0000 -0.1020638417
C   C173      1.0  0.26430  0.39170  0.47650  1.0000 -0.1020638417
C   C174      1.0  0.26430  0.60830  0.52350  1.0000 -0.1020638417
C   C175      1.0  0.26430  0.89170  0.02350  1.0000 -0.1020638417
C   C176      1.0  0.26430  0.10830  0.97650  1.0000 -0.1020638417
C   C177      1.0  0.35500  0.36050  0.70250  1.0000 -0.151237182
C   C178      1.0  0.35500  0.63950  0.29750  1.0000 -0.151237182
C   C179      1.0  0.35500  0.86050  0.79750  1.0000 -0.151237182
C   C180      1.0  0.35500  0.13950  0.20250  1.0000 -0.151237182
C   C181      1.0  0.29410  0.49980  0.89040  1.0000 0.0791320916
C   C182      1.0  0.29410  0.50020  0.10960  1.0000 0.0791320916
C   C183      1.0  0.29410  0.99980  0.60960  1.0000 0.0791320916
C   C184      1.0  0.29410  0.00020  0.39040  1.0000 0.0791320916
C   C185      1.0  0.34490  0.63080  0.79710  1.0000 -0.1597255992
C   C186      1.0  0.34490  0.36920  0.20290  1.0000 -0.1597255992
C   C187      1.0  0.34490  0.13080  0.70290  1.0000 -0.1597255992
C   C188      1.0  0.34490  0.86920  0.29710  1.0000 -0.1597255992
C   C189      1.0  0.39910  0.58230  0.99200  1.0000 -0.151237182
C   C190      1.0  0.39910  0.41770  0.00800  1.0000 -0.151237182
C   C191      1.0  0.39910  0.08230  0.50800  1.0000 -0.151237182
C   C192      1.0  0.39910  0.91770  0.49200  1.0000 -0.151237182
C   C193      1.0  0.33670  0.39640  0.53820  1.0000 0.0791320916
C   C194      1.0  0.33670  0.60360  0.46180  1.0000 0.0791320916
C   C195      1.0  0.33670  0.89640  0.96180  1.0000 0.0791320916
C   C196      1.0  0.33670  0.10360  0.03820  1.0000 0.0791320916
C   C197      1.0  0.34740  0.59810  0.96430  1.0000 0.0693905281
C   C198      1.0  0.34740  0.40190  0.03570  1.0000 0.0693905281
C   C199      1.0  0.34740  0.09810  0.53570  1.0000 0.0693905281
C   C200      1.0  0.34740  0.90190  0.46430  1.0000 0.0693905281
C   C201      1.0  0.36170  0.33550  0.73810  1.0000 -0.1071780978
C   C202      1.0  0.36170  0.66450  0.26190  1.0000 -0.1071780978
C   C203      1.0  0.36170  0.83550  0.76190  1.0000 -0.1071780978
C   C204      1.0  0.36170  0.16450  0.23810  1.0000 -0.1071780978
C   C205      1.0  0.29260  0.41920  0.85810  1.0000 -0.151237182
C   C206      1.0  0.29260  0.58080  0.14190  1.0000 -0.151237182
C   C207      1.0  0.29260  0.91920  0.64190  1.0000 -0.151237182
C   C208      1.0  0.29260  0.08080  0.35810  1.0000 -0.151237182
C   C209      1.0  0.23460  0.59430  0.78650  1.0000 -0.151237182
C   C210      1.0  0.23460  0.40570  0.21350  1.0000 -0.151237182
C   C211      1.0  0.23460  0.09430  0.71350  1.0000 -0.151237182
C   C212      1.0  0.23460  0.90570  0.28650  1.0000 -0.151237182
C   C213      1.0  0.22690  0.61920  0.74970  1.0000 -0.1020638417
C   C214      1.0  0.22690  0.38080  0.25030  1.0000 -0.1020638417
C   C215      1.0  0.22690  0.11920  0.75030  1.0000 -0.1020638417
C   C216      1.0  0.22690  0.88080  0.24970  1.0000 -0.1020638417
C   C217      1.0  0.28640  0.41630  0.51110  1.0000 -0.1597255992
C   C218      1.0  0.28640  0.58370  0.48890  1.0000 -0.1597255992
C   C219      1.0  0.28640  0.91630  0.98890  1.0000 -0.1597255992
C   C220      1.0  0.28640  0.08370  0.01110  1.0000 -0.1597255992
C   C221      1.0  0.63800  0.76350  0.58850  1.0000 0.0693905281
C   C222      1.0  0.63800  0.23650  0.41150  1.0000 0.0693905281
C   C223      1.0  0.63800  0.26350  0.91150  1.0000 0.0693905281
C   C224      1.0  0.63800  0.73650  0.08850  1.0000 0.0693905281
C   C225      1.0  0.63950  0.75980  0.65970  1.0000 0.0791320916
C   C226      1.0  0.63950  0.24020  0.34030  1.0000 0.0791320916
C   C227      1.0  0.63950  0.25980  0.84030  1.0000 0.0791320916
C   C228      1.0  0.63950  0.74020  0.15970  1.0000 0.0791320916
C   C229      1.0  0.71000  0.75070  0.65870  1.0000 -0.1919522798
C   C230      1.0  0.71000  0.24930  0.34130  1.0000 -0.1919522798
C   C231      1.0  0.71000  0.25070  0.84130  1.0000 -0.1919522798
C   C232      1.0  0.71000  0.74930  0.15870  1.0000 -0.1919522798
C   C233      1.0  0.70510  0.75490  0.58480  1.0000 -0.1919522798
C   C234      1.0  0.70510  0.24510  0.41520  1.0000 -0.1919522798
C   C235      1.0  0.70510  0.25490  0.91520  1.0000 -0.1919522798
C   C236      1.0  0.70510  0.74510  0.08480  1.0000 -0.1919522798
C   C237      1.0  0.74330  0.74810  0.62250  1.0000 0.1541229354
C   C238      1.0  0.74330  0.25190  0.37750  1.0000 0.1541229354
C   C239      1.0  0.74330  0.24810  0.87750  1.0000 0.1541229354
C   C240      1.0  0.74330  0.75190  0.12250  1.0000 0.1541229354
C   C241      1.0  0.93820  0.72250  0.64000  1.0000 0.1193045173
C   C242      1.0  0.93820  0.27750  0.36000  1.0000 0.1193045173
C   C243      1.0  0.93820  0.22250  0.86000  1.0000 0.1193045173
C   C244      1.0  0.93820  0.77750  0.14000  1.0000 0.1193045173
C   C245      1.0  0.86300  0.72820  0.64790  1.0000 -0.1312102436
C   C246      1.0  0.86300  0.27180  0.35210  1.0000 -0.1312102436
C   C247      1.0  0.86300  0.22820  0.85210  1.0000 -0.1312102436
C   C248      1.0  0.86300  0.77180  0.14790  1.0000 -0.1312102436
C   C249      1.0  0.04320  0.73010  0.59980  1.0000 0.0594581556
C   C250      1.0  0.04320  0.26990  0.40020  1.0000 0.0594581556
C   C251      1.0  0.04320  0.23010  0.90020  1.0000 0.0594581556
C   C252      1.0  0.04320  0.76990  0.09980  1.0000 0.0594581556
C   C253      1.0  0.97590  0.73300  0.60130  1.0000 -0.1919522798
C   C254      1.0  0.97590  0.26700  0.39870  1.0000 -0.1919522798
C   C255      1.0  0.97590  0.23300  0.89870  1.0000 -0.1919522798
C   C256      1.0  0.97590  0.76700  0.10130  1.0000 -0.1919522798
C   C257      1.0  0.97740  0.71070  0.67090  1.0000 -0.1597255992
C   C258      1.0  0.97740  0.28930  0.32910  1.0000 -0.1597255992
C   C259      1.0  0.97740  0.21070  0.82910  1.0000 -0.1597255992
C   C260      1.0  0.97740  0.78930  0.17090  1.0000 -0.1597255992
C   C261      1.0  0.04470  0.70850  0.66690  1.0000 0.0309371597
C   C262      1.0  0.04470  0.29150  0.33310  1.0000 0.0309371597
C   C263      1.0  0.04470  0.20850  0.83310  1.0000 0.0309371597
C   C264      1.0  0.04470  0.79150  0.16690  1.0000 0.0309371597
C   C265      1.0  0.72290  0.34880  0.73710  1.0000 -0.0355619492
C   C266      1.0  0.72290  0.65120  0.26290  1.0000 -0.0355619492
C   C267      1.0  0.72290  0.84880  0.76290  1.0000 -0.0355619492
C   C268      1.0  0.72290  0.15120  0.23710  1.0000 -0.0288609936
C   C269      1.0  0.55310  0.35840  0.60440  1.0000 -0.0288609936
C   C270      1.0  0.55310  0.64160  0.39560  1.0000 -0.0288609936
C   C271      1.0  0.55310  0.85840  0.89560  1.0000 -0.0288609936
C   C272      1.0  0.55310  0.14160  0.10440  1.0000 -0.0288609936
C   C273      1.0  0.70600  0.65170  0.46660  1.0000 -0.0288609936
C   C274      1.0  0.70600  0.34830  0.53340  1.0000 -0.0288609936
C   C275      1.0  0.70600  0.15170  0.03340  1.0000 -0.0288609936
C   C276      1.0  0.70600  0.84830  0.96660  1.0000 -0.0288609936
C   C277      1.0  0.72230  0.55090  0.89190  1.0000 0.0693905281
C   C278      1.0  0.72230  0.44910  0.10810  1.0000 0.0693905281
C   C279      1.0  0.72230  0.05090  0.60810  1.0000 0.0594581556
C   C280      1.0  0.72230  0.94910  0.39190  1.0000 0.0693905281
C   C281      1.0  0.53390  0.30740  0.60250  1.0000 0.5662922428
C   C282      1.0  0.53390  0.69260  0.39750  1.0000 0.5662922428
C   C283      1.0  0.53390  0.80740  0.89750  1.0000 0.5662922428
C   C284      1.0  0.53390  0.19260  0.10250  1.0000 0.5662922428
C   C285      1.0  0.72830  0.67730  0.42810  1.0000 0.5859872566
C   C286      1.0  0.72830  0.32270  0.57190  1.0000 0.5859872566
C   C287      1.0  0.72830  0.17730  0.07190  1.0000 0.5859872566
C   C288      1.0  0.72830  0.82270  0.92810  1.0000 0.5859872566
C   C289      1.0  0.73520  0.31930  0.69830  1.0000 0.5794751909
C   C290      1.0  0.73520  0.68070  0.30170  1.0000 0.5794751909
C   C291      1.0  0.73520  0.81930  0.80170  1.0000 0.5794751909
C   C292      1.0  0.73520  0.18070  0.19830  1.0000 0.5794751909
C   C293      1.0  0.67760  0.40340  0.88830  1.0000 -0.1967015051
C   C294      1.0  0.67760  0.59660  0.11170  1.0000 -0.1967015051
C   C295      1.0  0.67760  0.90340  0.61170  1.0000 -0.1967015051
C   C296      1.0  0.67760  0.09660  0.38830  1.0000 -0.1967015051
C   C297      1.0  0.78300  0.69780  0.89280  1.0000 0.5662922428
C   C298      1.0  0.78300  0.30220  0.10720  1.0000 0.5662922428
C   C299      1.0  0.78300  0.19780  0.60720  1.0000 0.5662922428
C   C300      1.0  0.78300  0.80220  0.39280  1.0000 0.5662922428
C   C301      1.0  0.55670  0.43450  0.57210  1.0000 -0.151237182
C   C302      1.0  0.55670  0.56550  0.42790  1.0000 -0.151237182
C   C303      1.0  0.55670  0.93450  0.92790  1.0000 -0.151237182
C   C304      1.0  0.55670  0.06550  0.07210  1.0000 -0.151237182
C   C305      1.0  0.58620  0.45430  0.60810  1.0000 0.0693905281
C   C306      1.0  0.58620  0.54570  0.39190  1.0000 0.0693905281
C   C307      1.0  0.58620  0.95430  0.89190  1.0000 0.0693905281
C   C308      1.0  0.58620  0.04570  0.10810  1.0000 0.0693905281
C   C309      1.0  0.68490  0.35910  0.97470  1.0000 -0.151237182
C   C310      1.0  0.68490  0.64090  0.02530  1.0000 -0.151237182
C   C311      1.0  0.68490  0.85910  0.52530  1.0000 -0.151237182
C   C312      1.0  0.68490  0.14090  0.47470  1.0000 -0.151237182
C   C313      1.0  0.75840  0.57090  0.92610  1.0000 -0.151237182
C   C314      1.0  0.75840  0.42910  0.07390  1.0000 -0.151237182
C   C315      1.0  0.75840  0.07090  0.57390  1.0000 -0.151237182
C   C316      1.0  0.75840  0.92910  0.42610  1.0000 -0.151237182
C   C317      1.0  0.58980  0.31970  0.07250  1.0000 0.5794751909
C   C318      1.0  0.58980  0.68030  0.92750  1.0000 0.5794751909
C   C319      1.0  0.58980  0.81970  0.42750  1.0000 0.5794751909
C   C320      1.0  0.58980  0.18030  0.57250  1.0000 0.5794751909
C   C321      1.0  0.54050  0.38730  0.57100  1.0000 -0.0906488991
C   C322      1.0  0.54050  0.61270  0.42900  1.0000 -0.0906488991
C   C323      1.0  0.54050  0.88730  0.92900  1.0000 -0.0906488991
C   C324      1.0  0.54050  0.11270  0.07100  1.0000 -0.0906488991
C   C325      1.0  0.54160  0.59860  0.71590  1.0000 -0.151237182
C   C326      1.0  0.54160  0.40140  0.28410  1.0000 -0.151237182
C   C327      1.0  0.54160  0.09860  0.78410  1.0000 -0.151237182
C   C328      1.0  0.54160  0.90140  0.21590  1.0000 -0.151237182
C   C329      1.0  0.76180  0.64730  0.89250  1.0000 -0.0243278567
C   C330      1.0  0.76180  0.35270  0.10750  1.0000 -0.0243278567
C   C331      1.0  0.76180  0.14730  0.60750  1.0000 -0.0243278567
C   C332      1.0  0.76180  0.85270  0.39250  1.0000 -0.0243278567
C   C333      1.0  0.59700  0.60560  0.68950  1.0000 0.0693905281
C   C334      1.0  0.59700  0.39440  0.31050  1.0000 0.0693905281
C   C335      1.0  0.59700  0.10560  0.81050  1.0000 0.0693905281
C   C336      1.0  0.59700  0.89440  0.18950  1.0000 0.0693905281
C   C337      1.0  0.57940  0.65850  0.76360  1.0000 -0.0288609936
C   C338      1.0  0.57940  0.34150  0.23640  1.0000 -0.0288609936
C   C339      1.0  0.57940  0.15850  0.73640  1.0000 -0.0288609936
C   C340      1.0  0.57940  0.84150  0.26360  1.0000 -0.0288609936
C   C341      1.0  0.69850  0.42690  0.85130  1.0000 0.0791320916
C   C342      1.0  0.69850  0.57310  0.14870  1.0000 0.0791320916
C   C343      1.0  0.69850  0.92690  0.64870  1.0000 0.0791320916
C   C344      1.0  0.69850  0.07310  0.35130  1.0000 0.0791320916
C   C345      1.0  0.72550  0.62820  0.85840  1.0000 -0.0906488991
C   C346      1.0  0.72550  0.37180  0.14160  1.0000 -0.0906488991
C   C347      1.0  0.72550  0.12820  0.64160  1.0000 -0.0906488991
C   C348      1.0  0.72550  0.87180  0.35840  1.0000 -0.0906488991
C   C349      1.0  0.62680  0.52950  0.57540  1.0000 -0.1967015051
C   C350      1.0  0.62680  0.47050  0.42460  1.0000 -0.1967015051
C   C351      1.0  0.62680  0.02950  0.92460  1.0000 -0.1967015051
C   C352      1.0  0.62680  0.97050  0.07540  1.0000 -0.1967015051
C   C353      1.0  0.67130  0.42760  0.92600  1.0000 0.0791320916
C   C354      1.0  0.67130  0.57240  0.07400  1.0000 0.0791320916
C   C355      1.0  0.67130  0.92760  0.57400  1.0000 0.0791320916
C   C356      1.0  0.67130  0.07240  0.42600  1.0000 0.0791320916
C   C357      1.0  0.71290  0.47530  0.85300  1.0000 -0.1967015051
C   C358      1.0  0.71290  0.52470  0.14700  1.0000 -0.1967015051
C   C359      1.0  0.71290  0.97530  0.64700  1.0000 -0.1967015051
C   C360      1.0  0.71290  0.02470  0.35300  1.0000 -0.1967015051
C   C361      1.0  0.62850  0.60170  0.61310  1.0000 -0.1848857237
C   C362      1.0  0.62850  0.39830  0.38690  1.0000 -0.1848857237
C   C363      1.0  0.62850  0.10170  0.88690  1.0000 -0.1848857237
C   C364      1.0  0.62850  0.89830  0.11310  1.0000 -0.1848857237
C   C365      1.0  0.60730  0.57900  0.64950  1.0000 0.0859971808
C   C366      1.0  0.60730  0.42100  0.35050  1.0000 0.0859971808
C   C367      1.0  0.60730  0.07900  0.85050  1.0000 0.0859971808
C   C368      1.0  0.60730  0.92100  0.14950  1.0000 0.0859971808
C   C369      1.0  0.17890  0.26020  0.61740  1.0000 -0.1426008774
C   C370      1.0  0.17890  0.73980  0.38260  1.0000 -0.1426008774
C   C371      1.0  0.17890  0.76020  0.88260  1.0000 -0.1426008774
C   C372      1.0  0.17890  0.23980  0.11740  1.0000 -0.1426008774
C   C373      1.0  0.58350  0.37700  0.64030  1.0000 -0.0906488991
C   C374      1.0  0.58350  0.62300  0.35970  1.0000 -0.0906488991
C   C375      1.0  0.58350  0.87700  0.85970  1.0000 -0.0906488991
C   C376      1.0  0.58350  0.12300  0.14030  1.0000 -0.0906488991
C   C377      1.0  0.61170  0.34890  0.03490  1.0000 -0.0143805964
C   C378      1.0  0.61170  0.65110  0.96510  1.0000 -0.0143805964
C   C379      1.0  0.61170  0.84890  0.46510  1.0000 -0.0143805964
C   C380      1.0  0.61170  0.15110  0.53490  1.0000 -0.0143805964
C   C381      1.0  0.66310  0.34470  0.76030  1.0000 -0.1071780978
C   C382      1.0  0.66310  0.65530  0.23970  1.0000 -0.1071780978
C   C383      1.0  0.66310  0.84470  0.73970  1.0000 -0.1071780978
C   C384      1.0  0.66310  0.15530  0.26030  1.0000 -0.1071780978
C   C385      1.0  0.68530  0.47570  0.92630  1.0000 -0.1919522798
C   C386      1.0  0.68530  0.52430  0.07370  1.0000 -0.1919522798
C   C387      1.0  0.68530  0.97570  0.57370  1.0000 -0.1919522798
C   C388      1.0  0.68530  0.02430  0.42630  1.0000 -0.1919522798
C   C389      1.0  0.60210  0.50570  0.61020  1.0000 0.0791320916
C   C390      1.0  0.60210  0.49430  0.38980  1.0000 0.0791320916
C   C391      1.0  0.60210  0.00570  0.88980  1.0000 0.0791320916
C   C392      1.0  0.60210  0.99430  0.11020  1.0000 0.0791320916
C   C393      1.0  0.56900  0.68640  0.80290  1.0000 0.5794751909
C   C394      1.0  0.56900  0.31360  0.19710  1.0000 0.5794751909
C   C395      1.0  0.56900  0.18640  0.69710  1.0000 0.5794751909
C   C396      1.0  0.56900  0.81360  0.30290  1.0000 0.5794751909
C   C397      1.0  0.59160  0.53090  0.64710  1.0000 -0.1919522798
C   C398      1.0  0.59160  0.46910  0.35290  1.0000 -0.1919522798
C   C399      1.0  0.59160  0.03090  0.85290  1.0000 -0.1919522798
C   C400      1.0  0.59160  0.96910  0.14710  1.0000 -0.1919522798
C   C401      1.0  0.57910  0.39080  0.02560  1.0000 -0.1020638417
C   C402      1.0  0.57910  0.60920  0.97440  1.0000 -0.1020638417
C   C403      1.0  0.57910  0.89080  0.47440  1.0000 -0.1020638417
C   C404      1.0  0.57910  0.10920  0.52560  1.0000 -0.1020638417
C   C405      1.0  0.63480  0.64770  0.52820  1.0000 -0.151237182
C   C406      1.0  0.63480  0.35230  0.47180  1.0000 -0.151237182
C   C407      1.0  0.63480  0.14770  0.97180  1.0000 -0.151237182
C   C408      1.0  0.63480  0.85230  0.02820  1.0000 -0.151237182
C   C409      1.0  0.53170  0.62470  0.75190  1.0000 -0.1020638417
C   C410      1.0  0.53170  0.37530  0.24810  1.0000 -0.1020638417
C   C411      1.0  0.53170  0.12470  0.74810  1.0000 -0.1020638417
C   C412      1.0  0.53170  0.87530  0.25190  1.0000 -0.1020638417
C   C413      1.0  0.66610  0.33350  0.00880  1.0000 -0.1020638417
C   C414      1.0  0.66610  0.66650  0.99120  1.0000 -0.1020638417
C   C415      1.0  0.66610  0.83350  0.49120  1.0000 -0.1020638417
C   C416      1.0  0.66610  0.16650  0.50880  1.0000 -0.1020638417
C   C417      1.0  0.77640  0.61780  0.92660  1.0000 -0.0906488991
C   C418      1.0  0.77640  0.38220  0.07340  1.0000 -0.0906488991
C   C419      1.0  0.77640  0.11780  0.57340  1.0000 -0.0906488991
C   C420      1.0  0.77640  0.88220  0.42660  1.0000 -0.0906488991
C   C421      1.0  0.70740  0.40100  0.81110  1.0000 0.0693905281
C   C422      1.0  0.70740  0.59900  0.18890  1.0000 0.0693905281
C   C423      1.0  0.70740  0.90100  0.68890  1.0000 0.0693905281
C   C424      1.0  0.70740  0.09900  0.31110  1.0000 0.0693905281
C   C425      1.0  0.63970  0.57750  0.57640  1.0000 0.0791320916
C   C426      1.0  0.63970  0.42250  0.42360  1.0000 0.0791320916
C   C427      1.0  0.63970  0.07750  0.92360  1.0000 0.0791320916
C   C428      1.0  0.63970  0.92250  0.07640  1.0000 0.0791320916
C   C429      1.0  0.59940  0.42470  0.64160  1.0000 -0.151237182
C   C430      1.0  0.59940  0.57530  0.35840  1.0000 -0.151237182
C   C431      1.0  0.59940  0.92470  0.85840  1.0000 -0.151237182
C   C432      1.0  0.59940  0.07530  0.14160  1.0000 -0.151237182
C   C433      1.0  0.65590  0.67010  0.49200  1.0000 -0.1020638417
C   C434      1.0  0.65590  0.32990  0.50800  1.0000 -0.1020638417
C   C435      1.0  0.65590  0.17010  0.00800  1.0000 -0.1020638417
C   C436      1.0  0.65590  0.82990  0.99200  1.0000 -0.1020638417
C   C437      1.0  0.73570  0.60830  0.47650  1.0000 -0.1020638417
C   C438      1.0  0.73570  0.39170  0.52350  1.0000 -0.1020638417
C   C439      1.0  0.73570  0.10830  0.02350  1.0000 -0.1020638417
C   C440      1.0  0.73570  0.89170  0.97650  1.0000 -0.1020638417
C   C441      1.0  0.64500  0.63950  0.70250  1.0000 -0.151237182
C   C442      1.0  0.64500  0.36050  0.29750  1.0000 -0.151237182
C   C443      1.0  0.64500  0.13950  0.79750  1.0000 -0.151237182
C   C444      1.0  0.64500  0.86050  0.20250  1.0000 -0.151237182
C   C445      1.0  0.70590  0.50020  0.89040  1.0000 0.0791320916
C   C446      1.0  0.70590  0.49980  0.10960  1.0000 0.0791320916
C   C447      1.0  0.70590  0.00020  0.60960  1.0000 0.0791320916
C   C448      1.0  0.70590  0.99980  0.39040  1.0000 0.0791320916
C   C449      1.0  0.65510  0.36920  0.79710  1.0000 -0.1597255992
C   C450      1.0  0.65510  0.63080  0.20290  1.0000 -0.1597255992
C   C451      1.0  0.65510  0.86920  0.70290  1.0000 -0.1597255992
C   C452      1.0  0.65510  0.13080  0.29710  1.0000 -0.1597255992
C   C453      1.0  0.60090  0.41770  0.99200  1.0000 -0.151237182
C   C454      1.0  0.60090  0.58230  0.00800  1.0000 -0.151237182
C   C455      1.0  0.60090  0.91770  0.50800  1.0000 -0.151237182
C   C456      1.0  0.60090  0.08230  0.49200  1.0000 -0.151237182
C   C457      1.0  0.66330  0.60360  0.53820  1.0000 0.0791320916
C   C458      1.0  0.66330  0.39640  0.46180  1.0000 0.0791320916
C   C459      1.0  0.66330  0.10360  0.96180  1.0000 0.0791320916
C   C460      1.0  0.66330  0.89640  0.03820  1.0000 0.0791320916
C   C461      1.0  0.65260  0.40190  0.96430  1.0000 0.0693905281
C   C462      1.0  0.65260  0.59810  0.03570  1.0000 0.0693905281
C   C463      1.0  0.65260  0.90190  0.53570  1.0000 0.0693905281
C   C464      1.0  0.65260  0.09810  0.46430  1.0000 0.0693905281
C   C465      1.0  0.63830  0.66450  0.73810  1.0000 -0.1071780978
C   C466      1.0  0.63830  0.33550  0.26190  1.0000 -0.1071780978
C   C467      1.0  0.63830  0.16450  0.76190  1.0000 -0.1071780978
C   C468      1.0  0.63830  0.83550  0.23810  1.0000 -0.1071780978
C   C469      1.0  0.70740  0.58080  0.85810  1.0000 -0.151237182
C   C470      1.0  0.70740  0.41920  0.14190  1.0000 -0.151237182
C   C471      1.0  0.70740  0.08080  0.64190  1.0000 -0.151237182
C   C472      1.0  0.70740  0.91920  0.35810  1.0000 -0.151237182
C   C473      1.0  0.76540  0.40570  0.78650  1.0000 -0.151237182
C   C474      1.0  0.76540  0.59430  0.21350  1.0000 -0.151237182
C   C475      1.0  0.76540  0.90570  0.71350  1.0000 -0.151237182
C   C476      1.0  0.76540  0.09430  0.28650  1.0000 -0.151237182
C   C477      1.0  0.77310  0.38080  0.74970  1.0000 -0.1020638417
C   C478      1.0  0.77310  0.61920  0.25030  1.0000 -0.1020638417
C   C479      1.0  0.77310  0.88080  0.75030  1.0000 -0.1020638417
C   C480      1.0  0.77310  0.11920  0.24970  1.0000 -0.1020638417
C   C481      1.0  0.71360  0.58370  0.51110  1.0000 -0.1597255992
C   C482      1.0  0.71360  0.41630  0.48890  1.0000 -0.1597255992
C   C483      1.0  0.71360  0.08370  0.98890  1.0000 -0.1597255992
C   C484      1.0  0.71360  0.91630  0.01110  1.0000 -0.1597255992
C   C485      1.0  0.36200  0.23650  0.58850  1.0000 0.0693905281
C   C486      1.0  0.36200  0.76350  0.41150  1.0000 0.0693905281
C   C487      1.0  0.36200  0.73650  0.91150  1.0000 0.0693905281
C   C488      1.0  0.36200  0.26350  0.08850  1.0000 0.0693905281
C   C489      1.0  0.36050  0.24020  0.65970  1.0000 0.0791320916
C   C490      1.0  0.36050  0.75980  0.34030  1.0000 0.0791320916
C   C491      1.0  0.36050  0.74020  0.84030  1.0000 0.0791320916
C   C492      1.0  0.36050  0.25980  0.15970  1.0000 0.0791320916
C   C493      1.0  0.29000  0.24930  0.65870  1.0000 -0.1919522798
C   C494      1.0  0.29000  0.75070  0.34130  1.0000 -0.1919522798
C   C495      1.0  0.29000  0.74930  0.84130  1.0000 -0.1919522798
C   C496      1.0  0.29000  0.25070  0.15870  1.0000 -0.1919522798
C   C497      1.0  0.29490  0.24510  0.58480  1.0000 -0.1919522798
C   C498      1.0  0.29490  0.75490  0.41520  1.0000 -0.1919522798
C   C499      1.0  0.29490  0.74510  0.91520  1.0000 -0.1919522798
C   C500      1.0  0.29490  0.25490  0.08480  1.0000 -0.1919522798
C   C501      1.0  0.25670  0.25190  0.62250  1.0000 0.1541229354
C   C502      1.0  0.25670  0.74810  0.37750  1.0000 0.1541229354
C   C503      1.0  0.25670  0.75190  0.87750  1.0000 0.1541229354
C   C504      1.0  0.25670  0.24810  0.12250  1.0000 0.1541229354
C   C505      1.0  0.06180  0.27750  0.64000  1.0000 0.1193045173
C   C506      1.0  0.06180  0.72250  0.36000  1.0000 0.1193045173
C   C507      1.0  0.06180  0.77750  0.86000  1.0000 0.1193045173
C   C508      1.0  0.06180  0.22250  0.14000  1.0000 0.1193045173
C   C509      1.0  0.13700  0.27180  0.64790  1.0000 -0.1312102436
C   C510      1.0  0.13700  0.72820  0.35210  1.0000 -0.1312102436
C   C511      1.0  0.13700  0.77180  0.85210  1.0000 -0.1312102436
C   C512      1.0  0.13700  0.22820  0.14790  1.0000 -0.1312102436
C   C513      1.0  0.95680  0.26990  0.59980  1.0000 0.0594581556
C   C514      1.0  0.95680  0.73010  0.40020  1.0000 0.0594581556
C   C515      1.0  0.95680  0.76990  0.90020  1.0000 0.0594581556
C   C516      1.0  0.95680  0.23010  0.09980  1.0000 0.0594581556
C   C517      1.0  0.02410  0.26700  0.60130  1.0000 -0.1919522798
C   C518      1.0  0.02410  0.73300  0.39870  1.0000 -0.1919522798
C   C519      1.0  0.02410  0.76700  0.89870  1.0000 -0.1919522798
C   C520      1.0  0.02410  0.23300  0.10130  1.0000 -0.1919522798
C   C521      1.0  0.02260  0.28930  0.67090  1.0000 -0.1597255992
C   C522      1.0  0.02260  0.71070  0.32910  1.0000 -0.1597255992
C   C523      1.0  0.02260  0.78930  0.82910  1.0000 -0.1597255992
C   C524      1.0  0.02260  0.21070  0.17090  1.0000 -0.1597255992
C   C525      1.0  0.95530  0.29150  0.66690  1.0000 0.0309371597
C   C526      1.0  0.95530  0.70850  0.33310  1.0000 0.0309371597
C   C527      1.0  0.95530  0.79150  0.83310  1.0000 0.0309371597
C   C528      1.0  0.95530  0.20850  0.16690  1.0000 0.0309371597
N   N1        1.0  0.60290  0.76720  0.62514  1.0000 -0.2279261632
N   N2        1.0  0.60290  0.23280  0.37486  1.0000 -0.2279261632
N   N3        1.0  0.60290  0.26720  0.87486  1.0000 -0.2279261632
N   N4        1.0  0.60290  0.73280  0.12514  1.0000 -0.2279261632
N   N5        1.0  0.08280  0.71790  0.63280  1.0000 -0.2357507779
N   N6        1.0  0.08280  0.28210  0.36720  1.0000 -0.2357507779
N   N7        1.0  0.08280  0.21790  0.86720  1.0000 -0.2357507779
N   N8        1.0  0.08280  0.78210  0.13280  1.0000 -0.2357507779
N   N9        1.0  0.39710  0.23280  0.62514  1.0000 -0.2279261632
N   N10       1.0  0.39710  0.76720  0.37486  1.0000 -0.2279261632
N   N11       1.0  0.39710  0.73280  0.87486  1.0000 -0.2279261632
N   N12       1.0  0.39710  0.26720  0.12514  1.0000 -0.2279261632
N   N13       1.0  0.91720  0.28210  0.63280  1.0000 -0.2357507779
N   N14       1.0  0.91720  0.71790  0.36720  1.0000 -0.2357507779
N   N15       1.0  0.91720  0.78210  0.86720  1.0000 -0.2357507779
N   N16       1.0  0.91720  0.21790  0.13280  1.0000 -0.2357507779
O   O1        1.0  0.44740  0.71972  0.63459  1.0000 -0.5940390734
O   O2        1.0  0.44740  0.28028  0.36541  1.0000 -0.5940390734
O   O3        1.0  0.44740  0.21972  0.86541  1.0000 -0.5940390734
O   O4        1.0  0.44740  0.78028  0.13459  1.0000 -0.5940390734
O   O5        1.0  0.31740  0.70413  0.68554  1.0000 -0.5609148463
O   O6        1.0  0.31740  0.29587  0.31446  1.0000 -0.5609148463
O   O7        1.0  0.31740  0.20413  0.81446  1.0000 -0.5609148463
O   O8        1.0  0.31740  0.79587  0.18554  1.0000 -0.5609148463
O   O9        1.0  0.20730  0.68025  0.68171  1.0000 -0.5254256858
O   O10       1.0  0.20730  0.31975  0.31829  1.0000 -0.5187166363
O   O11       1.0  0.20730  0.18025  0.81829  1.0000 -0.5187166363
O   O12       1.0  0.20730  0.81975  0.18171  1.0000 -0.5254256858
O   O13       1.0  0.50360  0.70784  0.57426  1.0000 -0.5187166363
O   O14       1.0  0.50360  0.29216  0.42574  1.0000 -0.5187166363
O   O15       1.0  0.50360  0.20784  0.92574  1.0000 -0.5187166363
O   O16       1.0  0.50360  0.79216  0.07426  1.0000 -0.5187166363
O   O17       1.0  0.36600  0.70768  0.08799  1.0000 -0.5609148463
O   O18       1.0  0.36600  0.29232  0.91201  1.0000 -0.5609148463
O   O19       1.0  0.36600  0.20768  0.41201  1.0000 -0.5609148463
O   O20       1.0  0.36600  0.79232  0.58799  1.0000 -0.5609148463
O   O21       1.0  0.23660  0.27546  0.86245  1.0000 -0.5683940484
O   O22       1.0  0.23660  0.72454  0.13755  1.0000 -0.5683940484
O   O23       1.0  0.23660  0.77546  0.63755  1.0000 -0.5683940484
O   O24       1.0  0.23660  0.22454  0.36245  1.0000 -0.5683940484
O   O25       1.0  0.37680  0.29348  0.81696  1.0000 -0.5609148463
O   O26       1.0  0.37680  0.70652  0.18304  1.0000 -0.5609148463
O   O27       1.0  0.37680  0.79348  0.68304  1.0000 -0.5609148463
O   O28       1.0  0.37680  0.20652  0.31696  1.0000 -0.5609148463
O   O29       1.0  0.31550  0.29696  0.41038  1.0000 -0.5609148463
O   O30       1.0  0.31550  0.70304  0.58962  1.0000 -0.5609148463
O   O31       1.0  0.31550  0.79696  0.08962  1.0000 -0.5609148463
O   O32       1.0  0.31550  0.20304  0.91038  1.0000 -0.5609148463
O   O33       1.0  0.21080  0.32708  0.41509  1.0000 -0.5187166363
O   O34       1.0  0.21080  0.67292  0.58491  1.0000 -0.5187166363
O   O35       1.0  0.21080  0.82708  0.08491  1.0000 -0.5187166363
O   O36       1.0  0.21080  0.17292  0.91509  1.0000 -0.5187166363
O   O37       1.0  0.47080  0.67618  0.08484  1.0000 -0.5187166363
O   O38       1.0  0.47080  0.32382  0.91516  1.0000 -0.5187166363
O   O39       1.0  0.47080  0.17618  0.41516  1.0000 -0.5187166363
O   O40       1.0  0.47080  0.82382  0.58484  1.0000 -0.5187166363
O   O41       1.0  0.48900  0.31143  0.81861  1.0000 -0.5148744716
O   O42       1.0  0.48900  0.68857  0.18139  1.0000 -0.5148744716
O   O43       1.0  0.48900  0.81143  0.68139  1.0000 -0.5148744716
O   O44       1.0  0.48900  0.18857  0.31861  1.0000 -0.5148744716
O   O45       1.0  0.17870  0.28726  0.92100  1.0000 -0.539680673
O   O46       1.0  0.17870  0.71274  0.07900  1.0000 -0.539680673
O   O47       1.0  0.17870  0.78726  0.57900  1.0000 -0.539680673
O   O48       1.0  0.17870  0.21274  0.42100  1.0000 -0.539680673
O   O49       1.0  0.55260  0.28028  0.63459  1.0000 -0.5940390734
O   O50       1.0  0.55260  0.71972  0.36541  1.0000 -0.5940390734
O   O51       1.0  0.55260  0.78028  0.86541  1.0000 -0.5940390734
O   O52       1.0  0.55260  0.21972  0.13459  1.0000 -0.5940390734
O   O53       1.0  0.68260  0.29587  0.68554  1.0000 -0.5609148463
O   O54       1.0  0.68260  0.70413  0.31446  1.0000 -0.5609148463
O   O55       1.0  0.68260  0.79587  0.81446  1.0000 -0.5609148463
O   O56       1.0  0.68260  0.20413  0.18554  1.0000 -0.5609148463
O   O57       1.0  0.79270  0.31975  0.68171  1.0000 -0.5187166363
O   O58       1.0  0.79270  0.68025  0.31829  1.0000 -0.5187166363
O   O59       1.0  0.79270  0.81975  0.81829  1.0000 -0.5187166363
O   O60       1.0  0.79270  0.18025  0.18171  1.0000 -0.5187166363
O   O61       1.0  0.49640  0.29216  0.57426  1.0000 -0.5187166363
O   O62       1.0  0.49640  0.70784  0.42574  1.0000 -0.5187166363
O   O63       1.0  0.49640  0.79216  0.92574  1.0000 -0.5187166363
O   O64       1.0  0.49640  0.20784  0.07426  1.0000 -0.5187166363
O   O65       1.0  0.63400  0.29232  0.08799  1.0000 -0.5609148463
O   O66       1.0  0.63400  0.70768  0.91201  1.0000 -0.5609148463
O   O67       1.0  0.63400  0.79232  0.41201  1.0000 -0.5609148463
O   O68       1.0  0.63400  0.20768  0.58799  1.0000 -0.5609148463
O   O69       1.0  0.76340  0.72454  0.86245  1.0000 -0.5683940484
O   O70       1.0  0.76340  0.27546  0.13755  1.0000 -0.5683940484
O   O71       1.0  0.76340  0.22454  0.63755  1.0000 -0.5683940484
O   O72       1.0  0.76340  0.77546  0.36245  1.0000 -0.5683940484
O   O73       1.0  0.62320  0.70652  0.81696  1.0000 -0.5609148463
O   O74       1.0  0.62320  0.29348  0.18304  1.0000 -0.5609148463
O   O75       1.0  0.62320  0.20652  0.68304  1.0000 -0.5609148463
O   O76       1.0  0.62320  0.79348  0.31696  1.0000 -0.5609148463
O   O77       1.0  0.68450  0.70304  0.41038  1.0000 -0.5609148463
O   O78       1.0  0.68450  0.29696  0.58962  1.0000 -0.5609148463
O   O79       1.0  0.68450  0.20304  0.08962  1.0000 -0.5609148463
O   O80       1.0  0.68450  0.79696  0.91038  1.0000 -0.5609148463
O   O81       1.0  0.78920  0.67292  0.41509  1.0000 -0.5187166363
O   O82       1.0  0.78920  0.32708  0.58491  1.0000 -0.5187166363
O   O83       1.0  0.78920  0.17292  0.08491  1.0000 -0.5148744716
O   O84       1.0  0.78920  0.82708  0.91509  1.0000 -0.5187166363
O   O85       1.0  0.52920  0.32382  0.08484  1.0000 -0.5187166363
O   O86       1.0  0.52920  0.67618  0.91516  1.0000 -0.5187166363
O   O87       1.0  0.52920  0.82382  0.41516  1.0000 -0.5187166363
O   O88       1.0  0.52920  0.17618  0.58484  1.0000 -0.5187166363
O   O89       1.0  0.51100  0.68857  0.81861  1.0000 -0.5148744716
O   O90       1.0  0.51100  0.31143  0.18139  1.0000 -0.5148744716
O   O91       1.0  0.51100  0.18857  0.68139  1.0000 -0.5148744716
O   O92       1.0  0.51100  0.81143  0.31861  1.0000 -0.5148744716
O   O93       1.0  0.82130  0.71274  0.92100  1.0000 -0.539680673
O   O94       1.0  0.82130  0.28726  0.07900  1.0000 -0.539680673
O   O95       1.0  0.82130  0.21274  0.57900  1.0000 -0.539680673
O   O96       1.0  0.82130  0.78726  0.42100  1.0000 -0.539680673
