# DDEC6 charges by PACMAN v1.1 (https://github.com/mtap-research/PACMAN-charge/)
data_am8b22327_si_003_FSR_pacman
_symmetry_space_group_name_H-M   'P 1'
_cell_length_a   36.21080000
_cell_length_b   36.21080000
_cell_length_c   36.21080000
_cell_angle_alpha   90.00000000
_cell_angle_beta   90.00000000
_cell_angle_gamma   90.00000000
_symmetry_Int_Tables_number   1
_chemical_formula_structural   In3H33C66N3O16
_chemical_formula_sum   'In24 H264 C528 N24 O128'
_cell_volume   47480.39892436
_cell_formula_units_Z   8
loop_
 _symmetry_equiv_pos_site_id
 _symmetry_equiv_pos_as_xyz
  1  'x, y, z'
loop_
 _atom_site_type_symbol
 _atom_site_label
 _atom_site_symmetry_multiplicity
 _atom_site_fract_x
 _atom_site_fract_y
 _atom_site_fract_z
 _atom_site_occupancy
 _atom_site_charge
In  In1  1  0.21036000  0.28964000  0.25000000  1.0 1.4759989905
In  In2  1  0.78964000  0.71036000  0.25000000  1.0 1.4759989905
In  In3  1  0.78964000  0.28964000  0.75000000  1.0 1.4737350372
In  In4  1  0.21036000  0.71036000  0.75000000  1.0 1.4737350372
In  In5  1  0.25000000  0.21036000  0.28964000  1.0 1.4759989905
In  In6  1  0.25000000  0.78964000  0.71036000  1.0 1.4759989905
In  In7  1  0.75000000  0.78964000  0.28964000  1.0 1.4737350372
In  In8  1  0.75000000  0.21036000  0.71036000  1.0 1.4737350372
In  In9  1  0.28964000  0.25000000  0.21036000  1.0 1.4759989905
In  In10  1  0.71036000  0.25000000  0.78964000  1.0 1.4759989905
In  In11  1  0.28964000  0.75000000  0.78964000  1.0 1.4737350372
In  In12  1  0.71036000  0.75000000  0.21036000  1.0 1.4737350372
In  In13  1  0.78964000  0.71036000  0.75000000  1.0 1.4737350372
In  In14  1  0.21036000  0.28964000  0.75000000  1.0 1.4737350372
In  In15  1  0.21036000  0.71036000  0.25000000  1.0 1.4759989905
In  In16  1  0.78964000  0.28964000  0.25000000  1.0 1.4759989905
In  In17  1  0.75000000  0.78964000  0.71036000  1.0 1.4737350372
In  In18  1  0.75000000  0.21036000  0.28964000  1.0 1.4737350372
In  In19  1  0.25000000  0.21036000  0.71036000  1.0 1.4759989905
In  In20  1  0.25000000  0.78964000  0.28964000  1.0 1.4759989905
In  In21  1  0.71036000  0.75000000  0.78964000  1.0 1.4737350372
In  In22  1  0.28964000  0.75000000  0.21036000  1.0 1.4737350372
In  In23  1  0.71036000  0.25000000  0.21036000  1.0 1.4759989905
In  In24  1  0.28964000  0.25000000  0.78964000  1.0 1.4759989905
H  H1  1  0.09660000  0.12090000  0.29410000  1.0 0.1208272499
H  H2  1  0.15080000  0.15500000  0.29560000  1.0 0.1208272499
H  H3  1  0.10020000  0.23780000  0.24190000  1.0 0.1208272499
H  H4  1  0.04590000  0.20380000  0.24040000  1.0 0.1208272499
H  H5  1  0.05530000  0.08610000  0.26470000  1.0 0.1208272499
H  H6  1  0.90340000  0.87910000  0.29410000  1.0 0.1208272499
H  H7  1  0.84920000  0.84500000  0.29560000  1.0 0.1208272499
H  H8  1  0.89980000  0.76220000  0.24190000  1.0 0.1208272499
H  H9  1  0.95410000  0.79620000  0.24040000  1.0 0.1208272499
H  H10  1  0.94470000  0.91390000  0.26470000  1.0 0.1208272499
H  H11  1  0.90340000  0.12090000  0.70590000  1.0 0.1208272499
H  H12  1  0.84920000  0.15500000  0.70440000  1.0 0.1208272499
H  H13  1  0.89980000  0.23780000  0.75810000  1.0 0.1208272499
H  H14  1  0.95410000  0.20380000  0.75960000  1.0 0.1208272499
H  H15  1  0.94470000  0.08610000  0.73530000  1.0 0.1208272499
H  H16  1  0.09660000  0.87910000  0.70590000  1.0 0.1208272499
H  H17  1  0.15080000  0.84500000  0.70440000  1.0 0.1208272499
H  H18  1  0.10020000  0.76220000  0.75810000  1.0 0.1208272499
H  H19  1  0.04590000  0.79620000  0.75960000  1.0 0.1208272499
H  H20  1  0.05530000  0.91390000  0.73530000  1.0 0.1208272499
H  H21  1  0.29410000  0.09660000  0.12090000  1.0 0.1208272499
H  H22  1  0.29560000  0.15080000  0.15500000  1.0 0.1208272499
H  H23  1  0.24190000  0.10020000  0.23780000  1.0 0.1208272499
H  H24  1  0.24040000  0.04590000  0.20380000  1.0 0.1208272499
H  H25  1  0.26470000  0.05530000  0.08610000  1.0 0.1208272499
H  H26  1  0.29410000  0.90340000  0.87910000  1.0 0.1208272499
H  H27  1  0.29560000  0.84920000  0.84500000  1.0 0.1208272499
H  H28  1  0.24190000  0.89980000  0.76220000  1.0 0.1208272499
H  H29  1  0.24040000  0.95410000  0.79620000  1.0 0.1208272499
H  H30  1  0.26470000  0.94470000  0.91390000  1.0 0.1208272499
H  H31  1  0.70590000  0.90340000  0.12090000  1.0 0.1208272499
H  H32  1  0.70440000  0.84920000  0.15500000  1.0 0.1208272499
H  H33  1  0.75810000  0.89980000  0.23780000  1.0 0.1208272499
H  H34  1  0.75960000  0.95410000  0.20380000  1.0 0.1208272499
H  H35  1  0.73530000  0.94470000  0.08610000  1.0 0.1208272499
H  H36  1  0.70590000  0.09660000  0.87910000  1.0 0.1208272499
H  H37  1  0.70440000  0.15080000  0.84500000  1.0 0.1208272499
H  H38  1  0.75810000  0.10020000  0.76220000  1.0 0.1208272499
H  H39  1  0.75960000  0.04590000  0.79620000  1.0 0.1208272499
H  H40  1  0.73530000  0.05530000  0.91390000  1.0 0.1208272499
H  H41  1  0.12090000  0.29410000  0.09660000  1.0 0.1208272499
H  H42  1  0.15500000  0.29560000  0.15080000  1.0 0.1208272499
H  H43  1  0.23780000  0.24190000  0.10020000  1.0 0.1208272499
H  H44  1  0.20380000  0.24040000  0.04590000  1.0 0.1208272499
H  H45  1  0.08610000  0.26470000  0.05530000  1.0 0.1208272499
H  H46  1  0.87910000  0.29410000  0.90340000  1.0 0.1208272499
H  H47  1  0.84500000  0.29560000  0.84920000  1.0 0.1208272499
H  H48  1  0.76220000  0.24190000  0.89980000  1.0 0.1208272499
H  H49  1  0.79620000  0.24040000  0.95410000  1.0 0.1208272499
H  H50  1  0.91390000  0.26470000  0.94470000  1.0 0.1208272499
H  H51  1  0.12090000  0.70590000  0.90340000  1.0 0.1208272499
H  H52  1  0.15500000  0.70440000  0.84920000  1.0 0.1208272499
H  H53  1  0.23780000  0.75810000  0.89980000  1.0 0.1208272499
H  H54  1  0.20380000  0.75960000  0.95410000  1.0 0.1208272499
H  H55  1  0.08610000  0.73530000  0.94470000  1.0 0.1208272499
H  H56  1  0.87910000  0.70590000  0.09660000  1.0 0.1208272499
H  H57  1  0.84500000  0.70440000  0.15080000  1.0 0.1208272499
H  H58  1  0.76220000  0.75810000  0.10020000  1.0 0.1208272499
H  H59  1  0.79620000  0.75960000  0.04590000  1.0 0.1208272499
H  H60  1  0.91390000  0.73530000  0.05530000  1.0 0.1208272499
H  H61  1  0.62090000  0.59660000  0.20590000  1.0 0.1208272499
H  H62  1  0.65500000  0.65080000  0.20440000  1.0 0.1208272499
H  H63  1  0.73780000  0.60020000  0.25810000  1.0 0.1208272499
H  H64  1  0.70380000  0.54590000  0.25960000  1.0 0.1208272499
H  H65  1  0.58610000  0.55530000  0.23530000  1.0 0.1208272499
H  H66  1  0.37910000  0.40340000  0.20590000  1.0 0.1208272499
H  H67  1  0.34500000  0.34920000  0.20440000  1.0 0.1208272499
H  H68  1  0.26220000  0.39980000  0.25810000  1.0 0.1208272499
H  H69  1  0.29620000  0.45410000  0.25960000  1.0 0.1208272499
H  H70  1  0.41390000  0.44470000  0.23530000  1.0 0.1208272499
H  H71  1  0.62090000  0.40340000  0.79410000  1.0 0.1208272499
H  H72  1  0.65500000  0.34920000  0.79560000  1.0 0.1208272499
H  H73  1  0.73780000  0.39980000  0.74190000  1.0 0.1208272499
H  H74  1  0.70380000  0.45410000  0.74040000  1.0 0.1208272499
H  H75  1  0.58610000  0.44470000  0.76470000  1.0 0.1208272499
H  H76  1  0.37910000  0.59660000  0.79410000  1.0 0.1208272499
H  H77  1  0.34500000  0.65080000  0.79560000  1.0 0.1208272499
H  H78  1  0.26220000  0.60020000  0.74190000  1.0 0.1208272499
H  H79  1  0.29620000  0.54590000  0.74040000  1.0 0.1208272499
H  H80  1  0.41390000  0.55530000  0.76470000  1.0 0.1208272499
H  H81  1  0.59660000  0.79410000  0.37910000  1.0 0.1208272499
H  H82  1  0.65080000  0.79560000  0.34500000  1.0 0.1208272499
H  H83  1  0.60020000  0.74190000  0.26220000  1.0 0.1208272499
H  H84  1  0.54590000  0.74040000  0.29620000  1.0 0.1208272499
H  H85  1  0.55530000  0.76470000  0.41390000  1.0 0.1208272499
H  H86  1  0.40340000  0.79410000  0.62090000  1.0 0.1208272499
H  H87  1  0.34920000  0.79560000  0.65500000  1.0 0.1208272499
H  H88  1  0.39980000  0.74190000  0.73780000  1.0 0.1208272499
H  H89  1  0.45410000  0.74040000  0.70380000  1.0 0.1208272499
H  H90  1  0.44470000  0.76470000  0.58610000  1.0 0.1208272499
H  H91  1  0.40340000  0.20590000  0.37910000  1.0 0.1208272499
H  H92  1  0.34920000  0.20440000  0.34500000  1.0 0.1208272499
H  H93  1  0.39980000  0.25810000  0.26220000  1.0 0.1208272499
H  H94  1  0.45410000  0.25960000  0.29620000  1.0 0.1208272499
H  H95  1  0.44470000  0.23530000  0.41390000  1.0 0.1208272499
H  H96  1  0.59660000  0.20590000  0.62090000  1.0 0.1208272499
H  H97  1  0.65080000  0.20440000  0.65500000  1.0 0.1208272499
H  H98  1  0.60020000  0.25810000  0.73780000  1.0 0.1208272499
H  H99  1  0.54590000  0.25960000  0.70380000  1.0 0.1208272499
H  H100  1  0.55530000  0.23530000  0.58610000  1.0 0.1208272499
H  H101  1  0.79410000  0.62090000  0.40340000  1.0 0.1208272499
H  H102  1  0.79560000  0.65500000  0.34920000  1.0 0.1208272499
H  H103  1  0.74190000  0.73780000  0.39980000  1.0 0.1208272499
H  H104  1  0.74040000  0.70380000  0.45410000  1.0 0.1208272499
H  H105  1  0.76470000  0.58610000  0.44470000  1.0 0.1208272499
H  H106  1  0.79410000  0.37910000  0.59660000  1.0 0.1208272499
H  H107  1  0.79560000  0.34500000  0.65080000  1.0 0.1208272499
H  H108  1  0.74190000  0.26220000  0.60020000  1.0 0.1208272499
H  H109  1  0.74040000  0.29620000  0.54590000  1.0 0.1208272499
H  H110  1  0.76470000  0.41390000  0.55530000  1.0 0.1208272499
H  H111  1  0.20590000  0.62090000  0.59660000  1.0 0.1208272499
H  H112  1  0.20440000  0.65500000  0.65080000  1.0 0.1208272499
H  H113  1  0.25810000  0.73780000  0.60020000  1.0 0.1208272499
H  H114  1  0.25960000  0.70380000  0.54590000  1.0 0.1208272499
H  H115  1  0.23530000  0.58610000  0.55530000  1.0 0.1208272499
H  H116  1  0.20590000  0.37910000  0.40340000  1.0 0.1208272499
H  H117  1  0.20440000  0.34500000  0.34920000  1.0 0.1208272499
H  H118  1  0.25810000  0.26220000  0.39980000  1.0 0.1208272499
H  H119  1  0.25960000  0.29620000  0.45410000  1.0 0.1208272499
H  H120  1  0.23530000  0.41390000  0.44470000  1.0 0.1208272499
H  H121  1  0.90340000  0.87910000  0.70590000  1.0 0.1208272499
H  H122  1  0.84920000  0.84500000  0.70440000  1.0 0.1208272499
H  H123  1  0.89980000  0.76220000  0.75810000  1.0 0.1208272499
H  H124  1  0.95410000  0.79620000  0.75960000  1.0 0.1208272499
H  H125  1  0.94470000  0.91390000  0.73530000  1.0 0.1208272499
H  H126  1  0.09660000  0.12090000  0.70590000  1.0 0.1208272499
H  H127  1  0.15080000  0.15500000  0.70440000  1.0 0.1208272499
H  H128  1  0.10020000  0.23780000  0.75810000  1.0 0.1208272499
H  H129  1  0.04590000  0.20380000  0.75960000  1.0 0.1208272499
H  H130  1  0.05530000  0.08610000  0.73530000  1.0 0.1208272499
H  H131  1  0.09660000  0.87910000  0.29410000  1.0 0.1208272499
H  H132  1  0.15080000  0.84500000  0.29560000  1.0 0.1208272499
H  H133  1  0.10020000  0.76220000  0.24190000  1.0 0.1208272499
H  H134  1  0.04590000  0.79620000  0.24040000  1.0 0.1208272499
H  H135  1  0.05530000  0.91390000  0.26470000  1.0 0.1208272499
H  H136  1  0.90340000  0.12090000  0.29410000  1.0 0.1208272499
H  H137  1  0.84920000  0.15500000  0.29560000  1.0 0.1208272499
H  H138  1  0.89980000  0.23780000  0.24190000  1.0 0.1208272499
H  H139  1  0.95410000  0.20380000  0.24040000  1.0 0.1208272499
H  H140  1  0.94470000  0.08610000  0.26470000  1.0 0.1208272499
H  H141  1  0.70590000  0.90340000  0.87910000  1.0 0.1208272499
H  H142  1  0.70440000  0.84920000  0.84500000  1.0 0.1208272499
H  H143  1  0.75810000  0.89980000  0.76220000  1.0 0.1208272499
H  H144  1  0.75960000  0.95410000  0.79620000  1.0 0.1208272499
H  H145  1  0.73530000  0.94470000  0.91390000  1.0 0.1208272499
H  H146  1  0.70590000  0.09660000  0.12090000  1.0 0.1208272499
H  H147  1  0.70440000  0.15080000  0.15500000  1.0 0.1208272499
H  H148  1  0.75810000  0.10020000  0.23780000  1.0 0.1208272499
H  H149  1  0.75960000  0.04590000  0.20380000  1.0 0.1208272499
H  H150  1  0.73530000  0.05530000  0.08610000  1.0 0.1208272499
H  H151  1  0.29410000  0.09660000  0.87910000  1.0 0.1208272499
H  H152  1  0.29560000  0.15080000  0.84500000  1.0 0.1208272499
H  H153  1  0.24190000  0.10020000  0.76220000  1.0 0.1208272499
H  H154  1  0.24040000  0.04590000  0.79620000  1.0 0.1208272499
H  H155  1  0.26470000  0.05530000  0.91390000  1.0 0.1208272499
H  H156  1  0.29410000  0.90340000  0.12090000  1.0 0.1208272499
H  H157  1  0.29560000  0.84920000  0.15500000  1.0 0.1208272499
H  H158  1  0.24190000  0.89980000  0.23780000  1.0 0.1208272499
H  H159  1  0.24040000  0.95410000  0.20380000  1.0 0.1208272499
H  H160  1  0.26470000  0.94470000  0.08610000  1.0 0.1208272499
H  H161  1  0.87910000  0.70590000  0.90340000  1.0 0.1208272499
H  H162  1  0.84500000  0.70440000  0.84920000  1.0 0.1208272499
H  H163  1  0.76220000  0.75810000  0.89980000  1.0 0.1208272499
H  H164  1  0.79620000  0.75960000  0.95410000  1.0 0.1208272499
H  H165  1  0.91390000  0.73530000  0.94470000  1.0 0.1208272499
H  H166  1  0.12090000  0.70590000  0.09660000  1.0 0.1208272499
H  H167  1  0.15500000  0.70440000  0.15080000  1.0 0.1208272499
H  H168  1  0.23780000  0.75810000  0.10020000  1.0 0.1208272499
H  H169  1  0.20380000  0.75960000  0.04590000  1.0 0.1208272499
H  H170  1  0.08610000  0.73530000  0.05530000  1.0 0.1208272499
H  H171  1  0.87910000  0.29410000  0.09660000  1.0 0.1208272499
H  H172  1  0.84500000  0.29560000  0.15080000  1.0 0.1208272499
H  H173  1  0.76220000  0.24190000  0.10020000  1.0 0.1208272499
H  H174  1  0.79620000  0.24040000  0.04590000  1.0 0.1208272499
H  H175  1  0.91390000  0.26470000  0.05530000  1.0 0.1208272499
H  H176  1  0.12090000  0.29410000  0.90340000  1.0 0.1208272499
H  H177  1  0.15500000  0.29560000  0.84920000  1.0 0.1208272499
H  H178  1  0.23780000  0.24190000  0.89980000  1.0 0.1208272499
H  H179  1  0.20380000  0.24040000  0.95410000  1.0 0.1208272499
H  H180  1  0.08610000  0.26470000  0.94470000  1.0 0.1208272499
H  H181  1  0.37910000  0.40340000  0.79410000  1.0 0.1208272499
H  H182  1  0.34500000  0.34920000  0.79560000  1.0 0.1208272499
H  H183  1  0.26220000  0.39980000  0.74190000  1.0 0.1208272499
H  H184  1  0.29620000  0.45410000  0.74040000  1.0 0.1208272499
H  H185  1  0.41390000  0.44470000  0.76470000  1.0 0.1208272499
H  H186  1  0.62090000  0.59660000  0.79410000  1.0 0.1208272499
H  H187  1  0.65500000  0.65080000  0.79560000  1.0 0.1208272499
H  H188  1  0.73780000  0.60020000  0.74190000  1.0 0.1208272499
H  H189  1  0.70380000  0.54590000  0.74040000  1.0 0.1208272499
H  H190  1  0.58610000  0.55530000  0.76470000  1.0 0.1208272499
H  H191  1  0.37910000  0.59660000  0.20590000  1.0 0.1208272499
H  H192  1  0.34500000  0.65080000  0.20440000  1.0 0.1208272499
H  H193  1  0.26220000  0.60020000  0.25810000  1.0 0.1208272499
H  H194  1  0.29620000  0.54590000  0.25960000  1.0 0.1208272499
H  H195  1  0.41390000  0.55530000  0.23530000  1.0 0.1208272499
H  H196  1  0.62090000  0.40340000  0.20590000  1.0 0.1208272499
H  H197  1  0.65500000  0.34920000  0.20440000  1.0 0.1208272499
H  H198  1  0.73780000  0.39980000  0.25810000  1.0 0.1208272499
H  H199  1  0.70380000  0.45410000  0.25960000  1.0 0.1208272499
H  H200  1  0.58610000  0.44470000  0.23530000  1.0 0.1208272499
H  H201  1  0.40340000  0.20590000  0.62090000  1.0 0.1208272499
H  H202  1  0.34920000  0.20440000  0.65500000  1.0 0.1208272499
H  H203  1  0.39980000  0.25810000  0.73780000  1.0 0.1208272499
H  H204  1  0.45410000  0.25960000  0.70380000  1.0 0.1208272499
H  H205  1  0.44470000  0.23530000  0.58610000  1.0 0.1208272499
H  H206  1  0.59660000  0.20590000  0.37910000  1.0 0.1208272499
H  H207  1  0.65080000  0.20440000  0.34500000  1.0 0.1208272499
H  H208  1  0.60020000  0.25810000  0.26220000  1.0 0.1208272499
H  H209  1  0.54590000  0.25960000  0.29620000  1.0 0.1208272499
H  H210  1  0.55530000  0.23530000  0.41390000  1.0 0.1208272499
H  H211  1  0.59660000  0.79410000  0.62090000  1.0 0.1208272499
H  H212  1  0.65080000  0.79560000  0.65500000  1.0 0.1208272499
H  H213  1  0.60020000  0.74190000  0.73780000  1.0 0.1208272499
H  H214  1  0.54590000  0.74040000  0.70380000  1.0 0.1208272499
H  H215  1  0.55530000  0.76470000  0.58610000  1.0 0.1208272499
H  H216  1  0.40340000  0.79410000  0.37910000  1.0 0.1208272499
H  H217  1  0.34920000  0.79560000  0.34500000  1.0 0.1208272499
H  H218  1  0.39980000  0.74190000  0.26220000  1.0 0.1208272499
H  H219  1  0.45410000  0.74040000  0.29620000  1.0 0.1208272499
H  H220  1  0.44470000  0.76470000  0.41390000  1.0 0.1208272499
H  H221  1  0.20590000  0.37910000  0.59660000  1.0 0.1208272499
H  H222  1  0.20440000  0.34500000  0.65080000  1.0 0.1208272499
H  H223  1  0.25810000  0.26220000  0.60020000  1.0 0.1208272499
H  H224  1  0.25960000  0.29620000  0.54590000  1.0 0.1208272499
H  H225  1  0.23530000  0.41390000  0.55530000  1.0 0.1208272499
H  H226  1  0.20590000  0.62090000  0.40340000  1.0 0.1208272499
H  H227  1  0.20440000  0.65500000  0.34920000  1.0 0.1208272499
H  H228  1  0.25810000  0.73780000  0.39980000  1.0 0.1208272499
H  H229  1  0.25960000  0.70380000  0.45410000  1.0 0.1208272499
H  H230  1  0.23530000  0.58610000  0.44470000  1.0 0.1208272499
H  H231  1  0.79410000  0.37910000  0.40340000  1.0 0.1208272499
H  H232  1  0.79560000  0.34500000  0.34920000  1.0 0.1208272499
H  H233  1  0.74190000  0.26220000  0.39980000  1.0 0.1208272499
H  H234  1  0.74040000  0.29620000  0.45410000  1.0 0.1208272499
H  H235  1  0.76470000  0.41390000  0.44470000  1.0 0.1208272499
H  H236  1  0.79410000  0.62090000  0.59660000  1.0 0.1208272499
H  H237  1  0.79560000  0.65500000  0.65080000  1.0 0.1208272499
H  H238  1  0.74190000  0.73780000  0.60020000  1.0 0.1208272499
H  H239  1  0.74040000  0.70380000  0.54590000  1.0 0.1208272499
H  H240  1  0.76470000  0.58610000  0.55530000  1.0 0.1208272499
H  H241  1  0.14480000  0.32940000  0.24180000  0.5 0.3958671562
H  H242  1  0.85520000  0.67060000  0.24180000  0.5 0.3958671562
H  H243  1  0.85520000  0.32940000  0.75820000  0.5 0.3958671562
H  H244  1  0.14480000  0.67060000  0.75820000  0.5 0.3958671562
H  H245  1  0.24180000  0.14480000  0.32940000  0.5 0.3958671562
H  H246  1  0.24180000  0.85520000  0.67060000  0.5 0.3958671562
H  H247  1  0.75820000  0.85520000  0.32940000  0.5 0.3958671562
H  H248  1  0.75820000  0.14480000  0.67060000  0.5 0.3958671562
H  H249  1  0.32940000  0.24180000  0.14480000  0.5 0.3958671562
H  H250  1  0.67060000  0.24180000  0.85520000  0.5 0.3958671562
H  H251  1  0.32940000  0.75820000  0.85520000  0.5 0.3958671562
H  H252  1  0.67060000  0.75820000  0.14480000  0.5 0.3958671562
H  H253  1  0.82940000  0.64480000  0.25820000  0.5 0.3958671562
H  H254  1  0.17060000  0.35520000  0.25820000  0.5 0.3958671562
H  H255  1  0.82940000  0.35520000  0.74180000  0.5 0.3958671562
H  H256  1  0.17060000  0.64480000  0.74180000  0.5 0.3958671562
H  H257  1  0.64480000  0.74180000  0.17060000  0.5 0.3958671562
H  H258  1  0.35520000  0.74180000  0.82940000  0.5 0.3958671562
H  H259  1  0.35520000  0.25820000  0.17060000  0.5 0.3958671562
H  H260  1  0.64480000  0.25820000  0.82940000  0.5 0.3958671562
H  H261  1  0.74180000  0.82940000  0.35520000  0.5 0.3958671562
H  H262  1  0.74180000  0.17060000  0.64480000  0.5 0.3958671562
H  H263  1  0.25820000  0.82940000  0.64480000  0.5 0.3958671562
H  H264  1  0.25820000  0.17060000  0.35520000  0.5 0.3958671562
H  H265  1  0.85520000  0.67060000  0.75820000  0.5 0.3958671562
H  H266  1  0.14480000  0.32940000  0.75820000  0.5 0.3958671562
H  H267  1  0.14480000  0.67060000  0.24180000  0.5 0.3958671562
H  H268  1  0.85520000  0.32940000  0.24180000  0.5 0.3958671562
H  H269  1  0.75820000  0.85520000  0.67060000  0.5 0.3958671562
H  H270  1  0.75820000  0.14480000  0.32940000  0.5 0.3958671562
H  H271  1  0.24180000  0.14480000  0.67060000  0.5 0.3958671562
H  H272  1  0.24180000  0.85520000  0.32940000  0.5 0.3958671562
H  H273  1  0.67060000  0.75820000  0.85520000  0.5 0.3958671562
H  H274  1  0.32940000  0.75820000  0.14480000  0.5 0.3958671562
H  H275  1  0.67060000  0.24180000  0.14480000  0.5 0.3958671562
H  H276  1  0.32940000  0.24180000  0.85520000  0.5 0.3958671562
H  H277  1  0.17060000  0.35520000  0.74180000  0.5 0.3958671562
H  H278  1  0.82940000  0.64480000  0.74180000  0.5 0.3958671562
H  H279  1  0.17060000  0.64480000  0.25820000  0.5 0.3958671562
H  H280  1  0.82940000  0.35520000  0.25820000  0.5 0.3958671562
H  H281  1  0.35520000  0.25820000  0.82940000  0.5 0.3958671562
H  H282  1  0.64480000  0.25820000  0.17060000  0.5 0.3958671562
H  H283  1  0.64480000  0.74180000  0.82940000  0.5 0.3958671562
H  H284  1  0.35520000  0.74180000  0.17060000  0.5 0.3958671562
H  H285  1  0.25820000  0.17060000  0.64480000  0.5 0.3958671562
H  H286  1  0.25820000  0.82940000  0.35520000  0.5 0.3958671562
H  H287  1  0.74180000  0.17060000  0.35520000  0.5 0.3958671562
H  H288  1  0.74180000  0.82940000  0.64480000  0.5 0.3958671562
C  C1  1  0.16620000  0.22020000  0.26950000  1.0 0.5966047387
C  C2  1  0.09731000  0.14433000  0.28360000  1.0 -0.1486860948
C  C3  1  0.12981000  0.16475000  0.28450000  1.0 -0.0983628915
C  C4  1  0.13088000  0.19978000  0.26880000  1.0 -0.0547024083
C  C5  1  0.09946000  0.21440000  0.25230000  1.0 -0.0983628915
C  C6  1  0.06697000  0.19398000  0.25150000  1.0 -0.1288491094
C  C7  1  0.06589000  0.15895000  0.26710000  1.0 0.0628662479
C  C8  1  0.03170000  0.13670000  0.26180000  1.0 0.2033700806
C  C9  1  0.03310000  0.09870000  0.26220000  1.0 -0.2501082759
C  C10  1  0.02860000  0.01980000  0.27400000  1.0 -0.093860214
C  C11  1  0.83380000  0.77980000  0.26950000  1.0 0.5966047387
C  C12  1  0.90269000  0.85567000  0.28360000  1.0 -0.1486860948
C  C13  1  0.87019000  0.83525000  0.28450000  1.0 -0.0983628915
C  C14  1  0.86912000  0.80022000  0.26880000  1.0 -0.0547024083
C  C15  1  0.90054000  0.78560000  0.25230000  1.0 -0.093860214
C  C16  1  0.93303000  0.80602000  0.25150000  1.0 -0.1288491094
C  C17  1  0.93411000  0.84105000  0.26710000  1.0 0.0628662479
C  C18  1  0.96830000  0.86330000  0.26180000  1.0 0.2033700806
C  C19  1  0.96690000  0.90130000  0.26220000  1.0 -0.2501082759
C  C20  1  0.97140000  0.98020000  0.27400000  1.0 -0.093860214
C  C21  1  0.83380000  0.22020000  0.73050000  1.0 0.5966047387
C  C22  1  0.90269000  0.14433000  0.71640000  1.0 -0.1486860948
C  C23  1  0.87019000  0.16475000  0.71550000  1.0 -0.0983628915
C  C24  1  0.86912000  0.19978000  0.73120000  1.0 -0.0547024083
C  C25  1  0.90054000  0.21440000  0.74770000  1.0 -0.093860214
C  C26  1  0.93303000  0.19398000  0.74850000  1.0 -0.1288491094
C  C27  1  0.93411000  0.15895000  0.73290000  1.0 0.0628662479
C  C28  1  0.96830000  0.13670000  0.73820000  1.0 0.2033700806
C  C29  1  0.96690000  0.09870000  0.73780000  1.0 -0.2501082759
C  C30  1  0.97140000  0.01980000  0.72600000  1.0 -0.093860214
C  C31  1  0.16620000  0.77980000  0.73050000  1.0 0.5966047387
C  C32  1  0.09731000  0.85567000  0.71640000  1.0 -0.1486860948
C  C33  1  0.12981000  0.83525000  0.71550000  1.0 -0.0983628915
C  C34  1  0.13088000  0.80022000  0.73120000  1.0 -0.0551193354
C  C35  1  0.09946000  0.78560000  0.74770000  1.0 -0.093860214
C  C36  1  0.06697000  0.80602000  0.74850000  1.0 -0.1288491094
C  C37  1  0.06589000  0.84105000  0.73290000  1.0 0.0628662479
C  C38  1  0.03170000  0.86330000  0.73820000  1.0 0.2033700806
C  C39  1  0.03310000  0.90130000  0.73780000  1.0 -0.2501082759
C  C40  1  0.02860000  0.98020000  0.72600000  1.0 -0.093860214
C  C41  1  0.26950000  0.16620000  0.22020000  1.0 0.5966047387
C  C42  1  0.28360000  0.09731000  0.14433000  1.0 -0.1486860948
C  C43  1  0.28450000  0.12981000  0.16475000  1.0 -0.0983628915
C  C44  1  0.26880000  0.13088000  0.19978000  1.0 -0.0547024083
C  C45  1  0.25230000  0.09946000  0.21440000  1.0 -0.0983628915
C  C46  1  0.25150000  0.06697000  0.19398000  1.0 -0.1288491094
C  C47  1  0.26710000  0.06589000  0.15895000  1.0 0.0628662479
C  C48  1  0.26180000  0.03170000  0.13670000  1.0 0.2033700806
C  C49  1  0.26220000  0.03310000  0.09870000  1.0 -0.2501082759
C  C50  1  0.27400000  0.02860000  0.01980000  1.0 -0.093860214
C  C51  1  0.26950000  0.83380000  0.77980000  1.0 0.5966047387
C  C52  1  0.28360000  0.90269000  0.85567000  1.0 -0.1486860948
C  C53  1  0.28450000  0.87019000  0.83525000  1.0 -0.0983628915
C  C54  1  0.26880000  0.86912000  0.80022000  1.0 -0.0551193354
C  C55  1  0.25230000  0.90054000  0.78560000  1.0 -0.093860214
C  C56  1  0.25150000  0.93303000  0.80602000  1.0 -0.1288491094
C  C57  1  0.26710000  0.93411000  0.84105000  1.0 0.0628662479
C  C58  1  0.26180000  0.96830000  0.86330000  1.0 0.2033700806
C  C59  1  0.26220000  0.96690000  0.90130000  1.0 -0.2501082759
C  C60  1  0.27400000  0.97140000  0.98020000  1.0 -0.093860214
C  C61  1  0.73050000  0.83380000  0.22020000  1.0 0.5966047387
C  C62  1  0.71640000  0.90269000  0.14433000  1.0 -0.1486860948
C  C63  1  0.71550000  0.87019000  0.16475000  1.0 -0.0983628915
C  C64  1  0.73120000  0.86912000  0.19978000  1.0 -0.0551193354
C  C65  1  0.74770000  0.90054000  0.21440000  1.0 -0.093860214
C  C66  1  0.74850000  0.93303000  0.19398000  1.0 -0.1288491094
C  C67  1  0.73290000  0.93411000  0.15895000  1.0 0.0628662479
C  C68  1  0.73820000  0.96830000  0.13670000  1.0 0.2033700806
C  C69  1  0.73780000  0.96690000  0.09870000  1.0 -0.2501082759
C  C70  1  0.72600000  0.97140000  0.01980000  1.0 -0.093860214
C  C71  1  0.73050000  0.16620000  0.77980000  1.0 0.5966047387
C  C72  1  0.71640000  0.09731000  0.85567000  1.0 -0.1486860948
C  C73  1  0.71550000  0.12981000  0.83525000  1.0 -0.0983628915
C  C74  1  0.73120000  0.13088000  0.80022000  1.0 -0.0547024083
C  C75  1  0.74770000  0.09946000  0.78560000  1.0 -0.093860214
C  C76  1  0.74850000  0.06697000  0.80602000  1.0 -0.1288491094
C  C77  1  0.73290000  0.06589000  0.84105000  1.0 0.0628662479
C  C78  1  0.73820000  0.03170000  0.86330000  1.0 0.2033700806
C  C79  1  0.73780000  0.03310000  0.90130000  1.0 -0.2501082759
C  C80  1  0.72600000  0.02860000  0.98020000  1.0 -0.093860214
C  C81  1  0.22020000  0.26950000  0.16620000  1.0 0.5966047387
C  C82  1  0.14433000  0.28360000  0.09731000  1.0 -0.1486860948
C  C83  1  0.16475000  0.28450000  0.12981000  1.0 -0.0983628915
C  C84  1  0.19978000  0.26880000  0.13088000  1.0 -0.0547024083
C  C85  1  0.21440000  0.25230000  0.09946000  1.0 -0.0983628915
C  C86  1  0.19398000  0.25150000  0.06697000  1.0 -0.1288491094
C  C87  1  0.15895000  0.26710000  0.06589000  1.0 0.0628662479
C  C88  1  0.13670000  0.26180000  0.03170000  1.0 0.2033700806
C  C89  1  0.09870000  0.26220000  0.03310000  1.0 -0.2501082759
C  C90  1  0.01980000  0.27400000  0.02860000  1.0 -0.093860214
C  C91  1  0.77980000  0.26950000  0.83380000  1.0 0.5966047387
C  C92  1  0.85567000  0.28360000  0.90269000  1.0 -0.1486860948
C  C93  1  0.83525000  0.28450000  0.87019000  1.0 -0.0983628915
C  C94  1  0.80022000  0.26880000  0.86912000  1.0 -0.0547024083
C  C95  1  0.78560000  0.25230000  0.90054000  1.0 -0.093860214
C  C96  1  0.80602000  0.25150000  0.93303000  1.0 -0.1288491094
C  C97  1  0.84105000  0.26710000  0.93411000  1.0 0.0628662479
C  C98  1  0.86330000  0.26180000  0.96830000  1.0 0.2033700806
C  C99  1  0.90130000  0.26220000  0.96690000  1.0 -0.2501082759
C  C100  1  0.98020000  0.27400000  0.97140000  1.0 -0.093860214
C  C101  1  0.22020000  0.73050000  0.83380000  1.0 0.5966047387
C  C102  1  0.14433000  0.71640000  0.90269000  1.0 -0.1486860948
C  C103  1  0.16475000  0.71550000  0.87019000  1.0 -0.0983628915
C  C104  1  0.19978000  0.73120000  0.86912000  1.0 -0.0551193354
C  C105  1  0.21440000  0.74770000  0.90054000  1.0 -0.093860214
C  C106  1  0.19398000  0.74850000  0.93303000  1.0 -0.1288491094
C  C107  1  0.15895000  0.73290000  0.93411000  1.0 0.0628662479
C  C108  1  0.13670000  0.73820000  0.96830000  1.0 0.2033700806
C  C109  1  0.09870000  0.73780000  0.96690000  1.0 -0.2501082759
C  C110  1  0.01980000  0.72600000  0.97140000  1.0 -0.093860214
C  C111  1  0.77980000  0.73050000  0.16620000  1.0 0.5966047387
C  C112  1  0.85567000  0.71640000  0.09731000  1.0 -0.1486860948
C  C113  1  0.83525000  0.71550000  0.12981000  1.0 -0.0983628915
C  C114  1  0.80022000  0.73120000  0.13088000  1.0 -0.0547024083
C  C115  1  0.78560000  0.74770000  0.09946000  1.0 -0.093860214
C  C116  1  0.80602000  0.74850000  0.06697000  1.0 -0.1288491094
C  C117  1  0.84105000  0.73290000  0.06589000  1.0 0.0628662479
C  C118  1  0.86330000  0.73820000  0.03170000  1.0 0.2033700806
C  C119  1  0.90130000  0.73780000  0.03310000  1.0 -0.2501082759
C  C120  1  0.98020000  0.72600000  0.02860000  1.0 -0.093860214
C  C121  1  0.72020000  0.66620000  0.23050000  1.0 0.5966047387
C  C122  1  0.64433000  0.59731000  0.21640000  1.0 -0.1486860948
C  C123  1  0.66475000  0.62981000  0.21550000  1.0 -0.0983628915
C  C124  1  0.69978000  0.63088000  0.23120000  1.0 -0.0551193354
C  C125  1  0.71440000  0.59946000  0.24770000  1.0 -0.093860214
C  C126  1  0.69398000  0.56697000  0.24850000  1.0 -0.1288491094
C  C127  1  0.65895000  0.56589000  0.23290000  1.0 0.0628662479
C  C128  1  0.63670000  0.53170000  0.23820000  1.0 0.2033700806
C  C129  1  0.59870000  0.53310000  0.23780000  1.0 -0.2501082759
C  C130  1  0.51980000  0.52860000  0.22600000  1.0 -0.093860214
C  C131  1  0.27980000  0.33380000  0.23050000  1.0 0.5966047387
C  C132  1  0.35567000  0.40269000  0.21640000  1.0 -0.1486860948
C  C133  1  0.33525000  0.37019000  0.21550000  1.0 -0.0983628915
C  C134  1  0.30022000  0.36912000  0.23120000  1.0 -0.0547024083
C  C135  1  0.28560000  0.40054000  0.24770000  1.0 -0.0983628915
C  C136  1  0.30602000  0.43303000  0.24850000  1.0 -0.1288491094
C  C137  1  0.34105000  0.43411000  0.23290000  1.0 0.0628662479
C  C138  1  0.36330000  0.46830000  0.23820000  1.0 0.2033700806
C  C139  1  0.40130000  0.46690000  0.23780000  1.0 -0.2501082759
C  C140  1  0.48020000  0.47140000  0.22600000  1.0 -0.093860214
C  C141  1  0.72020000  0.33380000  0.76950000  1.0 0.5966047387
C  C142  1  0.64433000  0.40269000  0.78360000  1.0 -0.1486860948
C  C143  1  0.66475000  0.37019000  0.78450000  1.0 -0.0983628915
C  C144  1  0.69978000  0.36912000  0.76880000  1.0 -0.0551193354
C  C145  1  0.71440000  0.40054000  0.75230000  1.0 -0.093860214
C  C146  1  0.69398000  0.43303000  0.75150000  1.0 -0.1288491094
C  C147  1  0.65895000  0.43411000  0.76710000  1.0 0.0628662479
C  C148  1  0.63670000  0.46830000  0.76180000  1.0 0.2033700806
C  C149  1  0.59870000  0.46690000  0.76220000  1.0 -0.2501082759
C  C150  1  0.51980000  0.47140000  0.77400000  1.0 -0.093860214
C  C151  1  0.27980000  0.66620000  0.76950000  1.0 0.5966047387
C  C152  1  0.35567000  0.59731000  0.78360000  1.0 -0.1486860948
C  C153  1  0.33525000  0.62981000  0.78450000  1.0 -0.0983628915
C  C154  1  0.30022000  0.63088000  0.76880000  1.0 -0.0551193354
C  C155  1  0.28560000  0.59946000  0.75230000  1.0 -0.093860214
C  C156  1  0.30602000  0.56697000  0.75150000  1.0 -0.1288491094
C  C157  1  0.34105000  0.56589000  0.76710000  1.0 0.0628662479
C  C158  1  0.36330000  0.53170000  0.76180000  1.0 0.2033700806
C  C159  1  0.40130000  0.53310000  0.76220000  1.0 -0.2501082759
C  C160  1  0.48020000  0.52860000  0.77400000  1.0 -0.093860214
C  C161  1  0.66620000  0.76950000  0.27980000  1.0 0.5966047387
C  C162  1  0.59731000  0.78360000  0.35567000  1.0 -0.1486860948
C  C163  1  0.62981000  0.78450000  0.33525000  1.0 -0.0983628915
C  C164  1  0.63088000  0.76880000  0.30022000  1.0 -0.0551193354
C  C165  1  0.59946000  0.75230000  0.28560000  1.0 -0.093860214
C  C166  1  0.56697000  0.75150000  0.30602000  1.0 -0.1288491094
C  C167  1  0.56589000  0.76710000  0.34105000  1.0 0.0628662479
C  C168  1  0.53170000  0.76180000  0.36330000  1.0 0.2033700806
C  C169  1  0.53310000  0.76220000  0.40130000  1.0 -0.2501082759
C  C170  1  0.52860000  0.77400000  0.48020000  1.0 -0.093860214
C  C171  1  0.33380000  0.76950000  0.72020000  1.0 0.5966047387
C  C172  1  0.40269000  0.78360000  0.64433000  1.0 -0.1486860948
C  C173  1  0.37019000  0.78450000  0.66475000  1.0 -0.0983628915
C  C174  1  0.36912000  0.76880000  0.69978000  1.0 -0.0551193354
C  C175  1  0.40054000  0.75230000  0.71440000  1.0 -0.093860214
C  C176  1  0.43303000  0.75150000  0.69398000  1.0 -0.1288491094
C  C177  1  0.43411000  0.76710000  0.65895000  1.0 0.0628662479
C  C178  1  0.46830000  0.76180000  0.63670000  1.0 0.2033700806
C  C179  1  0.46690000  0.76220000  0.59870000  1.0 -0.2501082759
C  C180  1  0.47140000  0.77400000  0.51980000  1.0 -0.093860214
C  C181  1  0.33380000  0.23050000  0.27980000  1.0 0.5966047387
C  C182  1  0.40269000  0.21640000  0.35567000  1.0 -0.1486860948
C  C183  1  0.37019000  0.21550000  0.33525000  1.0 -0.0983628915
C  C184  1  0.36912000  0.23120000  0.30022000  1.0 -0.0547024083
C  C185  1  0.40054000  0.24770000  0.28560000  1.0 -0.093860214
C  C186  1  0.43303000  0.24850000  0.30602000  1.0 -0.1288491094
C  C187  1  0.43411000  0.23290000  0.34105000  1.0 0.0628662479
C  C188  1  0.46830000  0.23820000  0.36330000  1.0 0.2033700806
C  C189  1  0.46690000  0.23780000  0.40130000  1.0 -0.2501082759
C  C190  1  0.47140000  0.22600000  0.48020000  1.0 -0.093860214
C  C191  1  0.66620000  0.23050000  0.72020000  1.0 0.5966047387
C  C192  1  0.59731000  0.21640000  0.64433000  1.0 -0.1486860948
C  C193  1  0.62981000  0.21550000  0.66475000  1.0 -0.0983628915
C  C194  1  0.63088000  0.23120000  0.69978000  1.0 -0.0551193354
C  C195  1  0.59946000  0.24770000  0.71440000  1.0 -0.093860214
C  C196  1  0.56697000  0.24850000  0.69398000  1.0 -0.1288491094
C  C197  1  0.56589000  0.23290000  0.65895000  1.0 0.0628662479
C  C198  1  0.53170000  0.23820000  0.63670000  1.0 0.2033700806
C  C199  1  0.53310000  0.23780000  0.59870000  1.0 -0.2501082759
C  C200  1  0.52860000  0.22600000  0.51980000  1.0 -0.093860214
C  C201  1  0.76950000  0.72020000  0.33380000  1.0 0.5966047387
C  C202  1  0.78360000  0.64433000  0.40269000  1.0 -0.1486860948
C  C203  1  0.78450000  0.66475000  0.37019000  1.0 -0.0983628915
C  C204  1  0.76880000  0.69978000  0.36912000  1.0 -0.0551193354
C  C205  1  0.75230000  0.71440000  0.40054000  1.0 -0.093860214
C  C206  1  0.75150000  0.69398000  0.43303000  1.0 -0.1288491094
C  C207  1  0.76710000  0.65895000  0.43411000  1.0 0.0628662479
C  C208  1  0.76180000  0.63670000  0.46830000  1.0 0.2033700806
C  C209  1  0.76220000  0.59870000  0.46690000  1.0 -0.2501082759
C  C210  1  0.77400000  0.51980000  0.47140000  1.0 -0.093860214
C  C211  1  0.76950000  0.27980000  0.66620000  1.0 0.5966047387
C  C212  1  0.78360000  0.35567000  0.59731000  1.0 -0.1486860948
C  C213  1  0.78450000  0.33525000  0.62981000  1.0 -0.0983628915
C  C214  1  0.76880000  0.30022000  0.63088000  1.0 -0.0551193354
C  C215  1  0.75230000  0.28560000  0.59946000  1.0 -0.093860214
C  C216  1  0.75150000  0.30602000  0.56697000  1.0 -0.1288491094
C  C217  1  0.76710000  0.34105000  0.56589000  1.0 0.0628662479
C  C218  1  0.76180000  0.36330000  0.53170000  1.0 0.2033700806
C  C219  1  0.76220000  0.40130000  0.53310000  1.0 -0.2501082759
C  C220  1  0.77400000  0.48020000  0.52860000  1.0 -0.093860214
C  C221  1  0.23050000  0.72020000  0.66620000  1.0 0.5966047387
C  C222  1  0.21640000  0.64433000  0.59731000  1.0 -0.1486860948
C  C223  1  0.21550000  0.66475000  0.62981000  1.0 -0.0983628915
C  C224  1  0.23120000  0.69978000  0.63088000  1.0 -0.0551193354
C  C225  1  0.24770000  0.71440000  0.59946000  1.0 -0.093860214
C  C226  1  0.24850000  0.69398000  0.56697000  1.0 -0.1288491094
C  C227  1  0.23290000  0.65895000  0.56589000  1.0 0.0628662479
C  C228  1  0.23820000  0.63670000  0.53170000  1.0 0.2033700806
C  C229  1  0.23780000  0.59870000  0.53310000  1.0 -0.2501082759
C  C230  1  0.22600000  0.51980000  0.52860000  1.0 -0.093860214
C  C231  1  0.23050000  0.27980000  0.33380000  1.0 0.5966047387
C  C232  1  0.21640000  0.35567000  0.40269000  1.0 -0.1486860948
C  C233  1  0.21550000  0.33525000  0.37019000  1.0 -0.0983628915
C  C234  1  0.23120000  0.30022000  0.36912000  1.0 -0.0547024083
C  C235  1  0.24770000  0.28560000  0.40054000  1.0 -0.093860214
C  C236  1  0.24850000  0.30602000  0.43303000  1.0 -0.1288491094
C  C237  1  0.23290000  0.34105000  0.43411000  1.0 0.0628662479
C  C238  1  0.23820000  0.36330000  0.46830000  1.0 0.2033700806
C  C239  1  0.23780000  0.40130000  0.46690000  1.0 -0.2501082759
C  C240  1  0.22600000  0.48020000  0.47140000  1.0 -0.093860214
C  C241  1  0.83380000  0.77980000  0.73050000  1.0 0.5966047387
C  C242  1  0.90269000  0.85567000  0.71640000  1.0 -0.1486860948
C  C243  1  0.87019000  0.83525000  0.71550000  1.0 -0.0983628915
C  C244  1  0.86912000  0.80022000  0.73120000  1.0 -0.0551193354
C  C245  1  0.90054000  0.78560000  0.74770000  1.0 -0.093860214
C  C246  1  0.93303000  0.80602000  0.74850000  1.0 -0.1288491094
C  C247  1  0.93411000  0.84105000  0.73290000  1.0 0.0628662479
C  C248  1  0.96830000  0.86330000  0.73820000  1.0 0.2033700806
C  C249  1  0.96690000  0.90130000  0.73780000  1.0 -0.2501082759
C  C250  1  0.97140000  0.98020000  0.72600000  1.0 -0.093860214
C  C251  1  0.16620000  0.22020000  0.73050000  1.0 0.5966047387
C  C252  1  0.09731000  0.14433000  0.71640000  1.0 -0.1486860948
C  C253  1  0.12981000  0.16475000  0.71550000  1.0 -0.0983628915
C  C254  1  0.13088000  0.19978000  0.73120000  1.0 -0.0551193354
C  C255  1  0.09946000  0.21440000  0.74770000  1.0 -0.093860214
C  C256  1  0.06697000  0.19398000  0.74850000  1.0 -0.1288491094
C  C257  1  0.06589000  0.15895000  0.73290000  1.0 0.0628662479
C  C258  1  0.03170000  0.13670000  0.73820000  1.0 0.2033700806
C  C259  1  0.03310000  0.09870000  0.73780000  1.0 -0.2501082759
C  C260  1  0.02860000  0.01980000  0.72600000  1.0 -0.093860214
C  C261  1  0.16620000  0.77980000  0.26950000  1.0 0.5966047387
C  C262  1  0.09731000  0.85567000  0.28360000  1.0 -0.1486860948
C  C263  1  0.12981000  0.83525000  0.28450000  1.0 -0.0983628915
C  C264  1  0.13088000  0.80022000  0.26880000  1.0 -0.0547024083
C  C265  1  0.09946000  0.78560000  0.25230000  1.0 -0.093860214
C  C266  1  0.06697000  0.80602000  0.25150000  1.0 -0.1288491094
C  C267  1  0.06589000  0.84105000  0.26710000  1.0 0.0628662479
C  C268  1  0.03170000  0.86330000  0.26180000  1.0 0.2033700806
C  C269  1  0.03310000  0.90130000  0.26220000  1.0 -0.2501082759
C  C270  1  0.02860000  0.98020000  0.27400000  1.0 -0.093860214
C  C271  1  0.83380000  0.22020000  0.26950000  1.0 0.5966047387
C  C272  1  0.90269000  0.14433000  0.28360000  1.0 -0.1486860948
C  C273  1  0.87019000  0.16475000  0.28450000  1.0 -0.0983628915
C  C274  1  0.86912000  0.19978000  0.26880000  1.0 -0.0547024083
C  C275  1  0.90054000  0.21440000  0.25230000  1.0 -0.093860214
C  C276  1  0.93303000  0.19398000  0.25150000  1.0 -0.1288491094
C  C277  1  0.93411000  0.15895000  0.26710000  1.0 0.0628662479
C  C278  1  0.96830000  0.13670000  0.26180000  1.0 0.2033700806
C  C279  1  0.96690000  0.09870000  0.26220000  1.0 -0.2501082759
C  C280  1  0.97140000  0.01980000  0.27400000  1.0 -0.093860214
C  C281  1  0.73050000  0.83380000  0.77980000  1.0 0.5966047387
C  C282  1  0.71640000  0.90269000  0.85567000  1.0 -0.1486860948
C  C283  1  0.71550000  0.87019000  0.83525000  1.0 -0.0983628915
C  C284  1  0.73120000  0.86912000  0.80022000  1.0 -0.0551193354
C  C285  1  0.74770000  0.90054000  0.78560000  1.0 -0.093860214
C  C286  1  0.74850000  0.93303000  0.80602000  1.0 -0.1288491094
C  C287  1  0.73290000  0.93411000  0.84105000  1.0 0.0628662479
C  C288  1  0.73820000  0.96830000  0.86330000  1.0 0.2033700806
C  C289  1  0.73780000  0.96690000  0.90130000  1.0 -0.2501082759
C  C290  1  0.72600000  0.97140000  0.98020000  1.0 -0.093860214
C  C291  1  0.73050000  0.16620000  0.22020000  1.0 0.5966047387
C  C292  1  0.71640000  0.09731000  0.14433000  1.0 -0.1486860948
C  C293  1  0.71550000  0.12981000  0.16475000  1.0 -0.0983628915
C  C294  1  0.73120000  0.13088000  0.19978000  1.0 -0.0547024083
C  C295  1  0.74770000  0.09946000  0.21440000  1.0 -0.093860214
C  C296  1  0.74850000  0.06697000  0.19398000  1.0 -0.1288491094
C  C297  1  0.73290000  0.06589000  0.15895000  1.0 0.0628662479
C  C298  1  0.73820000  0.03170000  0.13670000  1.0 0.2033700806
C  C299  1  0.73780000  0.03310000  0.09870000  1.0 -0.2501082759
C  C300  1  0.72600000  0.02860000  0.01980000  1.0 -0.093860214
C  C301  1  0.26950000  0.16620000  0.77980000  1.0 0.5966047387
C  C302  1  0.28360000  0.09731000  0.85567000  1.0 -0.1486860948
C  C303  1  0.28450000  0.12981000  0.83525000  1.0 -0.0983628915
C  C304  1  0.26880000  0.13088000  0.80022000  1.0 -0.0547024083
C  C305  1  0.25230000  0.09946000  0.78560000  1.0 -0.093860214
C  C306  1  0.25150000  0.06697000  0.80602000  1.0 -0.1288491094
C  C307  1  0.26710000  0.06589000  0.84105000  1.0 0.0628662479
C  C308  1  0.26180000  0.03170000  0.86330000  1.0 0.2033700806
C  C309  1  0.26220000  0.03310000  0.90130000  1.0 -0.2501082759
C  C310  1  0.27400000  0.02860000  0.98020000  1.0 -0.093860214
C  C311  1  0.26950000  0.83380000  0.22020000  1.0 0.5966047387
C  C312  1  0.28360000  0.90269000  0.14433000  1.0 -0.1486860948
C  C313  1  0.28450000  0.87019000  0.16475000  1.0 -0.0983628915
C  C314  1  0.26880000  0.86912000  0.19978000  1.0 -0.0551193354
C  C315  1  0.25230000  0.90054000  0.21440000  1.0 -0.0983628915
C  C316  1  0.25150000  0.93303000  0.19398000  1.0 -0.1288491094
C  C317  1  0.26710000  0.93411000  0.15895000  1.0 0.0628662479
C  C318  1  0.26180000  0.96830000  0.13670000  1.0 0.2033700806
C  C319  1  0.26220000  0.96690000  0.09870000  1.0 -0.2501082759
C  C320  1  0.27400000  0.97140000  0.01980000  1.0 -0.093860214
C  C321  1  0.77980000  0.73050000  0.83380000  1.0 0.5966047387
C  C322  1  0.85567000  0.71640000  0.90269000  1.0 -0.1486860948
C  C323  1  0.83525000  0.71550000  0.87019000  1.0 -0.0983628915
C  C324  1  0.80022000  0.73120000  0.86912000  1.0 -0.0551193354
C  C325  1  0.78560000  0.74770000  0.90054000  1.0 -0.093860214
C  C326  1  0.80602000  0.74850000  0.93303000  1.0 -0.1288491094
C  C327  1  0.84105000  0.73290000  0.93411000  1.0 0.0628662479
C  C328  1  0.86330000  0.73820000  0.96830000  1.0 0.2033700806
C  C329  1  0.90130000  0.73780000  0.96690000  1.0 -0.2501082759
C  C330  1  0.98020000  0.72600000  0.97140000  1.0 -0.093860214
C  C331  1  0.22020000  0.73050000  0.16620000  1.0 0.5966047387
C  C332  1  0.14433000  0.71640000  0.09731000  1.0 -0.1486860948
C  C333  1  0.16475000  0.71550000  0.12981000  1.0 -0.0983628915
C  C334  1  0.19978000  0.73120000  0.13088000  1.0 -0.0551193354
C  C335  1  0.21440000  0.74770000  0.09946000  1.0 -0.0983628915
C  C336  1  0.19398000  0.74850000  0.06697000  1.0 -0.1288491094
C  C337  1  0.15895000  0.73290000  0.06589000  1.0 0.0628662479
C  C338  1  0.13670000  0.73820000  0.03170000  1.0 0.2033700806
C  C339  1  0.09870000  0.73780000  0.03310000  1.0 -0.2501082759
C  C340  1  0.01980000  0.72600000  0.02860000  1.0 -0.093860214
C  C341  1  0.77980000  0.26950000  0.16620000  1.0 0.5966047387
C  C342  1  0.85567000  0.28360000  0.09731000  1.0 -0.1486860948
C  C343  1  0.83525000  0.28450000  0.12981000  1.0 -0.0983628915
C  C344  1  0.80022000  0.26880000  0.13088000  1.0 -0.0547024083
C  C345  1  0.78560000  0.25230000  0.09946000  1.0 -0.093860214
C  C346  1  0.80602000  0.25150000  0.06697000  1.0 -0.1288491094
C  C347  1  0.84105000  0.26710000  0.06589000  1.0 0.0628662479
C  C348  1  0.86330000  0.26180000  0.03170000  1.0 0.2033700806
C  C349  1  0.90130000  0.26220000  0.03310000  1.0 -0.2501082759
C  C350  1  0.98020000  0.27400000  0.02860000  1.0 -0.093860214
C  C351  1  0.22020000  0.26950000  0.83380000  1.0 0.5966047387
C  C352  1  0.14433000  0.28360000  0.90269000  1.0 -0.1486860948
C  C353  1  0.16475000  0.28450000  0.87019000  1.0 -0.0983628915
C  C354  1  0.19978000  0.26880000  0.86912000  1.0 -0.0547024083
C  C355  1  0.21440000  0.25230000  0.90054000  1.0 -0.093860214
C  C356  1  0.19398000  0.25150000  0.93303000  1.0 -0.1288491094
C  C357  1  0.15895000  0.26710000  0.93411000  1.0 0.0628662479
C  C358  1  0.13670000  0.26180000  0.96830000  1.0 0.2033700806
C  C359  1  0.09870000  0.26220000  0.96690000  1.0 -0.2501082759
C  C360  1  0.01980000  0.27400000  0.97140000  1.0 -0.093860214
C  C361  1  0.27980000  0.33380000  0.76950000  1.0 0.5966047387
C  C362  1  0.35567000  0.40269000  0.78360000  1.0 -0.1486860948
C  C363  1  0.33525000  0.37019000  0.78450000  1.0 -0.0983628915
C  C364  1  0.30022000  0.36912000  0.76880000  1.0 -0.0551193354
C  C365  1  0.28560000  0.40054000  0.75230000  1.0 -0.093860214
C  C366  1  0.30602000  0.43303000  0.75150000  1.0 -0.1288491094
C  C367  1  0.34105000  0.43411000  0.76710000  1.0 0.0628662479
C  C368  1  0.36330000  0.46830000  0.76180000  1.0 0.2033700806
C  C369  1  0.40130000  0.46690000  0.76220000  1.0 -0.2501082759
C  C370  1  0.48020000  0.47140000  0.77400000  1.0 -0.093860214
C  C371  1  0.72020000  0.66620000  0.76950000  1.0 0.5966047387
C  C372  1  0.64433000  0.59731000  0.78360000  1.0 -0.1486860948
C  C373  1  0.66475000  0.62981000  0.78450000  1.0 -0.0983628915
C  C374  1  0.69978000  0.63088000  0.76880000  1.0 -0.0551193354
C  C375  1  0.71440000  0.59946000  0.75230000  1.0 -0.093860214
C  C376  1  0.69398000  0.56697000  0.75150000  1.0 -0.1288491094
C  C377  1  0.65895000  0.56589000  0.76710000  1.0 0.0628662479
C  C378  1  0.63670000  0.53170000  0.76180000  1.0 0.2033700806
C  C379  1  0.59870000  0.53310000  0.76220000  1.0 -0.2501082759
C  C380  1  0.51980000  0.52860000  0.77400000  1.0 -0.093860214
C  C381  1  0.27980000  0.66620000  0.23050000  1.0 0.5966047387
C  C382  1  0.35567000  0.59731000  0.21640000  1.0 -0.1486860948
C  C383  1  0.33525000  0.62981000  0.21550000  1.0 -0.0983628915
C  C384  1  0.30022000  0.63088000  0.23120000  1.0 -0.0551193354
C  C385  1  0.28560000  0.59946000  0.24770000  1.0 -0.0983628915
C  C386  1  0.30602000  0.56697000  0.24850000  1.0 -0.1288491094
C  C387  1  0.34105000  0.56589000  0.23290000  1.0 0.0628662479
C  C388  1  0.36330000  0.53170000  0.23820000  1.0 0.2033700806
C  C389  1  0.40130000  0.53310000  0.23780000  1.0 -0.2501082759
C  C390  1  0.48020000  0.52860000  0.22600000  1.0 -0.093860214
C  C391  1  0.72020000  0.33380000  0.23050000  1.0 0.5966047387
C  C392  1  0.64433000  0.40269000  0.21640000  1.0 -0.1486860948
C  C393  1  0.66475000  0.37019000  0.21550000  1.0 -0.0983628915
C  C394  1  0.69978000  0.36912000  0.23120000  1.0 -0.0547024083
C  C395  1  0.71440000  0.40054000  0.24770000  1.0 -0.093860214
C  C396  1  0.69398000  0.43303000  0.24850000  1.0 -0.1288491094
C  C397  1  0.65895000  0.43411000  0.23290000  1.0 0.0628662479
C  C398  1  0.63670000  0.46830000  0.23820000  1.0 0.2033700806
C  C399  1  0.59870000  0.46690000  0.23780000  1.0 -0.2501082759
C  C400  1  0.51980000  0.47140000  0.22600000  1.0 -0.093860214
C  C401  1  0.33380000  0.23050000  0.72020000  1.0 0.5966047387
C  C402  1  0.40269000  0.21640000  0.64433000  1.0 -0.1486860948
C  C403  1  0.37019000  0.21550000  0.66475000  1.0 -0.0983628915
C  C404  1  0.36912000  0.23120000  0.69978000  1.0 -0.0547024083
C  C405  1  0.40054000  0.24770000  0.71440000  1.0 -0.093860214
C  C406  1  0.43303000  0.24850000  0.69398000  1.0 -0.1288491094
C  C407  1  0.43411000  0.23290000  0.65895000  1.0 0.0628662479
C  C408  1  0.46830000  0.23820000  0.63670000  1.0 0.2033700806
C  C409  1  0.46690000  0.23780000  0.59870000  1.0 -0.2501082759
C  C410  1  0.47140000  0.22600000  0.51980000  1.0 -0.093860214
C  C411  1  0.66620000  0.23050000  0.27980000  1.0 0.5966047387
C  C412  1  0.59731000  0.21640000  0.35567000  1.0 -0.1486860948
C  C413  1  0.62981000  0.21550000  0.33525000  1.0 -0.0983628915
C  C414  1  0.63088000  0.23120000  0.30022000  1.0 -0.0551193354
C  C415  1  0.59946000  0.24770000  0.28560000  1.0 -0.093860214
C  C416  1  0.56697000  0.24850000  0.30602000  1.0 -0.1288491094
C  C417  1  0.56589000  0.23290000  0.34105000  1.0 0.0628662479
C  C418  1  0.53170000  0.23820000  0.36330000  1.0 0.2033700806
C  C419  1  0.53310000  0.23780000  0.40130000  1.0 -0.2501082759
C  C420  1  0.52860000  0.22600000  0.48020000  1.0 -0.093860214
C  C421  1  0.66620000  0.76950000  0.72020000  1.0 0.5966047387
C  C422  1  0.59731000  0.78360000  0.64433000  1.0 -0.1486860948
C  C423  1  0.62981000  0.78450000  0.66475000  1.0 -0.0983628915
C  C424  1  0.63088000  0.76880000  0.69978000  1.0 -0.0551193354
C  C425  1  0.59946000  0.75230000  0.71440000  1.0 -0.093860214
C  C426  1  0.56697000  0.75150000  0.69398000  1.0 -0.1288491094
C  C427  1  0.56589000  0.76710000  0.65895000  1.0 0.0628662479
C  C428  1  0.53170000  0.76180000  0.63670000  1.0 0.2033700806
C  C429  1  0.53310000  0.76220000  0.59870000  1.0 -0.2501082759
C  C430  1  0.52860000  0.77400000  0.51980000  1.0 -0.093860214
C  C431  1  0.33380000  0.76950000  0.27980000  1.0 0.5966047387
C  C432  1  0.40269000  0.78360000  0.35567000  1.0 -0.1486860948
C  C433  1  0.37019000  0.78450000  0.33525000  1.0 -0.0983628915
C  C434  1  0.36912000  0.76880000  0.30022000  1.0 -0.0551193354
C  C435  1  0.40054000  0.75230000  0.28560000  1.0 -0.093860214
C  C436  1  0.43303000  0.75150000  0.30602000  1.0 -0.1288491094
C  C437  1  0.43411000  0.76710000  0.34105000  1.0 0.0628662479
C  C438  1  0.46830000  0.76180000  0.36330000  1.0 0.2033700806
C  C439  1  0.46690000  0.76220000  0.40130000  1.0 -0.2501082759
C  C440  1  0.47140000  0.77400000  0.48020000  1.0 -0.093860214
C  C441  1  0.23050000  0.27980000  0.66620000  1.0 0.5966047387
C  C442  1  0.21640000  0.35567000  0.59731000  1.0 -0.1486860948
C  C443  1  0.21550000  0.33525000  0.62981000  1.0 -0.0983628915
C  C444  1  0.23120000  0.30022000  0.63088000  1.0 -0.0551193354
C  C445  1  0.24770000  0.28560000  0.59946000  1.0 -0.093860214
C  C446  1  0.24850000  0.30602000  0.56697000  1.0 -0.1288491094
C  C447  1  0.23290000  0.34105000  0.56589000  1.0 0.0628662479
C  C448  1  0.23820000  0.36330000  0.53170000  1.0 0.2033700806
C  C449  1  0.23780000  0.40130000  0.53310000  1.0 -0.2501082759
C  C450  1  0.22600000  0.48020000  0.52860000  1.0 -0.093860214
C  C451  1  0.23050000  0.72020000  0.33380000  1.0 0.5966047387
C  C452  1  0.21640000  0.64433000  0.40269000  1.0 -0.1486860948
C  C453  1  0.21550000  0.66475000  0.37019000  1.0 -0.0983628915
C  C454  1  0.23120000  0.69978000  0.36912000  1.0 -0.0551193354
C  C455  1  0.24770000  0.71440000  0.40054000  1.0 -0.093860214
C  C456  1  0.24850000  0.69398000  0.43303000  1.0 -0.1288491094
C  C457  1  0.23290000  0.65895000  0.43411000  1.0 0.0628662479
C  C458  1  0.23820000  0.63670000  0.46830000  1.0 0.2033700806
C  C459  1  0.23780000  0.59870000  0.46690000  1.0 -0.2501082759
C  C460  1  0.22600000  0.51980000  0.47140000  1.0 -0.093860214
C  C461  1  0.76950000  0.27980000  0.33380000  1.0 0.5966047387
C  C462  1  0.78360000  0.35567000  0.40269000  1.0 -0.1486860948
C  C463  1  0.78450000  0.33525000  0.37019000  1.0 -0.0983628915
C  C464  1  0.76880000  0.30022000  0.36912000  1.0 -0.0547024083
C  C465  1  0.75230000  0.28560000  0.40054000  1.0 -0.093860214
C  C466  1  0.75150000  0.30602000  0.43303000  1.0 -0.1288491094
C  C467  1  0.76710000  0.34105000  0.43411000  1.0 0.0628662479
C  C468  1  0.76180000  0.36330000  0.46830000  1.0 0.2033700806
C  C469  1  0.76220000  0.40130000  0.46690000  1.0 -0.2501082759
C  C470  1  0.77400000  0.48020000  0.47140000  1.0 -0.093860214
C  C471  1  0.76950000  0.72020000  0.66620000  1.0 0.5966047387
C  C472  1  0.78360000  0.64433000  0.59731000  1.0 -0.1486860948
C  C473  1  0.78450000  0.66475000  0.62981000  1.0 -0.0983628915
C  C474  1  0.76880000  0.69978000  0.63088000  1.0 -0.0551193354
C  C475  1  0.75230000  0.71440000  0.59946000  1.0 -0.093860214
C  C476  1  0.75150000  0.69398000  0.56697000  1.0 -0.1288491094
C  C477  1  0.76710000  0.65895000  0.56589000  1.0 0.0628662479
C  C478  1  0.76180000  0.63670000  0.53170000  1.0 0.2033700806
C  C479  1  0.76220000  0.59870000  0.53310000  1.0 -0.2501082759
C  C480  1  0.77400000  0.51980000  0.52860000  1.0 -0.093860214
C  C481  1  0.00000000  0.03920000  0.25980000  1.0 0.0365804022
C  C482  1  0.00000000  0.08030000  0.25870000  1.0 0.1267089141
C  C483  1  0.00000000  0.96080000  0.25980000  1.0 0.0365804022
C  C484  1  0.00000000  0.91970000  0.25870000  1.0 0.1208272499
C  C485  1  0.00000000  0.03920000  0.74020000  1.0 0.0349903743
C  C486  1  0.00000000  0.08030000  0.74130000  1.0 0.1267089141
C  C487  1  0.00000000  0.96080000  0.74020000  1.0 0.0365804022
C  C488  1  0.00000000  0.91970000  0.74130000  1.0 0.1208272499
C  C489  1  0.25980000  0.00000000  0.03920000  1.0 0.0365804022
C  C490  1  0.25870000  0.00000000  0.08030000  1.0 0.1267089141
C  C491  1  0.25980000  0.00000000  0.96080000  1.0 0.0365804022
C  C492  1  0.25870000  0.00000000  0.91970000  1.0 0.1267089141
C  C493  1  0.74020000  0.00000000  0.03920000  1.0 0.0365804022
C  C494  1  0.74130000  0.00000000  0.08030000  1.0 0.1267089141
C  C495  1  0.74020000  0.00000000  0.96080000  1.0 0.0365804022
C  C496  1  0.74130000  0.00000000  0.91970000  1.0 0.1267089141
C  C497  1  0.03920000  0.25980000  0.00000000  1.0 0.0365804022
C  C498  1  0.08030000  0.25870000  0.00000000  1.0 0.1267089141
C  C499  1  0.96080000  0.25980000  0.00000000  1.0 0.0365804022
C  C500  1  0.91970000  0.25870000  0.00000000  1.0 0.1267089141
C  C501  1  0.03920000  0.74020000  0.00000000  1.0 0.0365804022
C  C502  1  0.08030000  0.74130000  0.00000000  1.0 0.1267089141
C  C503  1  0.96080000  0.74020000  0.00000000  1.0 0.0365804022
C  C504  1  0.91970000  0.74130000  0.00000000  1.0 0.1208272499
C  C505  1  0.53920000  0.50000000  0.24020000  1.0 0.0365804022
C  C506  1  0.58030000  0.50000000  0.24130000  1.0 0.1267089141
C  C507  1  0.46080000  0.50000000  0.24020000  1.0 0.0365804022
C  C508  1  0.41970000  0.50000000  0.24130000  1.0 0.1267089141
C  C509  1  0.53920000  0.50000000  0.75980000  1.0 0.0365804022
C  C510  1  0.58030000  0.50000000  0.75870000  1.0 0.1267089141
C  C511  1  0.46080000  0.50000000  0.75980000  1.0 0.0365804022
C  C512  1  0.41970000  0.50000000  0.75870000  1.0 0.1267089141
C  C513  1  0.50000000  0.75980000  0.46080000  1.0 0.0365804022
C  C514  1  0.50000000  0.75870000  0.41970000  1.0 0.1267089141
C  C515  1  0.50000000  0.75980000  0.53920000  1.0 0.0365804022
C  C516  1  0.50000000  0.75870000  0.58030000  1.0 0.1267089141
C  C517  1  0.50000000  0.24020000  0.46080000  1.0 0.0365804022
C  C518  1  0.50000000  0.24130000  0.41970000  1.0 0.1267089141
C  C519  1  0.50000000  0.24020000  0.53920000  1.0 0.0365804022
C  C520  1  0.50000000  0.24130000  0.58030000  1.0 0.1267089141
C  C521  1  0.75980000  0.53920000  0.50000000  1.0 0.0365804022
C  C522  1  0.75870000  0.58030000  0.50000000  1.0 0.1267089141
C  C523  1  0.75980000  0.46080000  0.50000000  1.0 0.0365804022
C  C524  1  0.75870000  0.41970000  0.50000000  1.0 0.1267089141
C  C525  1  0.24020000  0.53920000  0.50000000  1.0 0.0365804022
C  C526  1  0.24130000  0.58030000  0.50000000  1.0 0.1267089141
C  C527  1  0.24020000  0.46080000  0.50000000  1.0 0.0365804022
C  C528  1  0.24130000  0.41970000  0.50000000  1.0 0.1267089141
N  N1  1  0.00000000  0.15570000  0.26230000  1.0 -0.3458315583
N  N2  1  0.00000000  0.84430000  0.26230000  1.0 -0.3443144996
N  N3  1  0.00000000  0.15570000  0.73770000  1.0 -0.3443144996
N  N4  1  0.00000000  0.84430000  0.73770000  1.0 -0.3443144996
N  N5  1  0.26230000  0.00000000  0.15570000  1.0 -0.3458315583
N  N6  1  0.26230000  0.00000000  0.84430000  1.0 -0.3443144996
N  N7  1  0.73770000  0.00000000  0.15570000  1.0 -0.3458315583
N  N8  1  0.73770000  0.00000000  0.84430000  1.0 -0.3443144996
N  N9  1  0.15570000  0.26230000  0.00000000  1.0 -0.3458315583
N  N10  1  0.84430000  0.26230000  0.00000000  1.0 -0.3458315583
N  N11  1  0.15570000  0.73770000  0.00000000  1.0 -0.3458315583
N  N12  1  0.84430000  0.73770000  0.00000000  1.0 -0.3443144996
N  N13  1  0.65570000  0.50000000  0.23770000  1.0 -0.3458315583
N  N14  1  0.34430000  0.50000000  0.23770000  1.0 -0.3458315583
N  N15  1  0.65570000  0.50000000  0.76230000  1.0 -0.3443144996
N  N16  1  0.34430000  0.50000000  0.76230000  1.0 -0.3443144996
N  N17  1  0.50000000  0.76230000  0.34430000  1.0 -0.3458315583
N  N18  1  0.50000000  0.76230000  0.65570000  1.0 -0.3443144996
N  N19  1  0.50000000  0.23770000  0.34430000  1.0 -0.3458315583
N  N20  1  0.50000000  0.23770000  0.65570000  1.0 -0.3458315583
N  N21  1  0.76230000  0.65570000  0.50000000  1.0 -0.3458315583
N  N22  1  0.76230000  0.34430000  0.50000000  1.0 -0.3458315583
N  N23  1  0.23770000  0.65570000  0.50000000  1.0 -0.3458315583
N  N24  1  0.23770000  0.34430000  0.50000000  1.0 -0.3458315583
O  O1  1  0.16596000  0.24984000  0.25384000  1.0 -0.5342800624
O  O2  1  0.19177000  0.20636000  0.28951000  1.0 -0.5932166511
O  O3  1  0.83404000  0.75016000  0.25384000  1.0 -0.5351359618
O  O4  1  0.80823000  0.79364000  0.28951000  1.0 -0.5932166511
O  O5  1  0.83404000  0.24984000  0.74616000  1.0 -0.5342800624
O  O6  1  0.80823000  0.20636000  0.71049000  1.0 -0.5932166511
O  O7  1  0.16596000  0.75016000  0.74616000  1.0 -0.5342800624
O  O8  1  0.19177000  0.79364000  0.71049000  1.0 -0.5932166511
O  O9  1  0.25384000  0.16596000  0.24984000  1.0 -0.5342800624
O  O10  1  0.28951000  0.19177000  0.20636000  1.0 -0.5932166511
O  O11  1  0.25384000  0.83404000  0.75016000  1.0 -0.5342800624
O  O12  1  0.28951000  0.80823000  0.79364000  1.0 -0.5932166511
O  O13  1  0.74616000  0.83404000  0.24984000  1.0 -0.5342800624
O  O14  1  0.71049000  0.80823000  0.20636000  1.0 -0.5932166511
O  O15  1  0.74616000  0.16596000  0.75016000  1.0 -0.5342800624
O  O16  1  0.71049000  0.19177000  0.79364000  1.0 -0.5932166511
O  O17  1  0.24984000  0.25384000  0.16596000  1.0 -0.5342800624
O  O18  1  0.20636000  0.28951000  0.19177000  1.0 -0.5932166511
O  O19  1  0.75016000  0.25384000  0.83404000  1.0 -0.5351359618
O  O20  1  0.79364000  0.28951000  0.80823000  1.0 -0.5932166511
O  O21  1  0.24984000  0.74616000  0.83404000  1.0 -0.5342800624
O  O22  1  0.20636000  0.71049000  0.80823000  1.0 -0.5932166511
O  O23  1  0.75016000  0.74616000  0.16596000  1.0 -0.5342800624
O  O24  1  0.79364000  0.71049000  0.19177000  1.0 -0.5932166511
O  O25  1  0.74984000  0.66596000  0.24616000  1.0 -0.5351359618
O  O26  1  0.70636000  0.69177000  0.21049000  1.0 -0.5932166511
O  O27  1  0.25016000  0.33404000  0.24616000  1.0 -0.5342800624
O  O28  1  0.29364000  0.30823000  0.21049000  1.0 -0.5932166511
O  O29  1  0.74984000  0.33404000  0.75384000  1.0 -0.5342800624
O  O30  1  0.70636000  0.30823000  0.78951000  1.0 -0.5932166511
O  O31  1  0.25016000  0.66596000  0.75384000  1.0 -0.5342800624
O  O32  1  0.29364000  0.69177000  0.78951000  1.0 -0.5932166511
O  O33  1  0.66596000  0.75384000  0.25016000  1.0 -0.5342800624
O  O34  1  0.69177000  0.78951000  0.29364000  1.0 -0.5932166511
O  O35  1  0.33404000  0.75384000  0.74984000  1.0 -0.5342800624
O  O36  1  0.30823000  0.78951000  0.70636000  1.0 -0.5932166511
O  O37  1  0.33404000  0.24616000  0.25016000  1.0 -0.5342800624
O  O38  1  0.30823000  0.21049000  0.29364000  1.0 -0.5932166511
O  O39  1  0.66596000  0.24616000  0.74984000  1.0 -0.5342800624
O  O40  1  0.69177000  0.21049000  0.70636000  1.0 -0.5932166511
O  O41  1  0.75384000  0.74984000  0.33404000  1.0 -0.5342800624
O  O42  1  0.78951000  0.70636000  0.30823000  1.0 -0.5932166511
O  O43  1  0.75384000  0.25016000  0.66596000  1.0 -0.5342800624
O  O44  1  0.78951000  0.29364000  0.69177000  1.0 -0.5932166511
O  O45  1  0.24616000  0.74984000  0.66596000  1.0 -0.5342800624
O  O46  1  0.21049000  0.70636000  0.69177000  1.0 -0.5932166511
O  O47  1  0.24616000  0.25016000  0.33404000  1.0 -0.5342800624
O  O48  1  0.21049000  0.29364000  0.30823000  1.0 -0.5932166511
O  O49  1  0.83404000  0.75016000  0.74616000  1.0 -0.5342800624
O  O50  1  0.80823000  0.79364000  0.71049000  1.0 -0.5932166511
O  O51  1  0.16596000  0.24984000  0.74616000  1.0 -0.5342800624
O  O52  1  0.19177000  0.20636000  0.71049000  1.0 -0.5932166511
O  O53  1  0.16596000  0.75016000  0.25384000  1.0 -0.5342800624
O  O54  1  0.19177000  0.79364000  0.28951000  1.0 -0.5932166511
O  O55  1  0.83404000  0.24984000  0.25384000  1.0 -0.5351359618
O  O56  1  0.80823000  0.20636000  0.28951000  1.0 -0.5932166511
O  O57  1  0.74616000  0.83404000  0.75016000  1.0 -0.5342800624
O  O58  1  0.71049000  0.80823000  0.79364000  1.0 -0.5932166511
O  O59  1  0.74616000  0.16596000  0.24984000  1.0 -0.5342800624
O  O60  1  0.71049000  0.19177000  0.20636000  1.0 -0.5932166511
O  O61  1  0.25384000  0.16596000  0.75016000  1.0 -0.5342800624
O  O62  1  0.28951000  0.19177000  0.79364000  1.0 -0.5932166511
O  O63  1  0.25384000  0.83404000  0.24984000  1.0 -0.5351359618
O  O64  1  0.28951000  0.80823000  0.20636000  1.0 -0.5932166511
O  O65  1  0.75016000  0.74616000  0.83404000  1.0 -0.5342800624
O  O66  1  0.79364000  0.71049000  0.80823000  1.0 -0.5932166511
O  O67  1  0.24984000  0.74616000  0.16596000  1.0 -0.5342800624
O  O68  1  0.20636000  0.71049000  0.19177000  1.0 -0.5932166511
O  O69  1  0.75016000  0.25384000  0.16596000  1.0 -0.5342800624
O  O70  1  0.79364000  0.28951000  0.19177000  1.0 -0.5932166511
O  O71  1  0.24984000  0.25384000  0.83404000  1.0 -0.5342800624
O  O72  1  0.20636000  0.28951000  0.80823000  1.0 -0.5932166511
O  O73  1  0.25016000  0.33404000  0.75384000  1.0 -0.5342800624
O  O74  1  0.29364000  0.30823000  0.78951000  1.0 -0.5932166511
O  O75  1  0.74984000  0.66596000  0.75384000  1.0 -0.5342800624
O  O76  1  0.70636000  0.69177000  0.78951000  1.0 -0.5932166511
O  O77  1  0.25016000  0.66596000  0.24616000  1.0 -0.5351359618
O  O78  1  0.29364000  0.69177000  0.21049000  1.0 -0.5932166511
O  O79  1  0.74984000  0.33404000  0.24616000  1.0 -0.5342800624
O  O80  1  0.70636000  0.30823000  0.21049000  1.0 -0.5932166511
O  O81  1  0.33404000  0.24616000  0.74984000  1.0 -0.5342800624
O  O82  1  0.30823000  0.21049000  0.70636000  1.0 -0.5932166511
O  O83  1  0.66596000  0.24616000  0.25016000  1.0 -0.5351359618
O  O84  1  0.69177000  0.21049000  0.29364000  1.0 -0.5932166511
O  O85  1  0.66596000  0.75384000  0.74984000  1.0 -0.5342800624
O  O86  1  0.69177000  0.78951000  0.70636000  1.0 -0.5932166511
O  O87  1  0.33404000  0.75384000  0.25016000  1.0 -0.5342800624
O  O88  1  0.30823000  0.78951000  0.29364000  1.0 -0.5932166511
O  O89  1  0.24616000  0.25016000  0.66596000  1.0 -0.5342800624
O  O90  1  0.21049000  0.29364000  0.69177000  1.0 -0.5932166511
O  O91  1  0.24616000  0.74984000  0.33404000  1.0 -0.5342800624
O  O92  1  0.21049000  0.70636000  0.30823000  1.0 -0.5932166511
O  O93  1  0.75384000  0.25016000  0.33404000  1.0 -0.5342800624
O  O94  1  0.78951000  0.29364000  0.30823000  1.0 -0.5932166511
O  O95  1  0.75384000  0.74984000  0.66596000  1.0 -0.5342800624
O  O96  1  0.78951000  0.70636000  0.69177000  1.0 -0.5932166511
O  O97  1  0.25000000  0.25000000  0.25000000  1.0 -1.0766144168
O  O98  1  0.75000000  0.75000000  0.25000000  1.0 -1.0734788889
O  O99  1  0.75000000  0.25000000  0.75000000  1.0 -1.0734788889
O  O100  1  0.25000000  0.75000000  0.75000000  1.0 -1.0734788889
O  O101  1  0.75000000  0.75000000  0.75000000  1.0 -1.0734788889
O  O102  1  0.25000000  0.25000000  0.75000000  1.0 -1.0734788889
O  O103  1  0.25000000  0.75000000  0.25000000  1.0 -1.0734788889
O  O104  1  0.75000000  0.25000000  0.25000000  1.0 -1.0734788889
O  O105  1  0.16877000  0.33123000  0.25000000  1.0 -0.6659230364
O  O106  1  0.83123000  0.66877000  0.25000000  1.0 -0.6659230364
O  O107  1  0.83123000  0.33123000  0.75000000  1.0 -0.6659230364
O  O108  1  0.16877000  0.66877000  0.75000000  1.0 -0.6659230364
O  O109  1  0.25000000  0.16877000  0.33123000  1.0 -0.6659230364
O  O110  1  0.25000000  0.83123000  0.66877000  1.0 -0.6659230364
O  O111  1  0.75000000  0.83123000  0.33123000  1.0 -0.6659230364
O  O112  1  0.75000000  0.16877000  0.66877000  1.0 -0.6659230364
O  O113  1  0.33123000  0.25000000  0.16877000  1.0 -0.6659230364
O  O114  1  0.66877000  0.25000000  0.83123000  1.0 -0.6659230364
O  O115  1  0.33123000  0.75000000  0.83123000  1.0 -0.6659230364
O  O116  1  0.66877000  0.75000000  0.16877000  1.0 -0.6659230364
O  O117  1  0.83123000  0.66877000  0.75000000  1.0 -0.6659230364
O  O118  1  0.16877000  0.33123000  0.75000000  1.0 -0.6659230364
O  O119  1  0.16877000  0.66877000  0.25000000  1.0 -0.6659230364
O  O120  1  0.83123000  0.33123000  0.25000000  1.0 -0.6659230364
O  O121  1  0.75000000  0.83123000  0.66877000  1.0 -0.6659230364
O  O122  1  0.75000000  0.16877000  0.33123000  1.0 -0.6659230364
O  O123  1  0.25000000  0.16877000  0.66877000  1.0 -0.6659230364
O  O124  1  0.25000000  0.83123000  0.33123000  1.0 -0.6659230364
O  O125  1  0.66877000  0.75000000  0.83123000  1.0 -0.6659230364
O  O126  1  0.33123000  0.75000000  0.16877000  1.0 -0.6659230364
O  O127  1  0.66877000  0.25000000  0.16877000  1.0 -0.6659230364
O  O128  1  0.33123000  0.25000000  0.83123000  1.0 -0.6659230364
