# DDEC6 charges by PACMAN v1.1 (https://github.com/mtap-research/PACMAN-charge/)
data_oc7b00169_si_002_2_FSR_pacman
_symmetry_space_group_name_H-M   'P 1'
_cell_length_a   18.92000000
_cell_length_b   18.92000000
_cell_length_c   37.19000000
_cell_angle_alpha   90.00000000
_cell_angle_beta   90.00000000
_cell_angle_gamma   90.00000000
_symmetry_Int_Tables_number   1
_chemical_formula_structural   AlH8C14O5
_chemical_formula_sum   'Al16 H128 C224 O80'
_cell_volume   13312.77041600
_cell_formula_units_Z   16
loop_
 _symmetry_equiv_pos_site_id
 _symmetry_equiv_pos_as_xyz
  1  'x, y, z'
loop_
 _atom_site_type_symbol
 _atom_site_label
 _atom_site_symmetry_multiplicity
 _atom_site_fract_x
 _atom_site_fract_y
 _atom_site_fract_z
 _atom_site_occupancy
 _atom_site_charge
Al  Al1  1  0.66019000  0.33981000  0.50000000  1.0 1.6272524425
Al  Al2  1  0.16019000  0.16019000  0.00000000  1.0 1.6272524425
Al  Al3  1  0.33981000  0.66019000  0.50000000  1.0 1.6272524425
Al  Al4  1  0.83981000  0.83981000  0.00000000  1.0 1.6272524425
Al  Al5  1  0.63132000  0.40952000  0.41912000  1.0 1.6072711328
Al  Al6  1  0.09048000  0.13132000  0.91912000  1.0 1.6072711328
Al  Al7  1  0.36868000  0.59048000  0.41912000  1.0 1.6072711328
Al  Al8  1  0.90952000  0.86868000  0.91912000  1.0 1.6072711328
Al  Al9  1  0.13132000  0.09048000  0.08088000  1.0 1.6072711328
Al  Al10  1  0.86868000  0.90952000  0.08088000  1.0 1.6072711328
Al  Al11  1  0.40952000  0.63132000  0.58088000  1.0 1.6072711328
Al  Al12  1  0.59048000  0.36868000  0.58088000  1.0 1.6072711328
Al  Al13  1  0.50000000  0.50000000  0.38061000  1.0 1.6490234265
Al  Al14  1  0.00000000  0.00000000  0.88061000  1.0 1.6490234265
Al  Al15  1  0.00000000  0.00000000  0.11939000  1.0 1.6490234265
Al  Al16  1  0.50000000  0.50000000  0.61939000  1.0 1.6490234265
H  H1  1  0.80470000  0.67110000  0.17670000  1.0 0.1316856011
H  H2  1  0.82890000  0.30470000  0.67670000  1.0 0.1316856011
H  H3  1  0.19530000  0.32890000  0.17670000  1.0 0.1316856011
H  H4  1  0.17110000  0.69530000  0.67670000  1.0 0.1316856011
H  H5  1  0.30470000  0.82890000  0.32330000  1.0 0.1316856011
H  H6  1  0.69530000  0.17110000  0.32330000  1.0 0.1316856011
H  H7  1  0.67110000  0.80470000  0.82330000  1.0 0.1316856011
H  H8  1  0.32890000  0.19530000  0.82330000  1.0 0.1316856011
H  H9  1  0.81360000  0.63910000  0.04590000  1.0 0.1398052279
H  H10  1  0.86090000  0.31360000  0.54590000  1.0 0.1398052279
H  H11  1  0.18640000  0.36090000  0.04590000  1.0 0.1398052279
H  H12  1  0.13910000  0.68640000  0.54590000  1.0 0.1398052279
H  H13  1  0.31360000  0.86090000  0.45410000  1.0 0.1398052279
H  H14  1  0.68640000  0.13910000  0.45410000  1.0 0.1398052279
H  H15  1  0.63910000  0.81360000  0.95410000  1.0 0.1398052279
H  H16  1  0.36090000  0.18640000  0.95410000  1.0 0.1398052279
H  H17  1  0.81110000  0.76480000  0.12980000  1.0 0.1398052279
H  H18  1  0.73520000  0.31110000  0.62980000  1.0 0.1398052279
H  H19  1  0.18890000  0.23520000  0.12980000  1.0 0.1398052279
H  H20  1  0.26480000  0.68890000  0.62980000  1.0 0.1398052279
H  H21  1  0.31110000  0.73520000  0.37020000  1.0 0.1398052279
H  H22  1  0.68890000  0.26480000  0.37020000  1.0 0.1398052279
H  H23  1  0.76480000  0.81110000  0.87020000  1.0 0.1398052279
H  H24  1  0.23520000  0.18890000  0.87020000  1.0 0.1398052279
H  H25  1  0.81380000  0.53870000  0.09150000  1.0 0.1207213992
H  H26  1  0.96130000  0.31380000  0.59150000  1.0 0.1207213992
H  H27  1  0.18620000  0.46130000  0.09150000  1.0 0.1207213992
H  H28  1  0.03870000  0.68620000  0.59150000  1.0 0.1207213992
H  H29  1  0.31380000  0.96130000  0.40850000  1.0 0.1207213992
H  H30  1  0.68620000  0.03870000  0.40850000  1.0 0.1207213992
H  H31  1  0.53870000  0.81380000  0.90850000  1.0 0.1207213992
H  H32  1  0.46130000  0.18620000  0.90850000  1.0 0.1207213992
H  H33  1  0.60090000  0.52100000  0.28370000  1.0 0.1316856011
H  H34  1  0.97900000  0.10090000  0.78370000  1.0 0.1316856011
H  H35  1  0.39910000  0.47900000  0.28370000  1.0 0.1316856011
H  H36  1  0.02100000  0.89910000  0.78370000  1.0 0.1316856011
H  H37  1  0.10090000  0.97900000  0.21630000  1.0 0.1316856011
H  H38  1  0.89910000  0.02100000  0.21630000  1.0 0.1316856011
H  H39  1  0.52100000  0.60090000  0.71630000  1.0 0.1316856011
H  H40  1  0.47900000  0.39910000  0.71630000  1.0 0.1316856011
H  H41  1  0.88340000  0.16700000  0.14810000  1.0 0.152657018
H  H42  1  0.33300000  0.38340000  0.64810000  1.0 0.1555021955
H  H43  1  0.11660000  0.83300000  0.14810000  1.0 0.152657018
H  H44  1  0.66700000  0.61660000  0.64810000  1.0 0.1555021955
H  H45  1  0.38340000  0.33300000  0.35190000  1.0 0.152657018
H  H46  1  0.61660000  0.66700000  0.35190000  1.0 0.1555021955
H  H47  1  0.16700000  0.88340000  0.85190000  1.0 0.1555021955
H  H48  1  0.83300000  0.11660000  0.85190000  1.0 0.1555021955
H  H49  1  0.04890000  0.29170000  0.11460000  1.0 0.1207213992
H  H50  1  0.20830000  0.54890000  0.61460000  1.0 0.1207213992
H  H51  1  0.95110000  0.70830000  0.11460000  1.0 0.1207213992
H  H52  1  0.79170000  0.45110000  0.61460000  1.0 0.1207213992
H  H53  1  0.54890000  0.20830000  0.38540000  1.0 0.1207213992
H  H54  1  0.45110000  0.79170000  0.38540000  1.0 0.1207213992
H  H55  1  0.29170000  0.04890000  0.88540000  1.0 0.1207213992
H  H56  1  0.70830000  0.95110000  0.88540000  1.0 0.1207213992
H  H57  1  0.75530000  0.39950000  0.32410000  1.0 0.1398052279
H  H58  1  0.10050000  0.25530000  0.82410000  1.0 0.1398052279
H  H59  1  0.24470000  0.60050000  0.32410000  1.0 0.1398052279
H  H60  1  0.89950000  0.74470000  0.82410000  1.0 0.1398052279
H  H61  1  0.25530000  0.10050000  0.17590000  1.0 0.1398052279
H  H62  1  0.74470000  0.89950000  0.17590000  1.0 0.1398052279
H  H63  1  0.39950000  0.75530000  0.67590000  1.0 0.1398052279
H  H64  1  0.60050000  0.24470000  0.67590000  1.0 0.1398052279
H  H65  1  0.81770000  0.40510000  0.27610000  1.0 0.1316856011
H  H66  1  0.09490000  0.31770000  0.77610000  1.0 0.1316856011
H  H67  1  0.18230000  0.59490000  0.27610000  1.0 0.1316856011
H  H68  1  0.90510000  0.68230000  0.77610000  1.0 0.1316856011
H  H69  1  0.31770000  0.09490000  0.22390000  1.0 0.1316856011
H  H70  1  0.68230000  0.90510000  0.22390000  1.0 0.1316856011
H  H71  1  0.40510000  0.81770000  0.72390000  1.0 0.1316856011
H  H72  1  0.59490000  0.18230000  0.72390000  1.0 0.1316856011
H  H73  1  0.66990000  0.52710000  0.22790000  1.0 0.1207213992
H  H74  1  0.97290000  0.16990000  0.72790000  1.0 0.1207213992
H  H75  1  0.33010000  0.47290000  0.22790000  1.0 0.1207213992
H  H76  1  0.02710000  0.83010000  0.72790000  1.0 0.1207213992
H  H77  1  0.16990000  0.97290000  0.27210000  1.0 0.1207213992
H  H78  1  0.83010000  0.02710000  0.27210000  1.0 0.1207213992
H  H79  1  0.52710000  0.66990000  0.77210000  1.0 0.1207213992
H  H80  1  0.47290000  0.33010000  0.77210000  1.0 0.1207213992
H  H81  1  0.75840000  0.56790000  0.18960000  1.0 0.1207213992
H  H82  1  0.93210000  0.25840000  0.68960000  1.0 0.1207213992
H  H83  1  0.24160000  0.43210000  0.18960000  1.0 0.1207213992
H  H84  1  0.06790000  0.74160000  0.68960000  1.0 0.1207213992
H  H85  1  0.25840000  0.93210000  0.31040000  1.0 0.1207213992
H  H86  1  0.74160000  0.06790000  0.31040000  1.0 0.1207213992
H  H87  1  0.56790000  0.75840000  0.81040000  1.0 0.1316856011
H  H88  1  0.43210000  0.24160000  0.81040000  1.0 0.1316856011
H  H89  1  0.98610000  0.39730000  0.13480000  1.0 0.111138825
H  H90  1  0.10270000  0.48610000  0.63480000  1.0 0.111138825
H  H91  1  0.01390000  0.60270000  0.13480000  1.0 0.111138825
H  H92  1  0.89730000  0.51390000  0.63480000  1.0 0.111138825
H  H93  1  0.48610000  0.10270000  0.36520000  1.0 0.111138825
H  H94  1  0.51390000  0.89730000  0.36520000  1.0 0.111138825
H  H95  1  0.39730000  0.98610000  0.86520000  1.0 0.111138825
H  H96  1  0.60270000  0.01390000  0.86520000  1.0 0.111138825
H  H97  1  0.82870000  0.28030000  0.17350000  1.0 0.1207213992
H  H98  1  0.21970000  0.32870000  0.67350000  1.0 0.1207213992
H  H99  1  0.17130000  0.71970000  0.17350000  1.0 0.1207213992
H  H100  1  0.78030000  0.67130000  0.67350000  1.0 0.1207213992
H  H101  1  0.32870000  0.21970000  0.32650000  1.0 0.1207213992
H  H102  1  0.67130000  0.78030000  0.32650000  1.0 0.1207213992
H  H103  1  0.28030000  0.82870000  0.82650000  1.0 0.1207213992
H  H104  1  0.71970000  0.17130000  0.82650000  1.0 0.1207213992
H  H105  1  0.88350000  0.46970000  0.12400000  1.0 0.1316856011
H  H106  1  0.03030000  0.38350000  0.62400000  1.0 0.1316856011
H  H107  1  0.11650000  0.53030000  0.12400000  1.0 0.1316856011
H  H108  1  0.96970000  0.61650000  0.62400000  1.0 0.1316856011
H  H109  1  0.38350000  0.03030000  0.37600000  1.0 0.1316856011
H  H110  1  0.61650000  0.96970000  0.37600000  1.0 0.1316856011
H  H111  1  0.46970000  0.88350000  0.87600000  1.0 0.1316856011
H  H112  1  0.53030000  0.11650000  0.87600000  1.0 0.1316856011
H  H113  1  0.82730000  0.36650000  0.21490000  1.0 0.1207213992
H  H114  1  0.13350000  0.32730000  0.71490000  1.0 0.1207213992
H  H115  1  0.17270000  0.63350000  0.21490000  1.0 0.1207213992
H  H116  1  0.86650000  0.67270000  0.71490000  1.0 0.1207213992
H  H117  1  0.32730000  0.13350000  0.28510000  1.0 0.1207213992
H  H118  1  0.67270000  0.86650000  0.28510000  1.0 0.1207213992
H  H119  1  0.36650000  0.82730000  0.78510000  1.0 0.1207213992
H  H120  1  0.63350000  0.17270000  0.78510000  1.0 0.1207213992
H  H121  1  0.76300000  0.50320000  0.46140000  1.0 0.152657018
H  H122  1  0.99680000  0.26300000  0.96140000  1.0 0.1555021955
H  H123  1  0.23700000  0.49680000  0.46140000  1.0 0.152657018
H  H124  1  0.00320000  0.73700000  0.96140000  1.0 0.152657018
H  H125  1  0.26300000  0.99680000  0.03860000  1.0 0.152657018
H  H126  1  0.73700000  0.00320000  0.03860000  1.0 0.152657018
H  H127  1  0.50320000  0.76300000  0.53860000  1.0 0.152657018
H  H128  1  0.49680000  0.23700000  0.53860000  1.0 0.152657018
C  C1  1  0.62770000  0.46420000  0.34220000  1.0 0.6013521904
C  C2  1  0.03580000  0.12770000  0.84220000  1.0 0.6013521904
C  C3  1  0.37230000  0.53580000  0.34220000  1.0 0.6013521904
C  C4  1  0.96420000  0.87230000  0.84220000  1.0 0.6013521904
C  C5  1  0.12770000  0.03580000  0.15780000  1.0 0.6013521904
C  C6  1  0.87230000  0.96420000  0.15780000  1.0 0.6013521904
C  C7  1  0.46420000  0.62770000  0.65780000  1.0 0.6013521904
C  C8  1  0.53580000  0.37230000  0.65780000  1.0 0.6013521904
C  C9  1  0.80820000  0.66170000  0.15220000  1.0 -0.166566849
C  C10  1  0.83830000  0.30820000  0.65220000  1.0 -0.166566849
C  C11  1  0.19180000  0.33830000  0.15220000  1.0 -0.166566849
C  C12  1  0.16170000  0.69180000  0.65220000  1.0 -0.166566849
C  C13  1  0.30820000  0.83830000  0.34780000  1.0 -0.166566849
C  C14  1  0.69180000  0.16170000  0.34780000  1.0 -0.166566849
C  C15  1  0.66170000  0.80820000  0.84780000  1.0 -0.166566849
C  C16  1  0.33830000  0.19180000  0.84780000  1.0 -0.166566849
C  C17  1  0.80960000  0.64620000  0.07050000  1.0 -0.0378257402
C  C18  1  0.85380000  0.30960000  0.57050000  1.0 -0.0378257402
C  C19  1  0.19040000  0.35380000  0.07050000  1.0 -0.0378257402
C  C20  1  0.14620000  0.69040000  0.57050000  1.0 -0.0378257402
C  C21  1  0.30960000  0.85380000  0.42950000  1.0 -0.0378257402
C  C22  1  0.69040000  0.14620000  0.42950000  1.0 -0.0378257402
C  C23  1  0.64620000  0.80960000  0.92950000  1.0 -0.0378257402
C  C24  1  0.35380000  0.19040000  0.92950000  1.0 -0.0300285818
C  C25  1  0.01190000  0.15400000  0.11390000  1.0 0.592288954
C  C26  1  0.34600000  0.51190000  0.61390000  1.0 0.592288954
C  C27  1  0.98810000  0.84600000  0.11390000  1.0 0.592288954
C  C28  1  0.65400000  0.48810000  0.61390000  1.0 0.592288954
C  C29  1  0.51190000  0.34600000  0.38610000  1.0 0.592288954
C  C30  1  0.48810000  0.65400000  0.38610000  1.0 0.592288954
C  C31  1  0.15400000  0.01190000  0.88610000  1.0 0.592288954
C  C32  1  0.84600000  0.98810000  0.88610000  1.0 0.592288954
C  C33  1  0.80620000  0.71880000  0.12140000  1.0 -0.0240982342
C  C34  1  0.78120000  0.30620000  0.62140000  1.0 -0.0240982342
C  C35  1  0.19380000  0.28120000  0.12140000  1.0 -0.0240982342
C  C36  1  0.21880000  0.69380000  0.62140000  1.0 -0.0240982342
C  C37  1  0.30620000  0.78120000  0.37860000  1.0 -0.0300285818
C  C38  1  0.69380000  0.21880000  0.37860000  1.0 -0.0240982342
C  C39  1  0.71880000  0.80620000  0.87860000  1.0 -0.0240982342
C  C40  1  0.28120000  0.19380000  0.87860000  1.0 -0.0240982342
C  C41  1  0.81330000  0.58520000  0.09960000  1.0 -0.1330543125
C  C42  1  0.91480000  0.31330000  0.59960000  1.0 -0.1330543125
C  C43  1  0.18670000  0.41480000  0.09960000  1.0 -0.1330543125
C  C44  1  0.08520000  0.68670000  0.59960000  1.0 -0.1330543125
C  C45  1  0.31330000  0.91480000  0.40040000  1.0 -0.1330543125
C  C46  1  0.68670000  0.08520000  0.40040000  1.0 -0.1330543125
C  C47  1  0.58520000  0.81330000  0.90040000  1.0 -0.1330543125
C  C48  1  0.41480000  0.18670000  0.90040000  1.0 -0.1330543125
C  C49  1  0.79920000  0.71550000  0.08770000  1.0 -0.0985994099
C  C50  1  0.78450000  0.29920000  0.58770000  1.0 -0.0985994099
C  C51  1  0.20080000  0.28450000  0.08770000  1.0 -0.0985994099
C  C52  1  0.21550000  0.70080000  0.58770000  1.0 -0.0985994099
C  C53  1  0.29920000  0.78450000  0.41230000  1.0 -0.0985994099
C  C54  1  0.70080000  0.21550000  0.41230000  1.0 -0.0985994099
C  C55  1  0.71550000  0.79920000  0.91230000  1.0 -0.0985994099
C  C56  1  0.28450000  0.20080000  0.91230000  1.0 -0.0985994099
C  C57  1  0.80040000  0.77420000  0.06640000  1.0 0.5536847072
C  C58  1  0.72580000  0.30040000  0.56640000  1.0 0.5536847072
C  C59  1  0.19960000  0.22580000  0.06640000  1.0 0.5536847072
C  C60  1  0.27420000  0.69960000  0.56640000  1.0 0.5536847072
C  C61  1  0.30040000  0.72580000  0.43360000  1.0 0.5536847072
C  C62  1  0.69960000  0.27420000  0.43360000  1.0 0.5536847072
C  C63  1  0.77420000  0.80040000  0.93360000  1.0 0.5551493892
C  C64  1  0.22580000  0.19960000  0.93360000  1.0 0.5536847072
C  C65  1  0.97180000  0.22430000  0.12910000  1.0 0.0027167216
C  C66  1  0.27570000  0.47180000  0.62910000  1.0 0.0027167216
C  C67  1  0.02820000  0.77570000  0.12910000  1.0 0.0027167216
C  C68  1  0.72430000  0.52820000  0.62910000  1.0 0.0027167216
C  C69  1  0.47180000  0.27570000  0.37090000  1.0 0.0027167216
C  C70  1  0.52820000  0.72430000  0.37090000  1.0 0.0027167216
C  C71  1  0.22430000  0.97180000  0.87090000  1.0 0.0027167216
C  C72  1  0.77570000  0.02820000  0.87090000  1.0 0.0027167216
C  C73  1  0.64410000  0.49810000  0.28160000  1.0 -0.0890007263
C  C74  1  0.00190000  0.14410000  0.78160000  1.0 -0.0890007263
C  C75  1  0.35590000  0.50190000  0.28160000  1.0 -0.0890007263
C  C76  1  0.99810000  0.85590000  0.78160000  1.0 -0.0890007263
C  C77  1  0.14410000  0.00190000  0.21840000  1.0 -0.0890007263
C  C78  1  0.85590000  0.99810000  0.21840000  1.0 -0.0890007263
C  C79  1  0.49810000  0.64410000  0.71840000  1.0 -0.0890007263
C  C80  1  0.50190000  0.35590000  0.71840000  1.0 -0.0890007263
C  C81  1  0.81580000  0.59770000  0.13750000  1.0 0.0505374633
C  C82  1  0.90230000  0.31580000  0.63750000  1.0 0.0505374633
C  C83  1  0.18420000  0.40230000  0.13750000  1.0 0.0505374633
C  C84  1  0.09770000  0.68420000  0.63750000  1.0 0.0505374633
C  C85  1  0.31580000  0.90230000  0.36250000  1.0 0.0505374633
C  C86  1  0.68420000  0.09770000  0.36250000  1.0 0.0505374633
C  C87  1  0.59770000  0.81580000  0.86250000  1.0 0.0505374633
C  C88  1  0.40230000  0.18420000  0.86250000  1.0 0.0505374633
C  C89  1  0.74850000  0.46120000  0.24680000  1.0 0.0586811018
C  C90  1  0.03880000  0.24850000  0.74680000  1.0 0.0586811018
C  C91  1  0.25150000  0.53880000  0.24680000  1.0 0.0586811018
C  C92  1  0.96120000  0.75150000  0.74680000  1.0 0.0586811018
C  C93  1  0.24850000  0.03880000  0.25320000  1.0 0.0586811018
C  C94  1  0.75150000  0.96120000  0.25320000  1.0 0.0586811018
C  C95  1  0.46120000  0.74850000  0.75320000  1.0 0.0586811018
C  C96  1  0.53880000  0.25150000  0.75320000  1.0 0.0586811018
C  C97  1  0.90440000  0.21130000  0.14620000  1.0 -0.0985994099
C  C98  1  0.28870000  0.40440000  0.64620000  1.0 -0.0985994099
C  C99  1  0.09560000  0.78870000  0.14620000  1.0 -0.0985994099
C  C100  1  0.71130000  0.59560000  0.64620000  1.0 -0.0985994099
C  C101  1  0.40440000  0.28870000  0.35380000  1.0 -0.0985994099
C  C102  1  0.59560000  0.71130000  0.35380000  1.0 -0.0985994099
C  C103  1  0.21130000  0.90440000  0.85380000  1.0 -0.0985994099
C  C104  1  0.78870000  0.09560000  0.85380000  1.0 -0.0985994099
C  C105  1  0.78960000  0.46950000  0.21180000  1.0 0.1207213992
C  C106  1  0.03050000  0.28960000  0.71180000  1.0 0.1207213992
C  C107  1  0.21040000  0.53050000  0.21180000  1.0 0.1207213992
C  C108  1  0.96950000  0.71040000  0.71180000  1.0 0.1207213992
C  C109  1  0.28960000  0.03050000  0.28820000  1.0 0.1207213992
C  C110  1  0.71040000  0.96950000  0.28820000  1.0 0.1207213992
C  C111  1  0.46950000  0.78960000  0.78820000  1.0 0.1207213992
C  C112  1  0.53050000  0.21040000  0.78820000  1.0 0.1207213992
C  C113  1  0.67170000  0.46090000  0.30950000  1.0 -0.0378257402
C  C114  1  0.03910000  0.17170000  0.80950000  1.0 -0.0378257402
C  C115  1  0.32830000  0.53910000  0.30950000  1.0 -0.0378257402
C  C116  1  0.96090000  0.82830000  0.80950000  1.0 -0.0378257402
C  C117  1  0.17170000  0.03910000  0.19050000  1.0 -0.0378257402
C  C118  1  0.82830000  0.96090000  0.19050000  1.0 -0.0378257402
C  C119  1  0.46090000  0.67170000  0.69050000  1.0 -0.0378257402
C  C120  1  0.53910000  0.32830000  0.69050000  1.0 -0.0378257402
C  C121  1  0.00450000  0.28840000  0.12520000  1.0 -0.0890007263
C  C122  1  0.21160000  0.50450000  0.62520000  1.0 -0.0890007263
C  C123  1  0.99550000  0.71160000  0.12520000  1.0 -0.0890007263
C  C124  1  0.78840000  0.49550000  0.62520000  1.0 -0.0890007263
C  C125  1  0.50450000  0.21160000  0.37480000  1.0 -0.0890007263
C  C126  1  0.49550000  0.78840000  0.37480000  1.0 -0.0890007263
C  C127  1  0.28840000  0.00450000  0.87480000  1.0 -0.0890007263
C  C128  1  0.71160000  0.99550000  0.87480000  1.0 -0.0890007263
C  C129  1  0.73790000  0.42550000  0.30480000  1.0 -0.0773741773
C  C130  1  0.07450000  0.23790000  0.80480000  1.0 -0.0773741773
C  C131  1  0.26210000  0.57450000  0.30480000  1.0 -0.0773741773
C  C132  1  0.92550000  0.76210000  0.80480000  1.0 -0.0773741773
C  C133  1  0.23790000  0.07450000  0.19520000  1.0 -0.0773741773
C  C134  1  0.76210000  0.92550000  0.19520000  1.0 -0.0773741773
C  C135  1  0.42550000  0.73790000  0.69520000  1.0 -0.0773741773
C  C136  1  0.57450000  0.26210000  0.69520000  1.0 -0.0773741773
C  C137  1  0.77380000  0.42710000  0.27680000  1.0 -0.1196928855
C  C138  1  0.07290000  0.27380000  0.77680000  1.0 -0.1196928855
C  C139  1  0.22620000  0.57290000  0.27680000  1.0 -0.1196928855
C  C140  1  0.92710000  0.72620000  0.77680000  1.0 -0.1196928855
C  C141  1  0.27380000  0.07290000  0.22320000  1.0 -0.1196928855
C  C142  1  0.72620000  0.92710000  0.22320000  1.0 -0.1196928855
C  C143  1  0.42710000  0.77380000  0.72320000  1.0 -0.1196928855
C  C144  1  0.57290000  0.22620000  0.72320000  1.0 -0.1196928855
C  C145  1  0.90610000  0.34420000  0.15540000  1.0 0.0505374633
C  C146  1  0.15580000  0.40610000  0.65540000  1.0 0.0505374633
C  C147  1  0.09390000  0.65580000  0.15540000  1.0 0.0505374633
C  C148  1  0.84420000  0.59390000  0.65540000  1.0 0.0505374633
C  C149  1  0.40610000  0.15580000  0.34460000  1.0 0.0505374633
C  C150  1  0.59390000  0.84420000  0.34460000  1.0 0.0505374633
C  C151  1  0.34420000  0.90610000  0.84460000  1.0 0.0505374633
C  C152  1  0.65580000  0.09390000  0.84460000  1.0 0.0505374633
C  C153  1  0.68510000  0.50080000  0.24760000  1.0 -0.163929241
C  C154  1  0.99920000  0.18510000  0.74760000  1.0 -0.163929241
C  C155  1  0.31490000  0.49920000  0.24760000  1.0 -0.163929241
C  C156  1  0.00080000  0.81490000  0.74760000  1.0 -0.163929241
C  C157  1  0.18510000  0.99920000  0.25240000  1.0 -0.163929241
C  C158  1  0.81490000  0.00080000  0.25240000  1.0 -0.163929241
C  C159  1  0.50080000  0.68510000  0.75240000  1.0 -0.163929241
C  C160  1  0.49920000  0.31490000  0.75240000  1.0 -0.163929241
C  C161  1  0.78870000  0.53020000  0.18510000  1.0 -0.2126146985
C  C162  1  0.96980000  0.28870000  0.68510000  1.0 -0.2126146985
C  C163  1  0.21130000  0.46980000  0.18510000  1.0 -0.2126146985
C  C164  1  0.03020000  0.71130000  0.68510000  1.0 -0.2126146985
C  C165  1  0.28870000  0.96980000  0.31490000  1.0 -0.2126146985
C  C166  1  0.71130000  0.03020000  0.31490000  1.0 -0.2126146985
C  C167  1  0.53020000  0.78870000  0.81490000  1.0 -0.2126146985
C  C168  1  0.46980000  0.21130000  0.81490000  1.0 -0.2126146985
C  C169  1  0.96710000  0.35250000  0.13840000  1.0 -0.1413546896
C  C170  1  0.14750000  0.46710000  0.63840000  1.0 -0.1413546896
C  C171  1  0.03290000  0.64750000  0.13840000  1.0 -0.1413546896
C  C172  1  0.85250000  0.53290000  0.63840000  1.0 -0.1413546896
C  C173  1  0.46710000  0.14750000  0.36160000  1.0 -0.1413546896
C  C174  1  0.53290000  0.85250000  0.36160000  1.0 -0.1413546896
C  C175  1  0.35250000  0.96710000  0.86160000  1.0 -0.1413546896
C  C176  1  0.64750000  0.03290000  0.86160000  1.0 -0.1413546896
C  C177  1  0.87350000  0.41040000  0.17010000  1.0 0.1207213992
C  C178  1  0.08960000  0.37350000  0.67010000  1.0 0.1207213992
C  C179  1  0.12650000  0.58960000  0.17010000  1.0 0.1207213992
C  C180  1  0.91040000  0.62650000  0.67010000  1.0 0.1207213992
C  C181  1  0.37350000  0.08960000  0.32990000  1.0 0.1207213992
C  C182  1  0.62650000  0.91040000  0.32990000  1.0 0.1207213992
C  C183  1  0.41040000  0.87350000  0.82990000  1.0 0.1207213992
C  C184  1  0.58960000  0.12650000  0.82990000  1.0 0.1207213992
C  C185  1  0.87130000  0.28130000  0.16100000  1.0 -0.1413546896
C  C186  1  0.21870000  0.37130000  0.66100000  1.0 -0.1413546896
C  C187  1  0.12870000  0.71870000  0.16100000  1.0 -0.1413546896
C  C188  1  0.78130000  0.62870000  0.66100000  1.0 -0.1413546896
C  C189  1  0.37130000  0.21870000  0.33900000  1.0 -0.1413546896
C  C190  1  0.62870000  0.78130000  0.33900000  1.0 -0.1413546896
C  C191  1  0.28130000  0.87130000  0.83900000  1.0 -0.1413546896
C  C192  1  0.71870000  0.12870000  0.83900000  1.0 -0.1413546896
C  C193  1  0.82720000  0.53230000  0.15690000  1.0 0.0921325923
C  C194  1  0.96770000  0.32720000  0.65690000  1.0 0.0921325923
C  C195  1  0.17280000  0.46770000  0.15690000  1.0 0.0921325923
C  C196  1  0.03230000  0.67280000  0.65690000  1.0 0.0921325923
C  C197  1  0.32720000  0.96770000  0.34310000  1.0 0.0921325923
C  C198  1  0.67280000  0.03230000  0.34310000  1.0 0.0921325923
C  C199  1  0.53230000  0.82720000  0.84310000  1.0 0.0921325923
C  C200  1  0.46770000  0.17280000  0.84310000  1.0 0.0921325923
C  C201  1  0.86390000  0.47130000  0.14700000  1.0 -0.2272211483
C  C202  1  0.02870000  0.36390000  0.64700000  1.0 -0.2272211483
C  C203  1  0.13610000  0.52870000  0.14700000  1.0 -0.2272211483
C  C204  1  0.97130000  0.63610000  0.64700000  1.0 -0.2272211483
C  C205  1  0.36390000  0.02870000  0.35300000  1.0 -0.2272211483
C  C206  1  0.63610000  0.97130000  0.35300000  1.0 -0.2272211483
C  C207  1  0.47130000  0.86390000  0.85300000  1.0 -0.2272211483
C  C208  1  0.52870000  0.13610000  0.85300000  1.0 -0.2272211483
C  C209  1  0.82990000  0.40770000  0.20130000  1.0 -0.2358402873
C  C210  1  0.09230000  0.32990000  0.70130000  1.0 -0.2358402873
C  C211  1  0.17010000  0.59230000  0.20130000  1.0 -0.2358402873
C  C212  1  0.90770000  0.67010000  0.70130000  1.0 -0.2358402873
C  C213  1  0.32990000  0.09230000  0.29870000  1.0 -0.2358402873
C  C214  1  0.67010000  0.90770000  0.29870000  1.0 -0.2358402873
C  C215  1  0.40770000  0.82990000  0.79870000  1.0 -0.2358402873
C  C216  1  0.59230000  0.17010000  0.79870000  1.0 -0.2358402873
C  C217  1  0.73110000  0.46640000  0.45800000  1.0 0.4342408507
C  C218  1  0.03360000  0.23110000  0.95800000  1.0 0.4342408507
C  C219  1  0.26890000  0.53360000  0.45800000  1.0 0.4342408507
C  C220  1  0.96640000  0.76890000  0.95800000  1.0 0.4342408507
C  C221  1  0.23110000  0.03360000  0.04200000  1.0 0.4365964064
C  C222  1  0.76890000  0.96640000  0.04200000  1.0 0.4365964064
C  C223  1  0.46640000  0.73110000  0.54200000  1.0 0.4342408507
C  C224  1  0.53360000  0.26890000  0.54200000  1.0 0.4342408507
O  O1  1  0.56711000  0.48370000  0.41636000  1.0 -0.7686904839
O  O2  1  0.01630000  0.06711000  0.91636000  1.0 -0.7796510926
O  O3  1  0.43289000  0.51630000  0.41636000  1.0 -0.7686904839
O  O4  1  0.98370000  0.93289000  0.91636000  1.0 -0.7796510926
O  O5  1  0.06711000  0.01630000  0.08364000  1.0 -0.7686904839
O  O6  1  0.93289000  0.98370000  0.08364000  1.0 -0.7686904839
O  O7  1  0.48370000  0.56711000  0.58364000  1.0 -0.7796510926
O  O8  1  0.51630000  0.43289000  0.58364000  1.0 -0.7796510926
O  O9  1  0.66410000  0.43040000  0.37050000  1.0 -0.6190026572
O  O10  1  0.06960000  0.16410000  0.87050000  1.0 -0.6129057279
O  O11  1  0.33590000  0.56960000  0.37050000  1.0 -0.6190026572
O  O12  1  0.93040000  0.83590000  0.87050000  1.0 -0.6129057279
O  O13  1  0.16410000  0.06960000  0.12950000  1.0 -0.6129057279
O  O14  1  0.83590000  0.93040000  0.12950000  1.0 -0.6129057279
O  O15  1  0.43040000  0.66410000  0.62950000  1.0 -0.6129057279
O  O16  1  0.56960000  0.33590000  0.62950000  1.0 -0.6129057279
O  O17  1  0.60316000  0.38326000  0.46291000  1.0 -0.8068027964
O  O18  1  0.11674000  0.10316000  0.96291000  1.0 -0.8068027964
O  O19  1  0.39684000  0.61674000  0.46291000  1.0 -0.8068027964
O  O20  1  0.88326000  0.89684000  0.96291000  1.0 -0.8028889965
O  O21  1  0.10316000  0.11674000  0.03709000  1.0 -0.8068027964
O  O22  1  0.89684000  0.88326000  0.03709000  1.0 -0.8068027964
O  O23  1  0.38326000  0.60316000  0.53709000  1.0 -0.8028889965
O  O24  1  0.61674000  0.39684000  0.53709000  1.0 -0.8028889965
O  O25  1  0.56700000  0.48610000  0.34289000  1.0 -0.5295966471
O  O26  1  0.01390000  0.06700000  0.84289000  1.0 -0.5221756477
O  O27  1  0.43300000  0.51390000  0.34289000  1.0 -0.5295966471
O  O28  1  0.98610000  0.93300000  0.84289000  1.0 -0.5221756477
O  O29  1  0.06700000  0.01390000  0.15711000  1.0 -0.5295966471
O  O30  1  0.93300000  0.98610000  0.15711000  1.0 -0.5221756477
O  O31  1  0.48610000  0.56700000  0.65711000  1.0 -0.5221756477
O  O32  1  0.51390000  0.43300000  0.65711000  1.0 -0.5221756477
O  O33  1  0.80066000  0.83860000  0.08543000  1.0 -0.5814362934
O  O34  1  0.66140000  0.30066000  0.58543000  1.0 -0.5814362934
O  O35  1  0.19934000  0.16140000  0.08543000  1.0 -0.5814362934
O  O36  1  0.33860000  0.69934000  0.58543000  1.0 -0.5814362934
O  O37  1  0.30066000  0.66140000  0.41457000  1.0 -0.5814362934
O  O38  1  0.69934000  0.33860000  0.41457000  1.0 -0.5814362934
O  O39  1  0.83860000  0.80066000  0.91457000  1.0 -0.5814362934
O  O40  1  0.16140000  0.19934000  0.91457000  1.0 -0.5814362934
O  O41  1  0.73561000  0.40784000  0.49010000  1.0 -0.5814362934
O  O42  1  0.09216000  0.23561000  0.99010000  1.0 -0.5814362934
O  O43  1  0.26439000  0.59216000  0.49010000  1.0 -0.5814362934
O  O44  1  0.90784000  0.76439000  0.99010000  1.0 -0.5814362934
O  O45  1  0.23561000  0.09216000  0.00990000  1.0 -0.5814362934
O  O46  1  0.76439000  0.90784000  0.00990000  1.0 -0.5814362934
O  O47  1  0.40784000  0.73561000  0.50990000  1.0 -0.5814362934
O  O48  1  0.59216000  0.26439000  0.50990000  1.0 -0.5814362934
O  O49  1  0.06650000  0.15950000  0.10067000  1.0 -0.4839970341
O  O50  1  0.34050000  0.56650000  0.60067000  1.0 -0.487499105
O  O51  1  0.93350000  0.84050000  0.10067000  1.0 -0.4839970341
O  O52  1  0.65950000  0.43350000  0.60067000  1.0 -0.487499105
O  O53  1  0.56650000  0.34050000  0.39933000  1.0 -0.4839970341
O  O54  1  0.43350000  0.65950000  0.39933000  1.0 -0.4839970341
O  O55  1  0.15950000  0.06650000  0.89933000  1.0 -0.487499105
O  O56  1  0.84050000  0.93350000  0.89933000  1.0 -0.487499105
O  O57  1  0.97300000  0.09750000  0.12222000  1.0 -0.5221756477
O  O58  1  0.40250000  0.47300000  0.62222000  1.0 -0.5221756477
O  O59  1  0.02700000  0.90250000  0.12222000  1.0 -0.5221756477
O  O60  1  0.59750000  0.52700000  0.62222000  1.0 -0.5221756477
O  O61  1  0.47300000  0.40250000  0.37778000  1.0 -0.5221756477
O  O62  1  0.52700000  0.59750000  0.37778000  1.0 -0.5221756477
O  O63  1  0.09750000  0.97300000  0.87778000  1.0 -0.5221756477
O  O64  1  0.90250000  0.02700000  0.87778000  1.0 -0.5221756477
O  O65  1  0.80220000  0.77370000  0.03640000  1.0 -0.5003117269
O  O66  1  0.72630000  0.30220000  0.53640000  1.0 -0.5003117269
O  O67  1  0.19780000  0.22630000  0.03640000  1.0 -0.5003117269
O  O68  1  0.27370000  0.69780000  0.53640000  1.0 -0.5003117269
O  O69  1  0.30220000  0.72630000  0.46360000  1.0 -0.5003117269
O  O70  1  0.69780000  0.27370000  0.46360000  1.0 -0.5003117269
O  O71  1  0.77370000  0.80220000  0.96360000  1.0 -0.5003117269
O  O72  1  0.22630000  0.19780000  0.96360000  1.0 -0.5003117269
O  O73  1  0.70080000  0.47340000  0.43390000  1.0 -0.5295966471
O  O74  1  0.02660000  0.20080000  0.93390000  1.0 -0.5295966471
O  O75  1  0.29920000  0.52660000  0.43390000  1.0 -0.5295966471
O  O76  1  0.97340000  0.79920000  0.93390000  1.0 -0.5295966471
O  O77  1  0.20080000  0.02660000  0.06610000  1.0 -0.5387625566
O  O78  1  0.79920000  0.97340000  0.06610000  1.0 -0.5387625566
O  O79  1  0.47340000  0.70080000  0.56610000  1.0 -0.5295966471
O  O80  1  0.52660000  0.29920000  0.56610000  1.0 -0.5295966471
