# DDEC6 charges by PACMAN v1.1 (https://github.com/mtap-research/PACMAN-charge/)
data_c9cc04555d2_2_FSR_pacman
_symmetry_space_group_name_H-M   'P 1'
_cell_length_a   21.98340000
_cell_length_b   21.98340000
_cell_length_c   21.98340000
_cell_angle_alpha   90.00000000
_cell_angle_beta   90.00000000
_cell_angle_gamma   90.00000000
_symmetry_Int_Tables_number   1
_chemical_formula_structural   Fe3H15C24N3O16
_chemical_formula_sum   'Fe24 H120 C192 N24 O128'
_cell_volume   10623.91498239
_cell_formula_units_Z   8
loop_
 _symmetry_equiv_pos_site_id
 _symmetry_equiv_pos_as_xyz
  1  'x, y, z'
loop_
 _atom_site_type_symbol
 _atom_site_label
 _atom_site_symmetry_multiplicity
 _atom_site_fract_x
 _atom_site_fract_y
 _atom_site_fract_z
 _atom_site_occupancy
 _atom_site_charge
Fe  Fe1  1  0.76116000  0.82041000  0.69675000  1.0 1.2543105867
Fe  Fe2  1  0.32041000  0.73884000  0.80325000  1.0 1.2543105867
Fe  Fe3  1  0.23884000  0.17959000  0.69675000  1.0 1.2543105867
Fe  Fe4  1  0.67959000  0.26116000  0.80325000  1.0 1.2543105867
Fe  Fe5  1  0.73884000  0.19675000  0.67959000  1.0 1.2543105867
Fe  Fe6  1  0.76116000  0.17959000  0.30325000  1.0 1.2543105867
Fe  Fe7  1  0.73884000  0.80325000  0.32041000  1.0 1.2558805106
Fe  Fe8  1  0.80325000  0.67959000  0.26116000  1.0 1.2558805106
Fe  Fe9  1  0.23884000  0.82041000  0.30325000  1.0 1.2543105867
Fe  Fe10  1  0.19675000  0.67959000  0.73884000  1.0 1.2543105867
Fe  Fe11  1  0.69675000  0.76116000  0.82041000  1.0 1.2543105867
Fe  Fe12  1  0.82041000  0.69675000  0.76116000  1.0 1.2543105867
Fe  Fe13  1  0.17959000  0.30325000  0.76116000  1.0 1.2543105867
Fe  Fe14  1  0.69675000  0.23884000  0.17959000  1.0 1.2543105867
Fe  Fe15  1  0.17959000  0.69675000  0.23884000  1.0 1.2543105867
Fe  Fe16  1  0.30325000  0.23884000  0.82041000  1.0 1.2543105867
Fe  Fe17  1  0.30325000  0.76116000  0.17959000  1.0 1.2543105867
Fe  Fe18  1  0.82041000  0.30325000  0.23884000  1.0 1.2543105867
Fe  Fe19  1  0.67959000  0.73884000  0.19675000  1.0 1.2558805106
Fe  Fe20  1  0.32041000  0.26116000  0.19675000  1.0 1.2543105867
Fe  Fe21  1  0.26116000  0.80325000  0.67959000  1.0 1.2543105867
Fe  Fe22  1  0.26116000  0.19675000  0.32041000  1.0 1.2543105867
Fe  Fe23  1  0.80325000  0.32041000  0.73884000  1.0 1.2543105867
Fe  Fe24  1  0.19675000  0.32041000  0.26116000  1.0 1.2543105867
H  H1  1  0.50913000  0.77569000  0.74629000  1.0 0.1223581255
H  H2  1  0.27569000  0.99087000  0.75371000  1.0 0.1223581255
H  H3  1  0.49087000  0.22431000  0.74629000  1.0 0.1223581255
H  H4  1  0.72431000  0.00913000  0.75371000  1.0 0.1223581255
H  H5  1  0.99087000  0.24629000  0.72431000  1.0 0.1223581255
H  H6  1  0.50913000  0.22431000  0.25371000  1.0 0.1223581255
H  H7  1  0.99087000  0.75371000  0.27569000  1.0 0.1223581255
H  H8  1  0.75371000  0.72431000  0.00913000  1.0 0.1223581255
H  H9  1  0.49087000  0.77569000  0.25371000  1.0 0.1223581255
H  H10  1  0.24629000  0.72431000  0.99087000  1.0 0.1223581255
H  H11  1  0.74629000  0.50913000  0.77569000  1.0 0.1223581255
H  H12  1  0.77569000  0.74629000  0.50913000  1.0 0.1223581255
H  H13  1  0.22431000  0.25371000  0.50913000  1.0 0.1223581255
H  H14  1  0.74629000  0.49087000  0.22431000  1.0 0.1223581255
H  H15  1  0.22431000  0.74629000  0.49087000  1.0 0.1223581255
H  H16  1  0.25371000  0.49087000  0.77569000  1.0 0.1223581255
H  H17  1  0.25371000  0.50913000  0.22431000  1.0 0.1223581255
H  H18  1  0.77569000  0.25371000  0.49087000  1.0 0.1223581255
H  H19  1  0.72431000  0.99087000  0.24629000  1.0 0.1223581255
H  H20  1  0.27569000  0.00913000  0.24629000  1.0 0.1223581255
H  H21  1  0.00913000  0.75371000  0.72431000  1.0 0.1223581255
H  H22  1  0.00913000  0.24629000  0.27569000  1.0 0.1223581255
H  H23  1  0.75371000  0.27569000  0.99087000  1.0 0.1223581255
H  H24  1  0.24629000  0.27569000  0.00913000  1.0 0.1223581255
H  H25  1  0.60687000  0.81170000  0.59295000  1.0 0.1283255873
H  H26  1  0.31170000  0.89313000  0.90705000  1.0 0.1283255873
H  H27  1  0.39313000  0.18830000  0.59295000  1.0 0.1283255873
H  H28  1  0.68830000  0.10687000  0.90705000  1.0 0.1283255873
H  H29  1  0.89313000  0.09295000  0.68830000  1.0 0.1283255873
H  H30  1  0.60687000  0.18830000  0.40705000  1.0 0.1283255873
H  H31  1  0.89313000  0.90705000  0.31170000  1.0 0.1283255873
H  H32  1  0.90705000  0.68830000  0.10687000  1.0 0.1283255873
H  H33  1  0.39313000  0.81170000  0.40705000  1.0 0.1283255873
H  H34  1  0.09295000  0.68830000  0.89313000  1.0 0.1283255873
H  H35  1  0.59295000  0.60687000  0.81170000  1.0 0.1283255873
H  H36  1  0.81170000  0.59295000  0.60687000  1.0 0.1283255873
H  H37  1  0.18830000  0.40705000  0.60687000  1.0 0.1283255873
H  H38  1  0.59295000  0.39313000  0.18830000  1.0 0.1283255873
H  H39  1  0.18830000  0.59295000  0.39313000  1.0 0.1283255873
H  H40  1  0.40705000  0.39313000  0.81170000  1.0 0.1283255873
H  H41  1  0.40705000  0.60687000  0.18830000  1.0 0.1283255873
H  H42  1  0.81170000  0.40705000  0.39313000  1.0 0.1283255873
H  H43  1  0.68830000  0.89313000  0.09295000  1.0 0.1283255873
H  H44  1  0.31170000  0.10687000  0.09295000  1.0 0.1283255873
H  H45  1  0.10687000  0.90705000  0.68830000  1.0 0.1283255873
H  H46  1  0.10687000  0.09295000  0.31170000  1.0 0.1283255873
H  H47  1  0.90705000  0.31170000  0.89313000  1.0 0.1283255873
H  H48  1  0.09295000  0.31170000  0.10687000  1.0 0.1283255873
H  H49  1  0.42321000  0.79739000  0.58387000  1.0 0.1223581255
H  H50  1  0.29739000  0.07679000  0.91613000  1.0 0.1223581255
H  H51  1  0.57679000  0.20261000  0.58387000  1.0 0.1223581255
H  H52  1  0.70261000  0.92321000  0.91613000  1.0 0.1223581255
H  H53  1  0.07679000  0.08387000  0.70261000  1.0 0.1223581255
H  H54  1  0.42321000  0.20261000  0.41613000  1.0 0.1223581255
H  H55  1  0.07679000  0.91613000  0.29739000  1.0 0.1223581255
H  H56  1  0.91613000  0.70261000  0.92321000  1.0 0.1223581255
H  H57  1  0.57679000  0.79739000  0.41613000  1.0 0.1223581255
H  H58  1  0.08387000  0.70261000  0.07679000  1.0 0.1223581255
H  H59  1  0.58387000  0.42321000  0.79739000  1.0 0.1223581255
H  H60  1  0.79739000  0.58387000  0.42321000  1.0 0.1223581255
H  H61  1  0.20261000  0.41613000  0.42321000  1.0 0.1223581255
H  H62  1  0.58387000  0.57679000  0.20261000  1.0 0.1223581255
H  H63  1  0.20261000  0.58387000  0.57679000  1.0 0.1223581255
H  H64  1  0.41613000  0.57679000  0.79739000  1.0 0.1223581255
H  H65  1  0.41613000  0.42321000  0.20261000  1.0 0.1223581255
H  H66  1  0.79739000  0.41613000  0.57679000  1.0 0.1223581255
H  H67  1  0.70261000  0.07679000  0.08387000  1.0 0.1223581255
H  H68  1  0.29739000  0.92321000  0.08387000  1.0 0.1223581255
H  H69  1  0.92321000  0.91613000  0.70261000  1.0 0.1223581255
H  H70  1  0.92321000  0.08387000  0.29739000  1.0 0.1223581255
H  H71  1  0.91613000  0.29739000  0.07679000  1.0 0.1223581255
H  H72  1  0.08387000  0.29739000  0.92321000  1.0 0.1223581255
H  H73  1  0.76725000  0.92689000  0.63179000  1.0 0.3942453006
H  H74  1  0.42689000  0.73275000  0.86821000  1.0 0.3942453006
H  H75  1  0.23275000  0.07311000  0.63179000  1.0 0.3942453006
H  H76  1  0.57311000  0.26725000  0.86821000  1.0 0.3942453006
H  H77  1  0.73275000  0.13179000  0.57311000  1.0 0.3942453006
H  H78  1  0.76725000  0.07311000  0.36821000  1.0 0.3942453006
H  H79  1  0.73275000  0.86821000  0.42689000  1.0 0.3942453006
H  H80  1  0.86821000  0.57311000  0.26725000  1.0 0.3942453006
H  H81  1  0.23275000  0.92689000  0.36821000  1.0 0.3942453006
H  H82  1  0.13179000  0.57311000  0.73275000  1.0 0.3942453006
H  H83  1  0.63179000  0.76725000  0.92689000  1.0 0.3942453006
H  H84  1  0.92689000  0.63179000  0.76725000  1.0 0.3942453006
H  H85  1  0.07311000  0.36821000  0.76725000  1.0 0.3942453006
H  H86  1  0.63179000  0.23275000  0.07311000  1.0 0.3942453006
H  H87  1  0.07311000  0.63179000  0.23275000  1.0 0.3942453006
H  H88  1  0.36821000  0.23275000  0.92689000  1.0 0.3942453006
H  H89  1  0.36821000  0.76725000  0.07311000  1.0 0.3942453006
H  H90  1  0.92689000  0.36821000  0.23275000  1.0 0.3942453006
H  H91  1  0.57311000  0.73275000  0.13179000  1.0 0.3942453006
H  H92  1  0.42689000  0.26725000  0.13179000  1.0 0.3942453006
H  H93  1  0.26725000  0.86821000  0.57311000  1.0 0.3942453006
H  H94  1  0.26725000  0.13179000  0.42689000  1.0 0.3942453006
H  H95  1  0.86821000  0.42689000  0.73275000  1.0 0.3942453006
H  H96  1  0.13179000  0.42689000  0.26725000  1.0 0.3942453006
H  H97  1  0.76046000  0.88039000  0.58739000  1.0 0.3942453006
H  H98  1  0.38039000  0.73954000  0.91261000  1.0 0.3942453006
H  H99  1  0.23954000  0.11961000  0.58739000  1.0 0.3942453006
H  H100  1  0.61961000  0.26046000  0.91261000  1.0 0.3942453006
H  H101  1  0.73954000  0.08739000  0.61961000  1.0 0.3942453006
H  H102  1  0.76046000  0.11961000  0.41261000  1.0 0.3942453006
H  H103  1  0.73954000  0.91261000  0.38039000  1.0 0.3942453006
H  H104  1  0.91261000  0.61961000  0.26046000  1.0 0.3942453006
H  H105  1  0.23954000  0.88039000  0.41261000  1.0 0.3942453006
H  H106  1  0.08739000  0.61961000  0.73954000  1.0 0.3942453006
H  H107  1  0.58739000  0.76046000  0.88039000  1.0 0.3942453006
H  H108  1  0.88039000  0.58739000  0.76046000  1.0 0.3942453006
H  H109  1  0.11961000  0.41261000  0.76046000  1.0 0.3942453006
H  H110  1  0.58739000  0.23954000  0.11961000  1.0 0.3942453006
H  H111  1  0.11961000  0.58739000  0.23954000  1.0 0.3942453006
H  H112  1  0.41261000  0.23954000  0.88039000  1.0 0.3942453006
H  H113  1  0.41261000  0.76046000  0.11961000  1.0 0.3942453006
H  H114  1  0.88039000  0.41261000  0.23954000  1.0 0.3942453006
H  H115  1  0.61961000  0.73954000  0.08739000  1.0 0.3942453006
H  H116  1  0.38039000  0.26046000  0.08739000  1.0 0.3942453006
H  H117  1  0.26046000  0.91261000  0.61961000  1.0 0.3942453006
H  H118  1  0.26046000  0.08739000  0.38039000  1.0 0.3942453006
H  H119  1  0.91261000  0.38039000  0.73954000  1.0 0.3942453006
H  H120  1  0.08739000  0.38039000  0.26046000  1.0 0.3942453006
C  C1  1  0.39615000  0.77807000  0.69781000  1.0 0.6011995222
C  C2  1  0.27807000  0.10385000  0.80219000  1.0 0.6011995222
C  C3  1  0.60385000  0.22193000  0.69781000  1.0 0.6011995222
C  C4  1  0.72193000  0.89615000  0.80219000  1.0 0.6011995222
C  C5  1  0.10385000  0.19781000  0.72193000  1.0 0.6011995222
C  C6  1  0.39615000  0.22193000  0.30219000  1.0 0.6011995222
C  C7  1  0.10385000  0.80219000  0.27807000  1.0 0.6011995222
C  C8  1  0.80219000  0.72193000  0.89615000  1.0 0.6011995222
C  C9  1  0.60385000  0.77807000  0.30219000  1.0 0.6011995222
C  C10  1  0.19781000  0.72193000  0.10385000  1.0 0.6011995222
C  C11  1  0.69781000  0.39615000  0.77807000  1.0 0.6011995222
C  C12  1  0.77807000  0.69781000  0.39615000  1.0 0.6011995222
C  C13  1  0.22193000  0.30219000  0.39615000  1.0 0.6011995222
C  C14  1  0.69781000  0.60385000  0.22193000  1.0 0.6011995222
C  C15  1  0.22193000  0.69781000  0.60385000  1.0 0.6011995222
C  C16  1  0.30219000  0.60385000  0.77807000  1.0 0.6011995222
C  C17  1  0.30219000  0.39615000  0.22193000  1.0 0.6011995222
C  C18  1  0.77807000  0.30219000  0.60385000  1.0 0.6011995222
C  C19  1  0.72193000  0.10385000  0.19781000  1.0 0.6011995222
C  C20  1  0.27807000  0.89615000  0.19781000  1.0 0.6011995222
C  C21  1  0.89615000  0.80219000  0.72193000  1.0 0.6011995222
C  C22  1  0.89615000  0.19781000  0.27807000  1.0 0.6011995222
C  C23  1  0.80219000  0.27807000  0.10385000  1.0 0.6011995222
C  C24  1  0.19781000  0.27807000  0.89615000  1.0 0.6011995222
C  C25  1  0.51108000  0.78370000  0.70386000  1.0 -0.1433960737
C  C26  1  0.28370000  0.98892000  0.79614000  1.0 -0.1433960737
C  C27  1  0.48892000  0.21630000  0.70386000  1.0 -0.1433960737
C  C28  1  0.71630000  0.01108000  0.79614000  1.0 -0.1433960737
C  C29  1  0.98892000  0.20386000  0.71630000  1.0 -0.1433960737
C  C30  1  0.51108000  0.21630000  0.29614000  1.0 -0.1433960737
C  C31  1  0.98892000  0.79614000  0.28370000  1.0 -0.1433960737
C  C32  1  0.79614000  0.71630000  0.01108000  1.0 -0.1433960737
C  C33  1  0.48892000  0.78370000  0.29614000  1.0 -0.1433960737
C  C34  1  0.20386000  0.71630000  0.98892000  1.0 -0.1433960737
C  C35  1  0.70386000  0.51108000  0.78370000  1.0 -0.1433960737
C  C36  1  0.78370000  0.70386000  0.51108000  1.0 -0.1433960737
C  C37  1  0.21630000  0.29614000  0.51108000  1.0 -0.1433960737
C  C38  1  0.70386000  0.48892000  0.21630000  1.0 -0.1433960737
C  C39  1  0.21630000  0.70386000  0.48892000  1.0 -0.1433960737
C  C40  1  0.29614000  0.48892000  0.78370000  1.0 -0.1433960737
C  C41  1  0.29614000  0.51108000  0.21630000  1.0 -0.1433960737
C  C42  1  0.78370000  0.29614000  0.48892000  1.0 -0.1433960737
C  C43  1  0.71630000  0.98892000  0.20386000  1.0 -0.1433960737
C  C44  1  0.28370000  0.01108000  0.20386000  1.0 -0.1433960737
C  C45  1  0.01108000  0.79614000  0.71630000  1.0 -0.1433960737
C  C46  1  0.01108000  0.20386000  0.28370000  1.0 -0.1433960737
C  C47  1  0.79614000  0.28370000  0.98892000  1.0 -0.1433960737
C  C48  1  0.20386000  0.28370000  0.01108000  1.0 -0.1433960737
C  C49  1  0.62557000  0.79360000  0.70993000  1.0 0.6011995222
C  C50  1  0.29360000  0.87443000  0.79007000  1.0 0.6011995222
C  C51  1  0.37443000  0.20640000  0.70993000  1.0 0.6011995222
C  C52  1  0.70640000  0.12557000  0.79007000  1.0 0.6011995222
C  C53  1  0.87443000  0.20993000  0.70640000  1.0 0.6011995222
C  C54  1  0.62557000  0.20640000  0.29007000  1.0 0.6011995222
C  C55  1  0.87443000  0.79007000  0.29360000  1.0 0.6011995222
C  C56  1  0.79007000  0.70640000  0.12557000  1.0 0.6011995222
C  C57  1  0.37443000  0.79360000  0.29007000  1.0 0.6011995222
C  C58  1  0.20993000  0.70640000  0.87443000  1.0 0.6011995222
C  C59  1  0.70993000  0.62557000  0.79360000  1.0 0.6011995222
C  C60  1  0.79360000  0.70993000  0.62557000  1.0 0.6011995222
C  C61  1  0.20640000  0.29007000  0.62557000  1.0 0.6011995222
C  C62  1  0.70993000  0.37443000  0.20640000  1.0 0.6011995222
C  C63  1  0.20640000  0.70993000  0.37443000  1.0 0.6011995222
C  C64  1  0.29007000  0.37443000  0.79360000  1.0 0.6011995222
C  C65  1  0.29007000  0.62557000  0.20640000  1.0 0.6011995222
C  C66  1  0.79360000  0.29007000  0.37443000  1.0 0.6011995222
C  C67  1  0.70640000  0.87443000  0.20993000  1.0 0.6011995222
C  C68  1  0.29360000  0.12557000  0.20993000  1.0 0.6011995222
C  C69  1  0.12557000  0.79007000  0.70640000  1.0 0.6011995222
C  C70  1  0.12557000  0.20993000  0.29360000  1.0 0.6011995222
C  C71  1  0.79007000  0.29360000  0.87443000  1.0 0.6011995222
C  C72  1  0.20993000  0.29360000  0.12557000  1.0 0.6011995222
C  C73  1  0.56751000  0.79320000  0.67538000  1.0 -0.019824167
C  C74  1  0.29320000  0.93249000  0.82462000  1.0 -0.019824167
C  C75  1  0.43249000  0.20680000  0.67538000  1.0 -0.019824167
C  C76  1  0.70680000  0.06751000  0.82462000  1.0 -0.019824167
C  C77  1  0.93249000  0.17538000  0.70680000  1.0 -0.019824167
C  C78  1  0.56751000  0.20680000  0.32462000  1.0 -0.019824167
C  C79  1  0.93249000  0.82462000  0.29320000  1.0 -0.019824167
C  C80  1  0.82462000  0.70680000  0.06751000  1.0 -0.019824167
C  C81  1  0.43249000  0.79320000  0.32462000  1.0 -0.019824167
C  C82  1  0.17538000  0.70680000  0.93249000  1.0 -0.019824167
C  C83  1  0.67538000  0.56751000  0.79320000  1.0 -0.019824167
C  C84  1  0.79320000  0.67538000  0.56751000  1.0 -0.019824167
C  C85  1  0.20680000  0.32462000  0.56751000  1.0 -0.019824167
C  C86  1  0.67538000  0.43249000  0.20680000  1.0 -0.019824167
C  C87  1  0.20680000  0.67538000  0.43249000  1.0 -0.019824167
C  C88  1  0.32462000  0.43249000  0.79320000  1.0 -0.019824167
C  C89  1  0.32462000  0.56751000  0.20680000  1.0 -0.019824167
C  C90  1  0.79320000  0.32462000  0.43249000  1.0 -0.019824167
C  C91  1  0.70680000  0.93249000  0.17538000  1.0 -0.019824167
C  C92  1  0.29320000  0.06751000  0.17538000  1.0 -0.019824167
C  C93  1  0.06751000  0.82462000  0.70680000  1.0 -0.019824167
C  C94  1  0.06751000  0.17538000  0.29320000  1.0 -0.019824167
C  C95  1  0.82462000  0.29320000  0.93249000  1.0 -0.019824167
C  C96  1  0.17538000  0.29320000  0.06751000  1.0 -0.019824167
C  C97  1  0.56922000  0.80310000  0.61240000  1.0 -0.1592810841
C  C98  1  0.30310000  0.93078000  0.88760000  1.0 -0.1592810841
C  C99  1  0.43078000  0.19690000  0.61240000  1.0 -0.1592810841
C  C100  1  0.69690000  0.06922000  0.88760000  1.0 -0.1592810841
C  C101  1  0.93078000  0.11240000  0.69690000  1.0 -0.1592810841
C  C102  1  0.56922000  0.19690000  0.38760000  1.0 -0.1592810841
C  C103  1  0.93078000  0.88760000  0.30310000  1.0 -0.1592810841
C  C104  1  0.88760000  0.69690000  0.06922000  1.0 -0.1592810841
C  C105  1  0.43078000  0.80310000  0.38760000  1.0 -0.1592810841
C  C106  1  0.11240000  0.69690000  0.93078000  1.0 -0.1592810841
C  C107  1  0.61240000  0.56922000  0.80310000  1.0 -0.1592810841
C  C108  1  0.80310000  0.61240000  0.56922000  1.0 -0.1592810841
C  C109  1  0.19690000  0.38760000  0.56922000  1.0 -0.1592810841
C  C110  1  0.61240000  0.43078000  0.19690000  1.0 -0.1592810841
C  C111  1  0.19690000  0.61240000  0.43078000  1.0 -0.1592810841
C  C112  1  0.38760000  0.43078000  0.80310000  1.0 -0.1592810841
C  C113  1  0.38760000  0.56922000  0.19690000  1.0 -0.1592810841
C  C114  1  0.80310000  0.38760000  0.43078000  1.0 -0.1592810841
C  C115  1  0.69690000  0.93078000  0.11240000  1.0 -0.1592810841
C  C116  1  0.30310000  0.06922000  0.11240000  1.0 -0.1592810841
C  C117  1  0.06922000  0.88760000  0.69690000  1.0 -0.1592810841
C  C118  1  0.06922000  0.11240000  0.30310000  1.0 -0.1592810841
C  C119  1  0.88760000  0.30310000  0.93078000  1.0 -0.1592810841
C  C120  1  0.11240000  0.30310000  0.06922000  1.0 -0.1592810841
C  C121  1  0.45743000  0.78610000  0.66889000  1.0 -0.019824167
C  C122  1  0.28610000  0.04257000  0.83111000  1.0 -0.019824167
C  C123  1  0.54257000  0.21390000  0.66889000  1.0 -0.019824167
C  C124  1  0.71390000  0.95743000  0.83111000  1.0 -0.019824167
C  C125  1  0.04257000  0.16889000  0.71390000  1.0 -0.019824167
C  C126  1  0.45743000  0.21390000  0.33111000  1.0 -0.019824167
C  C127  1  0.04257000  0.83111000  0.28610000  1.0 -0.019824167
C  C128  1  0.83111000  0.71390000  0.95743000  1.0 -0.019824167
C  C129  1  0.54257000  0.78610000  0.33111000  1.0 -0.019824167
C  C130  1  0.16889000  0.71390000  0.04257000  1.0 -0.019824167
C  C131  1  0.66889000  0.45743000  0.78610000  1.0 -0.019824167
C  C132  1  0.78610000  0.66889000  0.45743000  1.0 -0.019824167
C  C133  1  0.21390000  0.33111000  0.45743000  1.0 -0.019824167
C  C134  1  0.66889000  0.54257000  0.21390000  1.0 -0.019824167
C  C135  1  0.21390000  0.66889000  0.54257000  1.0 -0.019824167
C  C136  1  0.33111000  0.54257000  0.78610000  1.0 -0.019824167
C  C137  1  0.33111000  0.45743000  0.21390000  1.0 -0.019824167
C  C138  1  0.78610000  0.33111000  0.54257000  1.0 -0.019824167
C  C139  1  0.71390000  0.04257000  0.16889000  1.0 -0.019824167
C  C140  1  0.28610000  0.95743000  0.16889000  1.0 -0.019824167
C  C141  1  0.95743000  0.83111000  0.71390000  1.0 -0.019824167
C  C142  1  0.95743000  0.16889000  0.28610000  1.0 -0.019824167
C  C143  1  0.83111000  0.28610000  0.04257000  1.0 -0.019824167
C  C144  1  0.16889000  0.28610000  0.95743000  1.0 -0.019824167
C  C145  1  0.45964000  0.79500000  0.60700000  1.0 -0.1506396648
C  C146  1  0.29500000  0.04036000  0.89300000  1.0 -0.1506396648
C  C147  1  0.54036000  0.20500000  0.60700000  1.0 -0.1506396648
C  C148  1  0.70500000  0.95964000  0.89300000  1.0 -0.1506396648
C  C149  1  0.04036000  0.10700000  0.70500000  1.0 -0.1506396648
C  C150  1  0.45964000  0.20500000  0.39300000  1.0 -0.1506396648
C  C151  1  0.04036000  0.89300000  0.29500000  1.0 -0.1506396648
C  C152  1  0.89300000  0.70500000  0.95964000  1.0 -0.1506396648
C  C153  1  0.54036000  0.79500000  0.39300000  1.0 -0.1506396648
C  C154  1  0.10700000  0.70500000  0.04036000  1.0 -0.1506396648
C  C155  1  0.60700000  0.45964000  0.79500000  1.0 -0.1506396648
C  C156  1  0.79500000  0.60700000  0.45964000  1.0 -0.1506396648
C  C157  1  0.20500000  0.39300000  0.45964000  1.0 -0.1506396648
C  C158  1  0.60700000  0.54036000  0.20500000  1.0 -0.1506396648
C  C159  1  0.20500000  0.60700000  0.54036000  1.0 -0.1506396648
C  C160  1  0.39300000  0.54036000  0.79500000  1.0 -0.1506396648
C  C161  1  0.39300000  0.45964000  0.20500000  1.0 -0.1506396648
C  C162  1  0.79500000  0.39300000  0.54036000  1.0 -0.1506396648
C  C163  1  0.70500000  0.04036000  0.10700000  1.0 -0.1506396648
C  C164  1  0.29500000  0.95964000  0.10700000  1.0 -0.1506396648
C  C165  1  0.95964000  0.89300000  0.70500000  1.0 -0.1506396648
C  C166  1  0.95964000  0.10700000  0.29500000  1.0 -0.1506396648
C  C167  1  0.89300000  0.29500000  0.04036000  1.0 -0.1506396648
C  C168  1  0.10700000  0.29500000  0.95964000  1.0 -0.1506396648
C  C169  1  0.51650000  0.80050000  0.57850000  1.0 0.1539394646
C  C170  1  0.30050000  0.98350000  0.92150000  1.0 0.1539394646
C  C171  1  0.48350000  0.19950000  0.57850000  1.0 0.1539394646
C  C172  1  0.69950000  0.01650000  0.92150000  1.0 0.1539394646
C  C173  1  0.98350000  0.07850000  0.69950000  1.0 0.1539394646
C  C174  1  0.51650000  0.19950000  0.42150000  1.0 0.1539394646
C  C175  1  0.98350000  0.92150000  0.30050000  1.0 0.1539394646
C  C176  1  0.92150000  0.69950000  0.01650000  1.0 0.1539394646
C  C177  1  0.48350000  0.80050000  0.42150000  1.0 0.1539394646
C  C178  1  0.07850000  0.69950000  0.98350000  1.0 0.1539394646
C  C179  1  0.57850000  0.51650000  0.80050000  1.0 0.1539394646
C  C180  1  0.80050000  0.57850000  0.51650000  1.0 0.1539394646
C  C181  1  0.19950000  0.42150000  0.51650000  1.0 0.1539394646
C  C182  1  0.57850000  0.48350000  0.19950000  1.0 0.1539394646
C  C183  1  0.19950000  0.57850000  0.48350000  1.0 0.1539394646
C  C184  1  0.42150000  0.48350000  0.80050000  1.0 0.1539394646
C  C185  1  0.42150000  0.51650000  0.19950000  1.0 0.1539394646
C  C186  1  0.80050000  0.42150000  0.48350000  1.0 0.1539394646
C  C187  1  0.69950000  0.98350000  0.07850000  1.0 0.1539394646
C  C188  1  0.30050000  0.01650000  0.07850000  1.0 0.1539394646
C  C189  1  0.01650000  0.92150000  0.69950000  1.0 0.1539394646
C  C190  1  0.01650000  0.07850000  0.30050000  1.0 0.1539394646
C  C191  1  0.92150000  0.30050000  0.98350000  1.0 0.1539394646
C  C192  1  0.07850000  0.30050000  0.01650000  1.0 0.1539394646
N  N1  1  0.52418000  0.80270000  0.51396000  1.0 -0.1303779363
N  N2  1  0.30270000  0.97582000  0.98604000  1.0 -0.1303779363
N  N3  1  0.47582000  0.19730000  0.51396000  1.0 -0.1303779363
N  N4  1  0.69730000  0.02418000  0.98604000  1.0 -0.1303779363
N  N5  1  0.97582000  0.01396000  0.69730000  1.0 -0.1303779363
N  N6  1  0.52418000  0.19730000  0.48604000  1.0 -0.1303779363
N  N7  1  0.97582000  0.98604000  0.30270000  1.0 -0.1303779363
N  N8  1  0.98604000  0.69730000  0.02418000  1.0 -0.1303779363
N  N9  1  0.47582000  0.80270000  0.48604000  1.0 -0.1303779363
N  N10  1  0.01396000  0.69730000  0.97582000  1.0 -0.1303779363
N  N11  1  0.51396000  0.52418000  0.80270000  1.0 -0.1303779363
N  N12  1  0.80270000  0.51396000  0.52418000  1.0 -0.1303779363
N  N13  1  0.19730000  0.48604000  0.52418000  1.0 -0.1303779363
N  N14  1  0.51396000  0.47582000  0.19730000  1.0 -0.1303779363
N  N15  1  0.19730000  0.51396000  0.47582000  1.0 -0.1303779363
N  N16  1  0.48604000  0.47582000  0.80270000  1.0 -0.1303779363
N  N17  1  0.48604000  0.52418000  0.19730000  1.0 -0.1303779363
N  N18  1  0.80270000  0.48604000  0.47582000  1.0 -0.1303779363
N  N19  1  0.69730000  0.97582000  0.01396000  1.0 -0.1303779363
N  N20  1  0.30270000  0.02418000  0.01396000  1.0 -0.1303779363
N  N21  1  0.02418000  0.98604000  0.69730000  1.0 -0.1303779363
N  N22  1  0.02418000  0.01396000  0.30270000  1.0 -0.1303779363
N  N23  1  0.98604000  0.30270000  0.97582000  1.0 -0.1303779363
N  N24  1  0.01396000  0.30270000  0.02418000  1.0 -0.1303779363
O  O1  1  0.75974000  0.75974000  0.75974000  1.0 -0.9137998761
O  O2  1  0.25974000  0.74026000  0.74026000  1.0 -0.9137998761
O  O3  1  0.24026000  0.24026000  0.75974000  1.0 -0.9137998761
O  O4  1  0.74026000  0.25974000  0.74026000  1.0 -0.9137998761
O  O5  1  0.75974000  0.24026000  0.24026000  1.0 -0.9137998761
O  O6  1  0.74026000  0.74026000  0.25974000  1.0 -0.9137998761
O  O7  1  0.24026000  0.75974000  0.24026000  1.0 -0.9137998761
O  O8  1  0.25974000  0.25974000  0.25974000  1.0 -0.9137998761
O  O9  1  0.67149000  0.81330000  0.68138000  1.0 -0.5495195505
O  O10  1  0.31330000  0.82851000  0.81862000  1.0 -0.5495195505
O  O11  1  0.32851000  0.18670000  0.68138000  1.0 -0.5495195505
O  O12  1  0.68670000  0.17149000  0.81862000  1.0 -0.5495195505
O  O13  1  0.82851000  0.18138000  0.68670000  1.0 -0.5495195505
O  O14  1  0.67149000  0.18670000  0.31862000  1.0 -0.5495195505
O  O15  1  0.82851000  0.81862000  0.31330000  1.0 -0.5495195505
O  O16  1  0.81862000  0.68670000  0.17149000  1.0 -0.5495195505
O  O17  1  0.32851000  0.81330000  0.31862000  1.0 -0.5495195505
O  O18  1  0.18138000  0.68670000  0.82851000  1.0 -0.5495195505
O  O19  1  0.68138000  0.67149000  0.81330000  1.0 -0.5495195505
O  O20  1  0.81330000  0.68138000  0.67149000  1.0 -0.5495195505
O  O21  1  0.18670000  0.31862000  0.67149000  1.0 -0.5495195505
O  O22  1  0.68138000  0.32851000  0.18670000  1.0 -0.5495195505
O  O23  1  0.18670000  0.68138000  0.32851000  1.0 -0.5495195505
O  O24  1  0.31862000  0.32851000  0.81330000  1.0 -0.5495195505
O  O25  1  0.31862000  0.67149000  0.18670000  1.0 -0.5495195505
O  O26  1  0.81330000  0.31862000  0.32851000  1.0 -0.5495195505
O  O27  1  0.68670000  0.82851000  0.18138000  1.0 -0.5495195505
O  O28  1  0.31330000  0.17149000  0.18138000  1.0 -0.5495195505
O  O29  1  0.17149000  0.81862000  0.68670000  1.0 -0.5495195505
O  O30  1  0.17149000  0.18138000  0.31330000  1.0 -0.5495195505
O  O31  1  0.81862000  0.31330000  0.82851000  1.0 -0.5495195505
O  O32  1  0.18138000  0.31330000  0.17149000  1.0 -0.5495195505
O  O33  1  0.62591000  0.77469000  0.76291000  1.0 -0.53962359
O  O34  1  0.27469000  0.87409000  0.73709000  1.0 -0.53962359
O  O35  1  0.37409000  0.22531000  0.76291000  1.0 -0.53962359
O  O36  1  0.72531000  0.12591000  0.73709000  1.0 -0.53962359
O  O37  1  0.87409000  0.26291000  0.72531000  1.0 -0.53962359
O  O38  1  0.62591000  0.22531000  0.23709000  1.0 -0.53962359
O  O39  1  0.87409000  0.73709000  0.27469000  1.0 -0.53962359
O  O40  1  0.73709000  0.72531000  0.12591000  1.0 -0.53962359
O  O41  1  0.37409000  0.77469000  0.23709000  1.0 -0.53962359
O  O42  1  0.26291000  0.72531000  0.87409000  1.0 -0.53962359
O  O43  1  0.76291000  0.62591000  0.77469000  1.0 -0.53962359
O  O44  1  0.77469000  0.76291000  0.62591000  1.0 -0.53962359
O  O45  1  0.22531000  0.23709000  0.62591000  1.0 -0.53962359
O  O46  1  0.76291000  0.37409000  0.22531000  1.0 -0.53962359
O  O47  1  0.22531000  0.76291000  0.37409000  1.0 -0.53962359
O  O48  1  0.23709000  0.37409000  0.77469000  1.0 -0.53962359
O  O49  1  0.23709000  0.62591000  0.22531000  1.0 -0.53962359
O  O50  1  0.77469000  0.23709000  0.37409000  1.0 -0.53962359
O  O51  1  0.72531000  0.87409000  0.26291000  1.0 -0.53962359
O  O52  1  0.27469000  0.12591000  0.26291000  1.0 -0.53962359
O  O53  1  0.12591000  0.73709000  0.72531000  1.0 -0.53962359
O  O54  1  0.12591000  0.26291000  0.27469000  1.0 -0.53962359
O  O55  1  0.73709000  0.27469000  0.87409000  1.0 -0.53962359
O  O56  1  0.26291000  0.27469000  0.12591000  1.0 -0.53962359
O  O57  1  0.39359000  0.75514000  0.74991000  1.0 -0.5495195505
O  O58  1  0.25514000  0.10641000  0.75009000  1.0 -0.5495195505
O  O59  1  0.60641000  0.24486000  0.74991000  1.0 -0.5495195505
O  O60  1  0.74486000  0.89359000  0.75009000  1.0 -0.5495195505
O  O61  1  0.10641000  0.24991000  0.74486000  1.0 -0.5495195505
O  O62  1  0.39359000  0.24486000  0.25009000  1.0 -0.5495195505
O  O63  1  0.10641000  0.75009000  0.25514000  1.0 -0.5495195505
O  O64  1  0.75009000  0.74486000  0.89359000  1.0 -0.5495195505
O  O65  1  0.60641000  0.75514000  0.25009000  1.0 -0.5495195505
O  O66  1  0.24991000  0.74486000  0.10641000  1.0 -0.5495195505
O  O67  1  0.74991000  0.39359000  0.75514000  1.0 -0.5495195505
O  O68  1  0.75514000  0.74991000  0.39359000  1.0 -0.5495195505
O  O69  1  0.24486000  0.25009000  0.39359000  1.0 -0.5495195505
O  O70  1  0.74991000  0.60641000  0.24486000  1.0 -0.5495195505
O  O71  1  0.24486000  0.74991000  0.60641000  1.0 -0.5495195505
O  O72  1  0.25009000  0.60641000  0.75514000  1.0 -0.5495195505
O  O73  1  0.25009000  0.39359000  0.24486000  1.0 -0.5495195505
O  O74  1  0.75514000  0.25009000  0.60641000  1.0 -0.5495195505
O  O75  1  0.74486000  0.10641000  0.24991000  1.0 -0.5495195505
O  O76  1  0.25514000  0.89359000  0.24991000  1.0 -0.5495195505
O  O77  1  0.89359000  0.75009000  0.74486000  1.0 -0.5495195505
O  O78  1  0.89359000  0.24991000  0.25514000  1.0 -0.5495195505
O  O79  1  0.75009000  0.25514000  0.10641000  1.0 -0.5495195505
O  O80  1  0.24991000  0.25514000  0.89359000  1.0 -0.5495195505
O  O81  1  0.35134000  0.79558000  0.66656000  1.0 -0.5495195505
O  O82  1  0.29558000  0.14866000  0.83344000  1.0 -0.5495195505
O  O83  1  0.64866000  0.20442000  0.66656000  1.0 -0.5495195505
O  O84  1  0.70442000  0.85134000  0.83344000  1.0 -0.5495195505
O  O85  1  0.14866000  0.16656000  0.70442000  1.0 -0.5495195505
O  O86  1  0.35134000  0.20442000  0.33344000  1.0 -0.5495195505
O  O87  1  0.14866000  0.83344000  0.29558000  1.0 -0.5495195505
O  O88  1  0.83344000  0.70442000  0.85134000  1.0 -0.5495195505
O  O89  1  0.64866000  0.79558000  0.33344000  1.0 -0.5495195505
O  O90  1  0.16656000  0.70442000  0.14866000  1.0 -0.5495195505
O  O91  1  0.66656000  0.35134000  0.79558000  1.0 -0.5495195505
O  O92  1  0.79558000  0.66656000  0.35134000  1.0 -0.5495195505
O  O93  1  0.20442000  0.33344000  0.35134000  1.0 -0.5495195505
O  O94  1  0.66656000  0.64866000  0.20442000  1.0 -0.5495195505
O  O95  1  0.20442000  0.66656000  0.64866000  1.0 -0.5495195505
O  O96  1  0.33344000  0.64866000  0.79558000  1.0 -0.5495195505
O  O97  1  0.33344000  0.35134000  0.20442000  1.0 -0.5495195505
O  O98  1  0.79558000  0.33344000  0.64866000  1.0 -0.5495195505
O  O99  1  0.70442000  0.14866000  0.16656000  1.0 -0.5495195505
O  O100  1  0.29558000  0.85134000  0.16656000  1.0 -0.5495195505
O  O101  1  0.85134000  0.83344000  0.70442000  1.0 -0.5495195505
O  O102  1  0.85134000  0.16656000  0.29558000  1.0 -0.5495195505
O  O103  1  0.83344000  0.29558000  0.14866000  1.0 -0.5495195505
O  O104  1  0.16656000  0.29558000  0.85134000  1.0 -0.5495195505
O  O105  1  0.76330000  0.88628000  0.62783000  1.0 -0.6562524827
O  O106  1  0.38628000  0.73670000  0.87217000  1.0 -0.6562524827
O  O107  1  0.23670000  0.11372000  0.62783000  1.0 -0.6562524827
O  O108  1  0.61372000  0.26330000  0.87217000  1.0 -0.6562524827
O  O109  1  0.73670000  0.12783000  0.61372000  1.0 -0.6562524827
O  O110  1  0.76330000  0.11372000  0.37217000  1.0 -0.6562524827
O  O111  1  0.73670000  0.87217000  0.38628000  1.0 -0.6562524827
O  O112  1  0.87217000  0.61372000  0.26330000  1.0 -0.6562524827
O  O113  1  0.23670000  0.88628000  0.37217000  1.0 -0.6562524827
O  O114  1  0.12783000  0.61372000  0.73670000  1.0 -0.6562524827
O  O115  1  0.62783000  0.76330000  0.88628000  1.0 -0.6562524827
O  O116  1  0.88628000  0.62783000  0.76330000  1.0 -0.6562524827
O  O117  1  0.11372000  0.37217000  0.76330000  1.0 -0.6562524827
O  O118  1  0.62783000  0.23670000  0.11372000  1.0 -0.6562524827
O  O119  1  0.11372000  0.62783000  0.23670000  1.0 -0.6562524827
O  O120  1  0.37217000  0.23670000  0.88628000  1.0 -0.6562524827
O  O121  1  0.37217000  0.76330000  0.11372000  1.0 -0.6562524827
O  O122  1  0.88628000  0.37217000  0.23670000  1.0 -0.6562524827
O  O123  1  0.61372000  0.73670000  0.12783000  1.0 -0.6562524827
O  O124  1  0.38628000  0.26330000  0.12783000  1.0 -0.6562524827
O  O125  1  0.26330000  0.87217000  0.61372000  1.0 -0.6562524827
O  O126  1  0.26330000  0.12783000  0.38628000  1.0 -0.6562524827
O  O127  1  0.87217000  0.38628000  0.73670000  1.0 -0.6562524827
O  O128  1  0.12783000  0.38628000  0.26330000  1.0 -0.6562524827
