# DDEC6 charges by PACMAN v1.1 (https://github.com/mtap-research/PACMAN-charge/)
data_cg3002866_si_001_ion_pacman
_symmetry_space_group_name_H-M   'P 1'
_cell_length_a   38.59100000
_cell_length_b   38.59100000
_cell_length_c   38.59100000
_cell_angle_alpha   90.00000000
_cell_angle_beta   90.00000000
_cell_angle_gamma   90.00000000
_symmetry_Int_Tables_number   1
_chemical_formula_structural   Zn7H36C66N2O41
_chemical_formula_sum   'Zn112 H576 C1056 N32 O656'
_cell_volume   57472.23645907
_cell_formula_units_Z   16
loop_
 _symmetry_equiv_pos_site_id
 _symmetry_equiv_pos_as_xyz
  1  'x, y, z'
loop_
 _atom_site_type_symbol
 _atom_site_label
 _atom_site_symmetry_multiplicity
 _atom_site_fract_x
 _atom_site_fract_y
 _atom_site_fract_z
 _atom_site_occupancy
 _atom_site_charge
Zn  Zn1  1  0.00000000  0.50000000  0.30468000  1.0 1.0487069668
Zn  Zn2  1  0.00000000  0.50000000  0.22745000  1.0 1.0224783253
Zn  Zn3  1  0.00000000  0.00000000  0.80468000  1.0 1.0487069668
Zn  Zn4  1  0.00000000  0.00000000  0.72745000  1.0 1.0224783253
Zn  Zn5  1  0.50000000  0.50000000  0.80468000  1.0 1.0487069668
Zn  Zn6  1  0.50000000  0.50000000  0.72745000  1.0 1.0224783253
Zn  Zn7  1  0.50000000  0.00000000  0.30468000  1.0 1.0487069668
Zn  Zn8  1  0.50000000  0.00000000  0.22745000  1.0 1.0224783253
Zn  Zn9  1  0.00000000  0.50000000  0.69532000  1.0 1.0487069668
Zn  Zn10  1  0.00000000  0.50000000  0.77255000  1.0 1.0224783253
Zn  Zn11  1  0.00000000  0.00000000  0.19532000  1.0 1.0487069668
Zn  Zn12  1  0.00000000  0.00000000  0.27255000  1.0 1.0224783253
Zn  Zn13  1  0.50000000  0.50000000  0.19532000  1.0 1.0487069668
Zn  Zn14  1  0.50000000  0.50000000  0.27255000  1.0 1.0224783253
Zn  Zn15  1  0.50000000  0.00000000  0.69532000  1.0 1.0487069668
Zn  Zn16  1  0.50000000  0.00000000  0.77255000  1.0 1.0224783253
Zn  Zn17  1  0.30468000  0.00000000  0.50000000  1.0 1.0487069668
Zn  Zn18  1  0.22745000  0.00000000  0.50000000  1.0 1.0224783253
Zn  Zn19  1  0.80468000  0.00000000  0.00000000  1.0 1.0487069668
Zn  Zn20  1  0.72745000  0.00000000  0.00000000  1.0 1.0224783253
Zn  Zn21  1  0.80468000  0.50000000  0.50000000  1.0 1.0487069668
Zn  Zn22  1  0.72745000  0.50000000  0.50000000  1.0 1.0224783253
Zn  Zn23  1  0.30468000  0.50000000  0.00000000  1.0 1.0487069668
Zn  Zn24  1  0.22745000  0.50000000  0.00000000  1.0 1.0224783253
Zn  Zn25  1  0.69532000  0.00000000  0.50000000  1.0 1.0487069668
Zn  Zn26  1  0.77255000  0.00000000  0.50000000  1.0 1.0224783253
Zn  Zn27  1  0.19532000  0.00000000  0.00000000  1.0 1.0487069668
Zn  Zn28  1  0.27255000  0.00000000  0.00000000  1.0 1.0224783253
Zn  Zn29  1  0.19532000  0.50000000  0.50000000  1.0 1.0487069668
Zn  Zn30  1  0.27255000  0.50000000  0.50000000  1.0 1.0224783253
Zn  Zn31  1  0.69532000  0.50000000  0.00000000  1.0 1.0487069668
Zn  Zn32  1  0.77255000  0.50000000  0.00000000  1.0 1.0224783253
Zn  Zn33  1  0.50000000  0.30468000  0.00000000  1.0 1.0487069668
Zn  Zn34  1  0.50000000  0.22745000  0.00000000  1.0 1.0224783253
Zn  Zn35  1  0.50000000  0.80468000  0.50000000  1.0 1.0487069668
Zn  Zn36  1  0.50000000  0.72745000  0.50000000  1.0 1.0224783253
Zn  Zn37  1  0.00000000  0.80468000  0.00000000  1.0 1.0487069668
Zn  Zn38  1  0.00000000  0.72745000  0.00000000  1.0 1.0224783253
Zn  Zn39  1  0.50000000  0.69532000  0.00000000  1.0 1.0487069668
Zn  Zn40  1  0.50000000  0.77255000  0.00000000  1.0 1.0224783253
Zn  Zn41  1  0.50000000  0.19532000  0.50000000  1.0 1.0487069668
Zn  Zn42  1  0.50000000  0.27255000  0.50000000  1.0 1.0224783253
Zn  Zn43  1  0.00000000  0.19532000  0.00000000  1.0 1.0487069668
Zn  Zn44  1  0.00000000  0.27255000  0.00000000  1.0 1.0224783253
Zn  Zn45  1  0.00000000  0.30468000  0.50000000  1.0 1.0487069668
Zn  Zn46  1  0.00000000  0.22745000  0.50000000  1.0 1.0224783253
Zn  Zn47  1  0.00000000  0.69532000  0.50000000  1.0 1.0487069668
Zn  Zn48  1  0.00000000  0.77255000  0.50000000  1.0 1.0224783253
Zn  Zn49  1  0.18065000  0.31935000  0.18065000  1.0 1.1227254303
Zn  Zn50  1  0.12689000  0.37311000  0.12689000  1.0 1.092992186
Zn  Zn51  1  0.81935000  0.68065000  0.18065000  1.0 1.1227254303
Zn  Zn52  1  0.87311000  0.62689000  0.12689000  1.0 1.092992186
Zn  Zn53  1  0.31935000  0.18065000  0.18065000  1.0 1.1227254303
Zn  Zn54  1  0.37311000  0.12689000  0.12689000  1.0 1.092992186
Zn  Zn55  1  0.81935000  0.31935000  0.81935000  1.0 1.1227254303
Zn  Zn56  1  0.87311000  0.37311000  0.87311000  1.0 1.092992186
Zn  Zn57  1  0.31935000  0.31935000  0.31935000  1.0 1.1227254303
Zn  Zn58  1  0.37311000  0.37311000  0.37311000  1.0 1.092992186
Zn  Zn59  1  0.18065000  0.68065000  0.81935000  1.0 1.1227254303
Zn  Zn60  1  0.12689000  0.62689000  0.87311000  1.0 1.092992186
Zn  Zn61  1  0.18065000  0.18065000  0.31935000  1.0 1.1227254303
Zn  Zn62  1  0.12689000  0.12689000  0.37311000  1.0 1.092992186
Zn  Zn63  1  0.18065000  0.81935000  0.68065000  1.0 1.1227254303
Zn  Zn64  1  0.12689000  0.87311000  0.62689000  1.0 1.092992186
Zn  Zn65  1  0.81935000  0.81935000  0.31935000  1.0 1.1227254303
Zn  Zn66  1  0.87311000  0.87311000  0.37311000  1.0 1.092992186
Zn  Zn67  1  0.81935000  0.18065000  0.68065000  1.0 1.1227254303
Zn  Zn68  1  0.87311000  0.12689000  0.62689000  1.0 1.092992186
Zn  Zn69  1  0.31935000  0.68065000  0.68065000  1.0 1.1227254303
Zn  Zn70  1  0.37311000  0.62689000  0.62689000  1.0 1.092992186
Zn  Zn71  1  0.68065000  0.18065000  0.81935000  1.0 1.1227254303
Zn  Zn72  1  0.62689000  0.12689000  0.87311000  1.0 1.092992186
Zn  Zn73  1  0.68065000  0.68065000  0.31935000  1.0 1.1227254303
Zn  Zn74  1  0.62689000  0.62689000  0.37311000  1.0 1.092992186
Zn  Zn75  1  0.31935000  0.81935000  0.81935000  1.0 1.1227254303
Zn  Zn76  1  0.37311000  0.87311000  0.87311000  1.0 1.092992186
Zn  Zn77  1  0.68065000  0.81935000  0.18065000  1.0 1.1227254303
Zn  Zn78  1  0.62689000  0.87311000  0.12689000  1.0 1.092992186
Zn  Zn79  1  0.68065000  0.31935000  0.68065000  1.0 1.1227254303
Zn  Zn80  1  0.62689000  0.37311000  0.62689000  1.0 1.092992186
Zn  Zn81  1  0.31935000  0.18065000  0.81935000  1.0 1.1227254303
Zn  Zn82  1  0.37311000  0.12689000  0.87311000  1.0 1.092992186
Zn  Zn83  1  0.31935000  0.68065000  0.31935000  1.0 1.1227254303
Zn  Zn84  1  0.37311000  0.62689000  0.37311000  1.0 1.092992186
Zn  Zn85  1  0.68065000  0.81935000  0.81935000  1.0 1.1227254303
Zn  Zn86  1  0.62689000  0.87311000  0.87311000  1.0 1.092992186
Zn  Zn87  1  0.68065000  0.31935000  0.31935000  1.0 1.1227254303
Zn  Zn88  1  0.62689000  0.37311000  0.37311000  1.0 1.092992186
Zn  Zn89  1  0.18065000  0.81935000  0.31935000  1.0 1.1227254303
Zn  Zn90  1  0.12689000  0.87311000  0.37311000  1.0 1.092992186
Zn  Zn91  1  0.18065000  0.31935000  0.81935000  1.0 1.1227254303
Zn  Zn92  1  0.12689000  0.37311000  0.87311000  1.0 1.092992186
Zn  Zn93  1  0.31935000  0.81935000  0.18065000  1.0 1.1227254303
Zn  Zn94  1  0.37311000  0.87311000  0.12689000  1.0 1.092992186
Zn  Zn95  1  0.31935000  0.31935000  0.68065000  1.0 1.1227254303
Zn  Zn96  1  0.37311000  0.37311000  0.62689000  1.0 1.092992186
Zn  Zn97  1  0.68065000  0.18065000  0.18065000  1.0 1.1227254303
Zn  Zn98  1  0.62689000  0.12689000  0.12689000  1.0 1.092992186
Zn  Zn99  1  0.68065000  0.68065000  0.68065000  1.0 1.1227254303
Zn  Zn100  1  0.62689000  0.62689000  0.62689000  1.0 1.092992186
Zn  Zn101  1  0.18065000  0.18065000  0.68065000  1.0 1.1227254303
Zn  Zn102  1  0.12689000  0.12689000  0.62689000  1.0 1.092992186
Zn  Zn103  1  0.81935000  0.18065000  0.31935000  1.0 1.1227254303
Zn  Zn104  1  0.87311000  0.12689000  0.37311000  1.0 1.092992186
Zn  Zn105  1  0.81935000  0.81935000  0.68065000  1.0 1.1227254303
Zn  Zn106  1  0.87311000  0.87311000  0.62689000  1.0 1.092992186
Zn  Zn107  1  0.81935000  0.31935000  0.18065000  1.0 1.1227254303
Zn  Zn108  1  0.87311000  0.37311000  0.12689000  1.0 1.092992186
Zn  Zn109  1  0.18065000  0.68065000  0.18065000  1.0 1.1227254303
Zn  Zn110  1  0.12689000  0.62689000  0.12689000  1.0 1.092992186
Zn  Zn111  1  0.81935000  0.68065000  0.81935000  1.0 1.1227254303
Zn  Zn112  1  0.87311000  0.62689000  0.87311000  1.0 1.092992186
H  H577  1  0.07770000  0.42230000  0.21330000  1.0 0.1364574632
H  H578  1  0.14200000  0.35800000  0.26420000  1.0 0.1364574632
H  H579  1  0.07830000  0.42170000  0.31590000  1.0 0.1515143284
H  H580  1  0.07770000  0.92230000  0.71330000  1.0 0.1364574632
H  H581  1  0.14200000  0.85800000  0.76420000  1.0 0.1364574632
H  H582  1  0.07830000  0.92170000  0.81590000  1.0 0.1515143284
H  H583  1  0.92230000  0.57770000  0.21330000  1.0 0.1364574632
H  H584  1  0.85800000  0.64200000  0.26420000  1.0 0.1364574632
H  H585  1  0.92170000  0.57830000  0.31590000  1.0 0.1515143284
H  H586  1  0.92230000  0.07770000  0.71330000  1.0 0.1364574632
H  H587  1  0.85800000  0.14200000  0.76420000  1.0 0.1364574632
H  H588  1  0.92170000  0.07830000  0.81590000  1.0 0.1515143284
H  H589  1  0.42230000  0.07770000  0.21330000  1.0 0.1364574632
H  H590  1  0.35800000  0.14200000  0.26420000  1.0 0.1364574632
H  H591  1  0.42170000  0.07830000  0.31590000  1.0 0.1515143284
H  H592  1  0.92230000  0.42230000  0.78670000  1.0 0.1364574632
H  H593  1  0.85800000  0.35800000  0.73580000  1.0 0.1364574632
H  H594  1  0.92170000  0.42170000  0.68410000  1.0 0.1515143284
H  H595  1  0.92230000  0.92230000  0.28670000  1.0 0.1364574632
H  H596  1  0.85800000  0.85800000  0.23580000  1.0 0.1364574632
H  H597  1  0.92170000  0.92170000  0.18410000  1.0 0.1515143284
H  H598  1  0.42230000  0.42230000  0.28670000  1.0 0.1364574632
H  H599  1  0.35800000  0.35800000  0.23580000  1.0 0.1364574632
H  H600  1  0.42170000  0.42170000  0.18410000  1.0 0.1515143284
H  H601  1  0.07770000  0.57770000  0.78670000  1.0 0.1364574632
H  H602  1  0.14200000  0.64200000  0.73580000  1.0 0.1364574632
H  H603  1  0.07830000  0.57830000  0.68410000  1.0 0.1515143284
H  H604  1  0.07770000  0.07770000  0.28670000  1.0 0.1364574632
H  H605  1  0.14200000  0.14200000  0.23580000  1.0 0.1364574632
H  H606  1  0.07830000  0.07830000  0.18410000  1.0 0.1515143284
H  H607  1  0.21330000  0.07770000  0.42230000  1.0 0.1364574632
H  H608  1  0.26420000  0.14200000  0.35800000  1.0 0.1364574632
H  H609  1  0.31590000  0.07830000  0.42170000  1.0 0.1515143284
H  H610  1  0.71330000  0.07770000  0.92230000  1.0 0.1364574632
H  H611  1  0.76420000  0.14200000  0.85800000  1.0 0.1364574632
H  H612  1  0.81590000  0.07830000  0.92170000  1.0 0.1515143284
H  H613  1  0.21330000  0.92230000  0.57770000  1.0 0.1364574632
H  H614  1  0.26420000  0.85800000  0.64200000  1.0 0.1364574632
H  H615  1  0.31590000  0.92170000  0.57830000  1.0 0.1515143284
H  H616  1  0.21330000  0.42230000  0.07770000  1.0 0.1364574632
H  H617  1  0.26420000  0.35800000  0.14200000  1.0 0.1364574632
H  H618  1  0.31590000  0.42170000  0.07830000  1.0 0.1515143284
H  H619  1  0.71330000  0.92230000  0.07770000  1.0 0.1364574632
H  H620  1  0.76420000  0.85800000  0.14200000  1.0 0.1364574632
H  H621  1  0.81590000  0.92170000  0.07830000  1.0 0.1515143284
H  H622  1  0.78670000  0.92230000  0.42230000  1.0 0.1364574632
H  H623  1  0.73580000  0.85800000  0.35800000  1.0 0.1364574632
H  H624  1  0.68410000  0.92170000  0.42170000  1.0 0.1515143284
H  H625  1  0.28670000  0.92230000  0.92230000  1.0 0.1364574632
H  H626  1  0.23580000  0.85800000  0.85800000  1.0 0.1364574632
H  H627  1  0.18410000  0.92170000  0.92170000  1.0 0.1515143284
H  H628  1  0.28670000  0.42230000  0.42230000  1.0 0.1364574632
H  H629  1  0.23580000  0.35800000  0.35800000  1.0 0.1364574632
H  H630  1  0.18410000  0.42170000  0.42170000  1.0 0.1515143284
H  H631  1  0.78670000  0.07770000  0.57770000  1.0 0.1364574632
H  H632  1  0.73580000  0.14200000  0.64200000  1.0 0.1364574632
H  H633  1  0.68410000  0.07830000  0.57830000  1.0 0.1515143284
H  H634  1  0.28670000  0.07770000  0.07770000  1.0 0.1364574632
H  H635  1  0.23580000  0.14200000  0.14200000  1.0 0.1364574632
H  H636  1  0.18410000  0.07830000  0.07830000  1.0 0.1515143284
H  H637  1  0.42230000  0.21330000  0.07770000  1.0 0.1364574632
H  H638  1  0.35800000  0.26420000  0.14200000  1.0 0.1364574632
H  H639  1  0.42170000  0.31590000  0.07830000  1.0 0.1515143284
H  H640  1  0.42230000  0.71330000  0.57770000  1.0 0.1364574632
H  H641  1  0.35800000  0.76420000  0.64200000  1.0 0.1364574632
H  H642  1  0.42170000  0.81590000  0.57830000  1.0 0.1515143284
H  H643  1  0.57770000  0.21330000  0.92230000  1.0 0.1364574632
H  H644  1  0.64200000  0.26420000  0.85800000  1.0 0.1364574632
H  H645  1  0.57830000  0.31590000  0.92170000  1.0 0.1515143284
H  H646  1  0.57770000  0.71330000  0.42230000  1.0 0.1364574632
H  H647  1  0.64200000  0.76420000  0.35800000  1.0 0.1364574632
H  H648  1  0.57830000  0.81590000  0.42170000  1.0 0.1515143284
H  H649  1  0.07770000  0.21330000  0.42230000  1.0 0.1364574632
H  H650  1  0.14200000  0.26420000  0.35800000  1.0 0.1364574632
H  H651  1  0.07830000  0.31590000  0.42170000  1.0 0.1515143284
H  H652  1  0.42230000  0.78670000  0.92230000  1.0 0.1364574632
H  H653  1  0.35800000  0.73580000  0.85800000  1.0 0.1364574632
H  H654  1  0.42170000  0.68410000  0.92170000  1.0 0.1515143284
H  H655  1  0.42230000  0.28670000  0.42230000  1.0 0.1364574632
H  H656  1  0.35800000  0.23580000  0.35800000  1.0 0.1364574632
H  H657  1  0.42170000  0.18410000  0.42170000  1.0 0.1515143284
H  H658  1  0.57770000  0.78670000  0.07770000  1.0 0.1364574632
H  H659  1  0.64200000  0.73580000  0.14200000  1.0 0.1364574632
H  H660  1  0.57830000  0.68410000  0.07830000  1.0 0.1515143284
H  H661  1  0.57770000  0.28670000  0.57770000  1.0 0.1364574632
H  H662  1  0.64200000  0.23580000  0.64200000  1.0 0.1364574632
H  H663  1  0.57830000  0.18410000  0.57830000  1.0 0.1515143284
H  H664  1  0.07770000  0.28670000  0.07770000  1.0 0.1364574632
H  H665  1  0.14200000  0.23580000  0.14200000  1.0 0.1364574632
H  H666  1  0.07830000  0.18410000  0.07830000  1.0 0.1515143284
H  H667  1  0.42230000  0.07770000  0.78670000  1.0 0.1364574632
H  H668  1  0.35800000  0.14200000  0.73580000  1.0 0.1364574632
H  H669  1  0.42170000  0.07830000  0.68410000  1.0 0.1515143284
H  H670  1  0.42230000  0.57770000  0.28670000  1.0 0.1364574632
H  H671  1  0.35800000  0.64200000  0.23580000  1.0 0.1364574632
H  H672  1  0.42170000  0.57830000  0.18410000  1.0 0.1515143284
H  H673  1  0.57770000  0.92230000  0.78670000  1.0 0.1364574632
H  H674  1  0.64200000  0.85800000  0.73580000  1.0 0.1364574632
H  H675  1  0.57830000  0.92170000  0.68410000  1.0 0.1515143284
H  H676  1  0.57770000  0.42230000  0.28670000  1.0 0.1364574632
H  H677  1  0.64200000  0.35800000  0.23580000  1.0 0.1364574632
H  H678  1  0.57830000  0.42170000  0.18410000  1.0 0.1515143284
H  H679  1  0.07770000  0.42230000  0.78670000  1.0 0.1364574632
H  H680  1  0.14200000  0.35800000  0.73580000  1.0 0.1364574632
H  H681  1  0.07830000  0.42170000  0.68410000  1.0 0.1515143284
H  H682  1  0.42230000  0.92230000  0.21330000  1.0 0.1364574632
H  H683  1  0.35800000  0.85800000  0.26420000  1.0 0.1364574632
H  H684  1  0.42170000  0.92170000  0.31590000  1.0 0.1515143284
H  H685  1  0.42230000  0.42230000  0.71330000  1.0 0.1364574632
H  H686  1  0.35800000  0.35800000  0.76420000  1.0 0.1364574632
H  H687  1  0.42170000  0.42170000  0.81590000  1.0 0.1515143284
H  H688  1  0.57770000  0.07770000  0.21330000  1.0 0.1364574632
H  H689  1  0.64200000  0.14200000  0.26420000  1.0 0.1364574632
H  H690  1  0.57830000  0.07830000  0.31590000  1.0 0.1515143284
H  H691  1  0.57770000  0.57770000  0.71330000  1.0 0.1364574632
H  H692  1  0.64200000  0.64200000  0.76420000  1.0 0.1364574632
H  H693  1  0.57830000  0.57830000  0.81590000  1.0 0.1515143284
H  H694  1  0.07770000  0.07770000  0.71330000  1.0 0.1364574632
H  H695  1  0.14200000  0.14200000  0.76420000  1.0 0.1364574632
H  H696  1  0.07830000  0.07830000  0.81590000  1.0 0.1515143284
H  H697  1  0.07770000  0.21330000  0.57770000  1.0 0.1364574632
H  H698  1  0.14200000  0.26420000  0.64200000  1.0 0.1364574632
H  H699  1  0.07830000  0.31590000  0.57830000  1.0 0.1515143284
H  H700  1  0.07770000  0.71330000  0.07770000  1.0 0.1364574632
H  H701  1  0.14200000  0.76420000  0.14200000  1.0 0.1364574632
H  H702  1  0.07830000  0.81590000  0.07830000  1.0 0.1515143284
H  H703  1  0.92230000  0.21330000  0.42230000  1.0 0.1364574632
H  H704  1  0.85800000  0.26420000  0.35800000  1.0 0.1364574632
H  H705  1  0.92170000  0.31590000  0.42170000  1.0 0.1515143284
H  H706  1  0.92230000  0.71330000  0.92230000  1.0 0.1364574632
H  H707  1  0.85800000  0.76420000  0.85800000  1.0 0.1364574632
H  H708  1  0.92170000  0.81590000  0.92170000  1.0 0.1515143284
H  H709  1  0.42230000  0.71330000  0.42230000  1.0 0.1364574632
H  H710  1  0.35800000  0.76420000  0.35800000  1.0 0.1364574632
H  H711  1  0.42170000  0.81590000  0.42170000  1.0 0.1515143284
H  H712  1  0.92230000  0.78670000  0.57770000  1.0 0.1364574632
H  H713  1  0.85800000  0.73580000  0.64200000  1.0 0.1364574632
H  H714  1  0.92170000  0.68410000  0.57830000  1.0 0.1515143284
H  H715  1  0.92230000  0.28670000  0.07770000  1.0 0.1364574632
H  H716  1  0.85800000  0.23580000  0.14200000  1.0 0.1364574632
H  H717  1  0.92170000  0.18410000  0.07830000  1.0 0.1515143284
H  H718  1  0.42230000  0.78670000  0.07770000  1.0 0.1364574632
H  H719  1  0.35800000  0.73580000  0.14200000  1.0 0.1364574632
H  H720  1  0.42170000  0.68410000  0.07830000  1.0 0.1515143284
H  H721  1  0.07770000  0.78670000  0.42230000  1.0 0.1364574632
H  H722  1  0.14200000  0.73580000  0.35800000  1.0 0.1364574632
H  H723  1  0.07830000  0.68410000  0.42170000  1.0 0.1515143284
H  H724  1  0.07770000  0.28670000  0.92230000  1.0 0.1364574632
H  H725  1  0.14200000  0.23580000  0.85800000  1.0 0.1364574632
H  H726  1  0.07830000  0.18410000  0.92170000  1.0 0.1515143284
H  H727  1  0.21330000  0.42230000  0.92230000  1.0 0.1364574632
H  H728  1  0.26420000  0.35800000  0.85800000  1.0 0.1364574632
H  H729  1  0.31590000  0.42170000  0.92170000  1.0 0.1515143284
H  H730  1  0.71330000  0.42230000  0.42230000  1.0 0.1364574632
H  H731  1  0.76420000  0.35800000  0.35800000  1.0 0.1364574632
H  H732  1  0.81590000  0.42170000  0.42170000  1.0 0.1515143284
H  H733  1  0.21330000  0.57770000  0.07770000  1.0 0.1364574632
H  H734  1  0.26420000  0.64200000  0.14200000  1.0 0.1364574632
H  H735  1  0.31590000  0.57830000  0.07830000  1.0 0.1515143284
H  H736  1  0.71330000  0.57770000  0.57770000  1.0 0.1364574632
H  H737  1  0.76420000  0.64200000  0.64200000  1.0 0.1364574632
H  H738  1  0.81590000  0.57830000  0.57830000  1.0 0.1515143284
H  H739  1  0.71330000  0.07770000  0.07770000  1.0 0.1364574632
H  H740  1  0.76420000  0.14200000  0.14200000  1.0 0.1364574632
H  H741  1  0.81590000  0.07830000  0.07830000  1.0 0.1515143284
H  H742  1  0.78670000  0.42230000  0.07770000  1.0 0.1364574632
H  H743  1  0.73580000  0.35800000  0.14200000  1.0 0.1364574632
H  H744  1  0.68410000  0.42170000  0.07830000  1.0 0.1515143284
H  H745  1  0.28670000  0.42230000  0.57770000  1.0 0.1364574632
H  H746  1  0.23580000  0.35800000  0.64200000  1.0 0.1364574632
H  H747  1  0.18410000  0.42170000  0.57830000  1.0 0.1515143284
H  H748  1  0.78670000  0.57770000  0.92230000  1.0 0.1364574632
H  H749  1  0.73580000  0.64200000  0.85800000  1.0 0.1364574632
H  H750  1  0.68410000  0.57830000  0.92170000  1.0 0.1515143284
H  H751  1  0.78670000  0.07770000  0.42230000  1.0 0.1364574632
H  H752  1  0.73580000  0.14200000  0.35800000  1.0 0.1364574632
H  H753  1  0.68410000  0.07830000  0.42170000  1.0 0.1515143284
H  H754  1  0.28670000  0.57770000  0.42230000  1.0 0.1364574632
H  H755  1  0.23580000  0.64200000  0.35800000  1.0 0.1364574632
H  H756  1  0.18410000  0.57830000  0.42170000  1.0 0.1515143284
H  H757  1  0.92230000  0.57770000  0.78670000  1.0 0.1364574632
H  H758  1  0.85800000  0.64200000  0.73580000  1.0 0.1364574632
H  H759  1  0.92170000  0.57830000  0.68410000  1.0 0.1515143284
H  H760  1  0.92230000  0.07770000  0.28670000  1.0 0.1364574632
H  H761  1  0.85800000  0.14200000  0.23580000  1.0 0.1364574632
H  H762  1  0.92170000  0.07830000  0.18410000  1.0 0.1515143284
H  H763  1  0.07770000  0.92230000  0.28670000  1.0 0.1364574632
H  H764  1  0.14200000  0.85800000  0.23580000  1.0 0.1364574632
H  H765  1  0.07830000  0.92170000  0.18410000  1.0 0.1515143284
H  H766  1  0.07770000  0.57770000  0.21330000  1.0 0.1364574632
H  H767  1  0.14200000  0.64200000  0.26420000  1.0 0.1364574632
H  H768  1  0.07830000  0.57830000  0.31590000  1.0 0.1515143284
H  H769  1  0.92230000  0.42230000  0.21330000  1.0 0.1364574632
H  H770  1  0.85800000  0.35800000  0.26420000  1.0 0.1364574632
H  H771  1  0.92170000  0.42170000  0.31590000  1.0 0.1515143284
H  H772  1  0.92230000  0.92230000  0.71330000  1.0 0.1364574632
H  H773  1  0.85800000  0.85800000  0.76420000  1.0 0.1364574632
H  H774  1  0.92170000  0.92170000  0.81590000  1.0 0.1515143284
H  H775  1  0.78670000  0.92230000  0.57770000  1.0 0.1364574632
H  H776  1  0.73580000  0.85800000  0.64200000  1.0 0.1364574632
H  H777  1  0.68410000  0.92170000  0.57830000  1.0 0.1515143284
H  H778  1  0.28670000  0.92230000  0.07770000  1.0 0.1364574632
H  H779  1  0.23580000  0.85800000  0.14200000  1.0 0.1364574632
H  H780  1  0.18410000  0.92170000  0.07830000  1.0 0.1515143284
H  H781  1  0.28670000  0.07770000  0.92230000  1.0 0.1364574632
H  H782  1  0.23580000  0.14200000  0.85800000  1.0 0.1364574632
H  H783  1  0.18410000  0.07830000  0.92170000  1.0 0.1515143284
H  H784  1  0.21330000  0.07770000  0.57770000  1.0 0.1364574632
H  H785  1  0.26420000  0.14200000  0.64200000  1.0 0.1364574632
H  H786  1  0.31590000  0.07830000  0.57830000  1.0 0.1515143284
H  H787  1  0.21330000  0.92230000  0.42230000  1.0 0.1364574632
H  H788  1  0.26420000  0.85800000  0.35800000  1.0 0.1364574632
H  H789  1  0.31590000  0.92170000  0.42170000  1.0 0.1515143284
H  H790  1  0.71330000  0.92230000  0.92230000  1.0 0.1364574632
H  H791  1  0.76420000  0.85800000  0.85800000  1.0 0.1364574632
H  H792  1  0.81590000  0.92170000  0.92170000  1.0 0.1515143284
H  H793  1  0.57770000  0.78670000  0.92230000  1.0 0.1364574632
H  H794  1  0.64200000  0.73580000  0.85800000  1.0 0.1364574632
H  H795  1  0.57830000  0.68410000  0.92170000  1.0 0.1515143284
H  H796  1  0.57770000  0.28670000  0.42230000  1.0 0.1364574632
H  H797  1  0.64200000  0.23580000  0.35800000  1.0 0.1364574632
H  H798  1  0.57830000  0.18410000  0.42170000  1.0 0.1515143284
H  H799  1  0.42230000  0.28670000  0.57770000  1.0 0.1364574632
H  H800  1  0.35800000  0.23580000  0.64200000  1.0 0.1364574632
H  H801  1  0.42170000  0.18410000  0.57830000  1.0 0.1515143284
H  H802  1  0.57770000  0.21330000  0.07770000  1.0 0.1364574632
H  H803  1  0.64200000  0.26420000  0.14200000  1.0 0.1364574632
H  H804  1  0.57830000  0.31590000  0.07830000  1.0 0.1515143284
H  H805  1  0.57770000  0.71330000  0.57770000  1.0 0.1364574632
H  H806  1  0.64200000  0.76420000  0.64200000  1.0 0.1364574632
H  H807  1  0.57830000  0.81590000  0.57830000  1.0 0.1515143284
H  H808  1  0.42230000  0.21330000  0.92230000  1.0 0.1364574632
H  H809  1  0.35800000  0.26420000  0.85800000  1.0 0.1364574632
H  H810  1  0.42170000  0.31590000  0.92170000  1.0 0.1515143284
H  H811  1  0.57770000  0.92230000  0.21330000  1.0 0.1364574632
H  H812  1  0.64200000  0.85800000  0.26420000  1.0 0.1364574632
H  H813  1  0.57830000  0.92170000  0.31590000  1.0 0.1515143284
H  H814  1  0.57770000  0.42230000  0.71330000  1.0 0.1364574632
H  H815  1  0.64200000  0.35800000  0.76420000  1.0 0.1364574632
H  H816  1  0.57830000  0.42170000  0.81590000  1.0 0.1515143284
H  H817  1  0.42230000  0.57770000  0.71330000  1.0 0.1364574632
H  H818  1  0.35800000  0.64200000  0.76420000  1.0 0.1364574632
H  H819  1  0.42170000  0.57830000  0.81590000  1.0 0.1515143284
H  H820  1  0.57770000  0.07770000  0.78670000  1.0 0.1364574632
H  H821  1  0.64200000  0.14200000  0.73580000  1.0 0.1364574632
H  H822  1  0.57830000  0.07830000  0.68410000  1.0 0.1515143284
H  H823  1  0.57770000  0.57770000  0.28670000  1.0 0.1364574632
H  H824  1  0.64200000  0.64200000  0.23580000  1.0 0.1364574632
H  H825  1  0.57830000  0.57830000  0.18410000  1.0 0.1515143284
H  H826  1  0.42230000  0.92230000  0.78670000  1.0 0.1364574632
H  H827  1  0.35800000  0.85800000  0.73580000  1.0 0.1364574632
H  H828  1  0.42170000  0.92170000  0.68410000  1.0 0.1515143284
H  H829  1  0.92230000  0.78670000  0.42230000  1.0 0.1364574632
H  H830  1  0.85800000  0.73580000  0.35800000  1.0 0.1364574632
H  H831  1  0.92170000  0.68410000  0.42170000  1.0 0.1515143284
H  H832  1  0.92230000  0.28670000  0.92230000  1.0 0.1364574632
H  H833  1  0.85800000  0.23580000  0.85800000  1.0 0.1364574632
H  H834  1  0.92170000  0.18410000  0.92170000  1.0 0.1515143284
H  H835  1  0.07770000  0.78670000  0.57770000  1.0 0.1364574632
H  H836  1  0.14200000  0.73580000  0.64200000  1.0 0.1364574632
H  H837  1  0.07830000  0.68410000  0.57830000  1.0 0.1515143284
H  H838  1  0.07770000  0.71330000  0.92230000  1.0 0.1364574632
H  H839  1  0.14200000  0.76420000  0.85800000  1.0 0.1364574632
H  H840  1  0.07830000  0.81590000  0.92170000  1.0 0.1515143284
H  H841  1  0.92230000  0.21330000  0.57770000  1.0 0.1364574632
H  H842  1  0.85800000  0.26420000  0.64200000  1.0 0.1364574632
H  H843  1  0.92170000  0.31590000  0.57830000  1.0 0.1515143284
H  H844  1  0.92230000  0.71330000  0.07770000  1.0 0.1364574632
H  H845  1  0.85800000  0.76420000  0.14200000  1.0 0.1364574632
H  H846  1  0.92170000  0.81590000  0.07830000  1.0 0.1515143284
H  H847  1  0.78670000  0.57770000  0.07770000  1.0 0.1364574632
H  H848  1  0.73580000  0.64200000  0.14200000  1.0 0.1364574632
H  H849  1  0.68410000  0.57830000  0.07830000  1.0 0.1515143284
H  H850  1  0.28670000  0.57770000  0.57770000  1.0 0.1364574632
H  H851  1  0.23580000  0.64200000  0.64200000  1.0 0.1364574632
H  H852  1  0.18410000  0.57830000  0.57830000  1.0 0.1515143284
H  H853  1  0.78670000  0.42230000  0.92230000  1.0 0.1364574632
H  H854  1  0.73580000  0.35800000  0.85800000  1.0 0.1364574632
H  H855  1  0.68410000  0.42170000  0.92170000  1.0 0.1515143284
H  H856  1  0.21330000  0.57770000  0.92230000  1.0 0.1364574632
H  H857  1  0.26420000  0.64200000  0.85800000  1.0 0.1364574632
H  H858  1  0.31590000  0.57830000  0.92170000  1.0 0.1515143284
H  H859  1  0.71330000  0.57770000  0.42230000  1.0 0.1364574632
H  H860  1  0.76420000  0.64200000  0.35800000  1.0 0.1364574632
H  H861  1  0.81590000  0.57830000  0.42170000  1.0 0.1515143284
H  H862  1  0.71330000  0.42230000  0.57770000  1.0 0.1364574632
H  H863  1  0.76420000  0.35800000  0.64200000  1.0 0.1364574632
H  H864  1  0.81590000  0.42170000  0.57830000  1.0 0.1515143284
H  H1  1  0.07490000  0.30620000  0.33940000  0.5 0.0441916742
H  H2  1  0.08620000  0.32050000  0.30310000  0.5 0.0517508457
H  H3  1  0.06230000  0.34280000  0.32710000  0.5 0.0517508457
H  H4  1  0.07490000  0.80620000  0.83940000  0.5 0.0441916742
H  H5  1  0.08620000  0.82050000  0.80310000  0.5 0.0517508457
H  H6  1  0.06230000  0.84280000  0.82710000  0.5 0.0517508457
H  H7  1  0.57490000  0.30620000  0.83940000  0.5 0.0441916742
H  H8  1  0.58620000  0.32050000  0.80310000  0.5 0.0517508457
H  H9  1  0.56230000  0.34280000  0.82710000  0.5 0.0517508457
H  H10  1  0.57490000  0.80620000  0.33940000  0.5 0.0441916742
H  H11  1  0.58620000  0.82050000  0.30310000  0.5 0.0517508457
H  H12  1  0.56230000  0.84280000  0.32710000  0.5 0.0517508457
H  H13  1  0.92510000  0.69380000  0.33940000  0.5 0.0441916742
H  H14  1  0.91380000  0.67950000  0.30310000  0.5 0.0517508457
H  H15  1  0.93770000  0.65720000  0.32710000  0.5 0.0517508457
H  H16  1  0.92510000  0.19380000  0.83940000  0.5 0.0441916742
H  H17  1  0.91380000  0.17950000  0.80310000  0.5 0.0517508457
H  H18  1  0.93770000  0.15720000  0.82710000  0.5 0.0517508457
H  H19  1  0.42510000  0.69380000  0.83940000  0.5 0.0441916742
H  H20  1  0.41380000  0.67950000  0.80310000  0.5 0.0517508457
H  H21  1  0.43770000  0.65720000  0.82710000  0.5 0.0517508457
H  H22  1  0.42510000  0.19380000  0.33940000  0.5 0.0441916742
H  H23  1  0.41380000  0.17950000  0.30310000  0.5 0.0517508457
H  H24  1  0.43770000  0.15720000  0.32710000  0.5 0.0517508457
H  H25  1  0.92510000  0.30620000  0.66060000  0.5 0.0441916742
H  H26  1  0.91380000  0.32050000  0.69690000  0.5 0.0517508457
H  H27  1  0.93770000  0.34280000  0.67290000  0.5 0.0517508457
H  H28  1  0.92510000  0.80620000  0.16060000  0.5 0.0441916742
H  H29  1  0.91380000  0.82050000  0.19690000  0.5 0.0517508457
H  H30  1  0.93770000  0.84280000  0.17290000  0.5 0.0517508457
H  H31  1  0.42510000  0.30620000  0.16060000  0.5 0.0441916742
H  H32  1  0.41380000  0.32050000  0.19690000  0.5 0.0517508457
H  H33  1  0.43770000  0.34280000  0.17290000  0.5 0.0517508457
H  H34  1  0.42510000  0.80620000  0.66060000  0.5 0.0441916742
H  H35  1  0.41380000  0.82050000  0.69690000  0.5 0.0517508457
H  H36  1  0.43770000  0.84280000  0.67290000  0.5 0.0517508457
H  H37  1  0.07490000  0.69380000  0.66060000  0.5 0.0441916742
H  H38  1  0.08620000  0.67950000  0.69690000  0.5 0.0517508457
H  H39  1  0.06230000  0.65720000  0.67290000  0.5 0.0517508457
H  H40  1  0.07490000  0.19380000  0.16060000  0.5 0.0441916742
H  H41  1  0.08620000  0.17950000  0.19690000  0.5 0.0517508457
H  H42  1  0.06230000  0.15720000  0.17290000  0.5 0.0517508457
H  H43  1  0.57490000  0.69380000  0.16060000  0.5 0.0441916742
H  H44  1  0.58620000  0.67950000  0.19690000  0.5 0.0517508457
H  H45  1  0.56230000  0.65720000  0.17290000  0.5 0.0517508457
H  H46  1  0.57490000  0.19380000  0.66060000  0.5 0.0441916742
H  H47  1  0.58620000  0.17950000  0.69690000  0.5 0.0517508457
H  H48  1  0.56230000  0.15720000  0.67290000  0.5 0.0517508457
H  H49  1  0.33940000  0.07490000  0.30620000  0.5 0.0441916742
H  H50  1  0.30310000  0.08620000  0.32050000  0.5 0.0517508457
H  H51  1  0.32710000  0.06230000  0.34280000  0.5 0.0517508457
H  H52  1  0.33940000  0.57490000  0.80620000  0.5 0.0441916742
H  H53  1  0.30310000  0.58620000  0.82050000  0.5 0.0517508457
H  H54  1  0.32710000  0.56230000  0.84280000  0.5 0.0517508457
H  H55  1  0.83940000  0.07490000  0.80620000  0.5 0.0441916742
H  H56  1  0.80310000  0.08620000  0.82050000  0.5 0.0517508457
H  H57  1  0.82710000  0.06230000  0.84280000  0.5 0.0517508457
H  H58  1  0.83940000  0.57490000  0.30620000  0.5 0.0441916742
H  H59  1  0.80310000  0.58620000  0.32050000  0.5 0.0517508457
H  H60  1  0.82710000  0.56230000  0.34280000  0.5 0.0517508457
H  H61  1  0.33940000  0.92510000  0.69380000  0.5 0.0441916742
H  H62  1  0.30310000  0.91380000  0.67950000  0.5 0.0517508457
H  H63  1  0.32710000  0.93770000  0.65720000  0.5 0.0517508457
H  H64  1  0.33940000  0.42510000  0.19380000  0.5 0.0441916742
H  H65  1  0.30310000  0.41380000  0.17950000  0.5 0.0517508457
H  H66  1  0.32710000  0.43770000  0.15720000  0.5 0.0517508457
H  H67  1  0.83940000  0.92510000  0.19380000  0.5 0.0441916742
H  H68  1  0.80310000  0.91380000  0.17950000  0.5 0.0517508457
H  H69  1  0.82710000  0.93770000  0.15720000  0.5 0.0517508457
H  H70  1  0.83940000  0.42510000  0.69380000  0.5 0.0441916742
H  H71  1  0.80310000  0.41380000  0.67950000  0.5 0.0517508457
H  H72  1  0.82710000  0.43770000  0.65720000  0.5 0.0517508457
H  H73  1  0.66060000  0.92510000  0.30620000  0.5 0.0441916742
H  H74  1  0.69690000  0.91380000  0.32050000  0.5 0.0517508457
H  H75  1  0.67290000  0.93770000  0.34280000  0.5 0.0517508457
H  H76  1  0.66060000  0.42510000  0.80620000  0.5 0.0441916742
H  H77  1  0.69690000  0.41380000  0.82050000  0.5 0.0517508457
H  H78  1  0.67290000  0.43770000  0.84280000  0.5 0.0517508457
H  H79  1  0.16060000  0.92510000  0.80620000  0.5 0.0441916742
H  H80  1  0.19690000  0.91380000  0.82050000  0.5 0.0517508457
H  H81  1  0.17290000  0.93770000  0.84280000  0.5 0.0517508457
H  H82  1  0.16060000  0.42510000  0.30620000  0.5 0.0441916742
H  H83  1  0.19690000  0.41380000  0.32050000  0.5 0.0517508457
H  H84  1  0.17290000  0.43770000  0.34280000  0.5 0.0517508457
H  H85  1  0.66060000  0.07490000  0.69380000  0.5 0.0441916742
H  H86  1  0.69690000  0.08620000  0.67950000  0.5 0.0517508457
H  H87  1  0.67290000  0.06230000  0.65720000  0.5 0.0517508457
H  H88  1  0.66060000  0.57490000  0.19380000  0.5 0.0441916742
H  H89  1  0.69690000  0.58620000  0.17950000  0.5 0.0517508457
H  H90  1  0.67290000  0.56230000  0.15720000  0.5 0.0517508457
H  H91  1  0.16060000  0.07490000  0.19380000  0.5 0.0441916742
H  H92  1  0.19690000  0.08620000  0.17950000  0.5 0.0517508457
H  H93  1  0.17290000  0.06230000  0.15720000  0.5 0.0517508457
H  H94  1  0.16060000  0.57490000  0.69380000  0.5 0.0441916742
H  H95  1  0.19690000  0.58620000  0.67950000  0.5 0.0517508457
H  H96  1  0.17290000  0.56230000  0.65720000  0.5 0.0517508457
H  H97  1  0.30620000  0.33940000  0.07490000  0.5 0.0441916742
H  H98  1  0.32050000  0.30310000  0.08620000  0.5 0.0517508457
H  H99  1  0.34280000  0.32710000  0.06230000  0.5 0.0517508457
H  H100  1  0.30620000  0.83940000  0.57490000  0.5 0.0441916742
H  H101  1  0.32050000  0.80310000  0.58620000  0.5 0.0517508457
H  H102  1  0.34280000  0.82710000  0.56230000  0.5 0.0517508457
H  H103  1  0.80620000  0.33940000  0.57490000  0.5 0.0441916742
H  H104  1  0.82050000  0.30310000  0.58620000  0.5 0.0517508457
H  H105  1  0.84280000  0.32710000  0.56230000  0.5 0.0517508457
H  H106  1  0.80620000  0.83940000  0.07490000  0.5 0.0441916742
H  H107  1  0.82050000  0.80310000  0.08620000  0.5 0.0517508457
H  H108  1  0.84280000  0.82710000  0.06230000  0.5 0.0517508457
H  H109  1  0.69380000  0.33940000  0.92510000  0.5 0.0441916742
H  H110  1  0.67950000  0.30310000  0.91380000  0.5 0.0517508457
H  H111  1  0.65720000  0.32710000  0.93770000  0.5 0.0517508457
H  H112  1  0.69380000  0.83940000  0.42510000  0.5 0.0441916742
H  H113  1  0.67950000  0.80310000  0.41380000  0.5 0.0517508457
H  H114  1  0.65720000  0.82710000  0.43770000  0.5 0.0517508457
H  H115  1  0.19380000  0.33940000  0.42510000  0.5 0.0441916742
H  H116  1  0.17950000  0.30310000  0.41380000  0.5 0.0517508457
H  H117  1  0.15720000  0.32710000  0.43770000  0.5 0.0517508457
H  H118  1  0.19380000  0.83940000  0.92510000  0.5 0.0441916742
H  H119  1  0.17950000  0.80310000  0.91380000  0.5 0.0517508457
H  H120  1  0.15720000  0.82710000  0.93770000  0.5 0.0517508457
H  H121  1  0.30620000  0.66060000  0.92510000  0.5 0.0441916742
H  H122  1  0.32050000  0.69690000  0.91380000  0.5 0.0517508457
H  H123  1  0.34280000  0.67290000  0.93770000  0.5 0.0517508457
H  H124  1  0.30620000  0.16060000  0.42510000  0.5 0.0441916742
H  H125  1  0.32050000  0.19690000  0.41380000  0.5 0.0517508457
H  H126  1  0.34280000  0.17290000  0.43770000  0.5 0.0517508457
H  H127  1  0.80620000  0.66060000  0.42510000  0.5 0.0441916742
H  H128  1  0.82050000  0.69690000  0.41380000  0.5 0.0517508457
H  H129  1  0.84280000  0.67290000  0.43770000  0.5 0.0517508457
H  H130  1  0.80620000  0.16060000  0.92510000  0.5 0.0441916742
H  H131  1  0.82050000  0.19690000  0.91380000  0.5 0.0517508457
H  H132  1  0.84280000  0.17290000  0.93770000  0.5 0.0517508457
H  H133  1  0.69380000  0.66060000  0.07490000  0.5 0.0441916742
H  H134  1  0.67950000  0.69690000  0.08620000  0.5 0.0517508457
H  H135  1  0.65720000  0.67290000  0.06230000  0.5 0.0517508457
H  H136  1  0.69380000  0.16060000  0.57490000  0.5 0.0441916742
H  H137  1  0.67950000  0.19690000  0.58620000  0.5 0.0517508457
H  H138  1  0.65720000  0.17290000  0.56230000  0.5 0.0517508457
H  H139  1  0.19380000  0.66060000  0.57490000  0.5 0.0441916742
H  H140  1  0.17950000  0.69690000  0.58620000  0.5 0.0517508457
H  H141  1  0.15720000  0.67290000  0.56230000  0.5 0.0517508457
H  H142  1  0.19380000  0.16060000  0.07490000  0.5 0.0441916742
H  H143  1  0.17950000  0.19690000  0.08620000  0.5 0.0517508457
H  H144  1  0.15720000  0.17290000  0.06230000  0.5 0.0517508457
H  H145  1  0.30620000  0.07490000  0.66060000  0.5 0.0441916742
H  H146  1  0.32050000  0.08620000  0.69690000  0.5 0.0517508457
H  H147  1  0.34280000  0.06230000  0.67290000  0.5 0.0517508457
H  H148  1  0.30620000  0.57490000  0.16060000  0.5 0.0441916742
H  H149  1  0.32050000  0.58620000  0.19690000  0.5 0.0517508457
H  H150  1  0.34280000  0.56230000  0.17290000  0.5 0.0517508457
H  H151  1  0.80620000  0.07490000  0.16060000  0.5 0.0441916742
H  H152  1  0.82050000  0.08620000  0.19690000  0.5 0.0517508457
H  H153  1  0.84280000  0.06230000  0.17290000  0.5 0.0517508457
H  H154  1  0.80620000  0.57490000  0.66060000  0.5 0.0441916742
H  H155  1  0.82050000  0.58620000  0.69690000  0.5 0.0517508457
H  H156  1  0.84280000  0.56230000  0.67290000  0.5 0.0517508457
H  H157  1  0.69380000  0.92510000  0.66060000  0.5 0.0441916742
H  H158  1  0.67950000  0.91380000  0.69690000  0.5 0.0517508457
H  H159  1  0.65720000  0.93770000  0.67290000  0.5 0.0517508457
H  H160  1  0.69380000  0.42510000  0.16060000  0.5 0.0441916742
H  H161  1  0.67950000  0.41380000  0.19690000  0.5 0.0517508457
H  H162  1  0.65720000  0.43770000  0.17290000  0.5 0.0517508457
H  H163  1  0.19380000  0.92510000  0.16060000  0.5 0.0441916742
H  H164  1  0.17950000  0.91380000  0.19690000  0.5 0.0517508457
H  H165  1  0.15720000  0.93770000  0.17290000  0.5 0.0517508457
H  H166  1  0.19380000  0.42510000  0.66060000  0.5 0.0441916742
H  H167  1  0.17950000  0.41380000  0.69690000  0.5 0.0517508457
H  H168  1  0.15720000  0.43770000  0.67290000  0.5 0.0517508457
H  H169  1  0.30620000  0.92510000  0.33940000  0.5 0.0441916742
H  H170  1  0.32050000  0.91380000  0.30310000  0.5 0.0517508457
H  H171  1  0.34280000  0.93770000  0.32710000  0.5 0.0517508457
H  H172  1  0.30620000  0.42510000  0.83940000  0.5 0.0441916742
H  H173  1  0.32050000  0.41380000  0.80310000  0.5 0.0517508457
H  H174  1  0.34280000  0.43770000  0.82710000  0.5 0.0517508457
H  H175  1  0.80620000  0.92510000  0.83940000  0.5 0.0441916742
H  H176  1  0.82050000  0.91380000  0.80310000  0.5 0.0517508457
H  H177  1  0.84280000  0.93770000  0.82710000  0.5 0.0517508457
H  H178  1  0.80620000  0.42510000  0.33940000  0.5 0.0441916742
H  H179  1  0.82050000  0.41380000  0.30310000  0.5 0.0517508457
H  H180  1  0.84280000  0.43770000  0.32710000  0.5 0.0517508457
H  H181  1  0.69380000  0.07490000  0.33940000  0.5 0.0441916742
H  H182  1  0.67950000  0.08620000  0.30310000  0.5 0.0517508457
H  H183  1  0.65720000  0.06230000  0.32710000  0.5 0.0517508457
H  H184  1  0.69380000  0.57490000  0.83940000  0.5 0.0441916742
H  H185  1  0.67950000  0.58620000  0.80310000  0.5 0.0517508457
H  H186  1  0.65720000  0.56230000  0.82710000  0.5 0.0517508457
H  H187  1  0.19380000  0.07490000  0.83940000  0.5 0.0441916742
H  H188  1  0.17950000  0.08620000  0.80310000  0.5 0.0517508457
H  H189  1  0.15720000  0.06230000  0.82710000  0.5 0.0517508457
H  H190  1  0.19380000  0.57490000  0.33940000  0.5 0.0441916742
H  H191  1  0.17950000  0.58620000  0.30310000  0.5 0.0517508457
H  H192  1  0.15720000  0.56230000  0.32710000  0.5 0.0517508457
H  H193  1  0.07490000  0.33940000  0.69380000  0.5 0.0441916742
H  H194  1  0.08620000  0.30310000  0.67950000  0.5 0.0517508457
H  H195  1  0.06230000  0.32710000  0.65720000  0.5 0.0517508457
H  H196  1  0.07490000  0.83940000  0.19380000  0.5 0.0441916742
H  H197  1  0.08620000  0.80310000  0.17950000  0.5 0.0517508457
H  H198  1  0.06230000  0.82710000  0.15720000  0.5 0.0517508457
H  H199  1  0.57490000  0.33940000  0.19380000  0.5 0.0441916742
H  H200  1  0.58620000  0.30310000  0.17950000  0.5 0.0517508457
H  H201  1  0.56230000  0.32710000  0.15720000  0.5 0.0517508457
H  H202  1  0.57490000  0.83940000  0.69380000  0.5 0.0441916742
H  H203  1  0.58620000  0.80310000  0.67950000  0.5 0.0517508457
H  H204  1  0.56230000  0.82710000  0.65720000  0.5 0.0517508457
H  H205  1  0.92510000  0.33940000  0.30620000  0.5 0.0441916742
H  H206  1  0.91380000  0.30310000  0.32050000  0.5 0.0517508457
H  H207  1  0.93770000  0.32710000  0.34280000  0.5 0.0517508457
H  H208  1  0.92510000  0.83940000  0.80620000  0.5 0.0441916742
H  H209  1  0.91380000  0.80310000  0.82050000  0.5 0.0517508457
H  H210  1  0.93770000  0.82710000  0.84280000  0.5 0.0517508457
H  H211  1  0.42510000  0.33940000  0.80620000  0.5 0.0441916742
H  H212  1  0.41380000  0.30310000  0.82050000  0.5 0.0517508457
H  H213  1  0.43770000  0.32710000  0.84280000  0.5 0.0517508457
H  H214  1  0.42510000  0.83940000  0.30620000  0.5 0.0441916742
H  H215  1  0.41380000  0.80310000  0.32050000  0.5 0.0517508457
H  H216  1  0.43770000  0.82710000  0.34280000  0.5 0.0517508457
H  H217  1  0.92510000  0.66060000  0.69380000  0.5 0.0441916742
H  H218  1  0.91380000  0.69690000  0.67950000  0.5 0.0517508457
H  H219  1  0.93770000  0.67290000  0.65720000  0.5 0.0517508457
H  H220  1  0.92510000  0.16060000  0.19380000  0.5 0.0441916742
H  H221  1  0.91380000  0.19690000  0.17950000  0.5 0.0517508457
H  H222  1  0.93770000  0.17290000  0.15720000  0.5 0.0517508457
H  H223  1  0.42510000  0.66060000  0.19380000  0.5 0.0441916742
H  H224  1  0.41380000  0.69690000  0.17950000  0.5 0.0517508457
H  H225  1  0.43770000  0.67290000  0.15720000  0.5 0.0517508457
H  H226  1  0.42510000  0.16060000  0.69380000  0.5 0.0441916742
H  H227  1  0.41380000  0.19690000  0.67950000  0.5 0.0517508457
H  H228  1  0.43770000  0.17290000  0.65720000  0.5 0.0517508457
H  H229  1  0.07490000  0.66060000  0.30620000  0.5 0.0441916742
H  H230  1  0.08620000  0.69690000  0.32050000  0.5 0.0517508457
H  H231  1  0.06230000  0.67290000  0.34280000  0.5 0.0517508457
H  H232  1  0.07490000  0.16060000  0.80620000  0.5 0.0441916742
H  H233  1  0.08620000  0.19690000  0.82050000  0.5 0.0517508457
H  H234  1  0.06230000  0.17290000  0.84280000  0.5 0.0517508457
H  H235  1  0.57490000  0.66060000  0.80620000  0.5 0.0441916742
H  H236  1  0.58620000  0.69690000  0.82050000  0.5 0.0517508457
H  H237  1  0.56230000  0.67290000  0.84280000  0.5 0.0517508457
H  H238  1  0.57490000  0.16060000  0.30620000  0.5 0.0441916742
H  H239  1  0.58620000  0.19690000  0.32050000  0.5 0.0517508457
H  H240  1  0.56230000  0.17290000  0.34280000  0.5 0.0517508457
H  H241  1  0.33940000  0.30620000  0.92510000  0.5 0.0441916742
H  H242  1  0.30310000  0.32050000  0.91380000  0.5 0.0517508457
H  H243  1  0.32710000  0.34280000  0.93770000  0.5 0.0517508457
H  H244  1  0.33940000  0.80620000  0.42510000  0.5 0.0441916742
H  H245  1  0.30310000  0.82050000  0.41380000  0.5 0.0517508457
H  H246  1  0.32710000  0.84280000  0.43770000  0.5 0.0517508457
H  H247  1  0.83940000  0.30620000  0.42510000  0.5 0.0441916742
H  H248  1  0.80310000  0.32050000  0.41380000  0.5 0.0517508457
H  H249  1  0.82710000  0.34280000  0.43770000  0.5 0.0517508457
H  H250  1  0.83940000  0.80620000  0.92510000  0.5 0.0441916742
H  H251  1  0.80310000  0.82050000  0.91380000  0.5 0.0517508457
H  H252  1  0.82710000  0.84280000  0.93770000  0.5 0.0517508457
H  H253  1  0.33940000  0.69380000  0.07490000  0.5 0.0441916742
H  H254  1  0.30310000  0.67950000  0.08620000  0.5 0.0517508457
H  H255  1  0.32710000  0.65720000  0.06230000  0.5 0.0517508457
H  H256  1  0.33940000  0.19380000  0.57490000  0.5 0.0441916742
H  H257  1  0.30310000  0.17950000  0.58620000  0.5 0.0517508457
H  H258  1  0.32710000  0.15720000  0.56230000  0.5 0.0517508457
H  H259  1  0.83940000  0.69380000  0.57490000  0.5 0.0441916742
H  H260  1  0.80310000  0.67950000  0.58620000  0.5 0.0517508457
H  H261  1  0.82710000  0.65720000  0.56230000  0.5 0.0517508457
H  H262  1  0.83940000  0.19380000  0.07490000  0.5 0.0441916742
H  H263  1  0.80310000  0.17950000  0.08620000  0.5 0.0517508457
H  H264  1  0.82710000  0.15720000  0.06230000  0.5 0.0517508457
H  H265  1  0.66060000  0.30620000  0.07490000  0.5 0.0441916742
H  H266  1  0.69690000  0.32050000  0.08620000  0.5 0.0517508457
H  H267  1  0.67290000  0.34280000  0.06230000  0.5 0.0517508457
H  H268  1  0.66060000  0.80620000  0.57490000  0.5 0.0441916742
H  H269  1  0.69690000  0.82050000  0.58620000  0.5 0.0517508457
H  H270  1  0.67290000  0.84280000  0.56230000  0.5 0.0517508457
H  H271  1  0.16060000  0.30620000  0.57490000  0.5 0.0441916742
H  H272  1  0.19690000  0.32050000  0.58620000  0.5 0.0517508457
H  H273  1  0.17290000  0.34280000  0.56230000  0.5 0.0517508457
H  H274  1  0.16060000  0.80620000  0.07490000  0.5 0.0441916742
H  H275  1  0.19690000  0.82050000  0.08620000  0.5 0.0517508457
H  H276  1  0.17290000  0.84280000  0.06230000  0.5 0.0517508457
H  H277  1  0.66060000  0.69380000  0.92510000  0.5 0.0441916742
H  H278  1  0.69690000  0.67950000  0.91380000  0.5 0.0517508457
H  H279  1  0.67290000  0.65720000  0.93770000  0.5 0.0517508457
H  H280  1  0.66060000  0.19380000  0.42510000  0.5 0.0441916742
H  H281  1  0.69690000  0.17950000  0.41380000  0.5 0.0517508457
H  H282  1  0.67290000  0.15720000  0.43770000  0.5 0.0517508457
H  H283  1  0.16060000  0.69380000  0.42510000  0.5 0.0441916742
H  H284  1  0.19690000  0.67950000  0.41380000  0.5 0.0517508457
H  H285  1  0.17290000  0.65720000  0.43770000  0.5 0.0517508457
H  H286  1  0.16060000  0.19380000  0.92510000  0.5 0.0441916742
H  H287  1  0.19690000  0.17950000  0.91380000  0.5 0.0517508457
H  H288  1  0.17290000  0.15720000  0.93770000  0.5 0.0517508457
H  H289  1  0.92510000  0.69380000  0.66060000  0.5 0.0441916742
H  H290  1  0.91380000  0.67950000  0.69690000  0.5 0.0517508457
H  H291  1  0.93770000  0.65720000  0.67290000  0.5 0.0517508457
H  H292  1  0.92510000  0.19380000  0.16060000  0.5 0.0441916742
H  H293  1  0.91380000  0.17950000  0.19690000  0.5 0.0517508457
H  H294  1  0.93770000  0.15720000  0.17290000  0.5 0.0517508457
H  H295  1  0.42510000  0.69380000  0.16060000  0.5 0.0441916742
H  H296  1  0.41380000  0.67950000  0.19690000  0.5 0.0517508457
H  H297  1  0.43770000  0.65720000  0.17290000  0.5 0.0517508457
H  H298  1  0.42510000  0.19380000  0.66060000  0.5 0.0441916742
H  H299  1  0.41380000  0.17950000  0.69690000  0.5 0.0517508457
H  H300  1  0.43770000  0.15720000  0.67290000  0.5 0.0517508457
H  H301  1  0.07490000  0.30620000  0.66060000  0.5 0.0441916742
H  H302  1  0.08620000  0.32050000  0.69690000  0.5 0.0517508457
H  H303  1  0.06230000  0.34280000  0.67290000  0.5 0.0517508457
H  H304  1  0.07490000  0.80620000  0.16060000  0.5 0.0441916742
H  H305  1  0.08620000  0.82050000  0.19690000  0.5 0.0517508457
H  H306  1  0.06230000  0.84280000  0.17290000  0.5 0.0517508457
H  H307  1  0.57490000  0.30620000  0.16060000  0.5 0.0441916742
H  H308  1  0.58620000  0.32050000  0.19690000  0.5 0.0517508457
H  H309  1  0.56230000  0.34280000  0.17290000  0.5 0.0517508457
H  H310  1  0.57490000  0.80620000  0.66060000  0.5 0.0441916742
H  H311  1  0.58620000  0.82050000  0.69690000  0.5 0.0517508457
H  H312  1  0.56230000  0.84280000  0.67290000  0.5 0.0517508457
H  H313  1  0.07490000  0.69380000  0.33940000  0.5 0.0441916742
H  H314  1  0.08620000  0.67950000  0.30310000  0.5 0.0517508457
H  H315  1  0.06230000  0.65720000  0.32710000  0.5 0.0517508457
H  H316  1  0.07490000  0.19380000  0.83940000  0.5 0.0441916742
H  H317  1  0.08620000  0.17950000  0.80310000  0.5 0.0517508457
H  H318  1  0.06230000  0.15720000  0.82710000  0.5 0.0517508457
H  H319  1  0.57490000  0.69380000  0.83940000  0.5 0.0441916742
H  H320  1  0.58620000  0.67950000  0.80310000  0.5 0.0517508457
H  H321  1  0.56230000  0.65720000  0.82710000  0.5 0.0517508457
H  H322  1  0.57490000  0.19380000  0.33940000  0.5 0.0441916742
H  H323  1  0.58620000  0.17950000  0.30310000  0.5 0.0517508457
H  H324  1  0.56230000  0.15720000  0.32710000  0.5 0.0517508457
H  H325  1  0.92510000  0.30620000  0.33940000  0.5 0.0441916742
H  H326  1  0.91380000  0.32050000  0.30310000  0.5 0.0517508457
H  H327  1  0.93770000  0.34280000  0.32710000  0.5 0.0517508457
H  H328  1  0.92510000  0.80620000  0.83940000  0.5 0.0441916742
H  H329  1  0.91380000  0.82050000  0.80310000  0.5 0.0517508457
H  H330  1  0.93770000  0.84280000  0.82710000  0.5 0.0517508457
H  H331  1  0.42510000  0.30620000  0.83940000  0.5 0.0441916742
H  H332  1  0.41380000  0.32050000  0.80310000  0.5 0.0517508457
H  H333  1  0.43770000  0.34280000  0.82710000  0.5 0.0517508457
H  H334  1  0.42510000  0.80620000  0.33940000  0.5 0.0441916742
H  H335  1  0.41380000  0.82050000  0.30310000  0.5 0.0517508457
H  H336  1  0.43770000  0.84280000  0.32710000  0.5 0.0517508457
H  H337  1  0.66060000  0.92510000  0.69380000  0.5 0.0441916742
H  H338  1  0.69690000  0.91380000  0.67950000  0.5 0.0517508457
H  H339  1  0.67290000  0.93770000  0.65720000  0.5 0.0517508457
H  H340  1  0.66060000  0.42510000  0.19380000  0.5 0.0441916742
H  H341  1  0.69690000  0.41380000  0.17950000  0.5 0.0517508457
H  H342  1  0.67290000  0.43770000  0.15720000  0.5 0.0517508457
H  H343  1  0.16060000  0.92510000  0.19380000  0.5 0.0441916742
H  H344  1  0.19690000  0.91380000  0.17950000  0.5 0.0517508457
H  H345  1  0.17290000  0.93770000  0.15720000  0.5 0.0517508457
H  H346  1  0.16060000  0.42510000  0.69380000  0.5 0.0441916742
H  H347  1  0.19690000  0.41380000  0.67950000  0.5 0.0517508457
H  H348  1  0.17290000  0.43770000  0.65720000  0.5 0.0517508457
H  H349  1  0.66060000  0.07490000  0.30620000  0.5 0.0441916742
H  H350  1  0.69690000  0.08620000  0.32050000  0.5 0.0517508457
H  H351  1  0.67290000  0.06230000  0.34280000  0.5 0.0517508457
H  H352  1  0.66060000  0.57490000  0.80620000  0.5 0.0441916742
H  H353  1  0.69690000  0.58620000  0.82050000  0.5 0.0517508457
H  H354  1  0.67290000  0.56230000  0.84280000  0.5 0.0517508457
H  H355  1  0.16060000  0.07490000  0.80620000  0.5 0.0441916742
H  H356  1  0.19690000  0.08620000  0.82050000  0.5 0.0517508457
H  H357  1  0.17290000  0.06230000  0.84280000  0.5 0.0517508457
H  H358  1  0.16060000  0.57490000  0.30620000  0.5 0.0441916742
H  H359  1  0.19690000  0.58620000  0.32050000  0.5 0.0517508457
H  H360  1  0.17290000  0.56230000  0.34280000  0.5 0.0517508457
H  H361  1  0.33940000  0.07490000  0.69380000  0.5 0.0441916742
H  H362  1  0.30310000  0.08620000  0.67950000  0.5 0.0517508457
H  H363  1  0.32710000  0.06230000  0.65720000  0.5 0.0517508457
H  H364  1  0.33940000  0.57490000  0.19380000  0.5 0.0441916742
H  H365  1  0.30310000  0.58620000  0.17950000  0.5 0.0517508457
H  H366  1  0.32710000  0.56230000  0.15720000  0.5 0.0517508457
H  H367  1  0.83940000  0.07490000  0.19380000  0.5 0.0441916742
H  H368  1  0.80310000  0.08620000  0.17950000  0.5 0.0517508457
H  H369  1  0.82710000  0.06230000  0.15720000  0.5 0.0517508457
H  H370  1  0.83940000  0.57490000  0.69380000  0.5 0.0441916742
H  H371  1  0.80310000  0.58620000  0.67950000  0.5 0.0517508457
H  H372  1  0.82710000  0.56230000  0.65720000  0.5 0.0517508457
H  H373  1  0.33940000  0.92510000  0.30620000  0.5 0.0441916742
H  H374  1  0.30310000  0.91380000  0.32050000  0.5 0.0517508457
H  H375  1  0.32710000  0.93770000  0.34280000  0.5 0.0517508457
H  H376  1  0.33940000  0.42510000  0.80620000  0.5 0.0441916742
H  H377  1  0.30310000  0.41380000  0.82050000  0.5 0.0517508457
H  H378  1  0.32710000  0.43770000  0.84280000  0.5 0.0517508457
H  H379  1  0.83940000  0.92510000  0.80620000  0.5 0.0441916742
H  H380  1  0.80310000  0.91380000  0.82050000  0.5 0.0517508457
H  H381  1  0.82710000  0.93770000  0.84280000  0.5 0.0517508457
H  H382  1  0.83940000  0.42510000  0.30620000  0.5 0.0441916742
H  H383  1  0.80310000  0.41380000  0.32050000  0.5 0.0517508457
H  H384  1  0.82710000  0.43770000  0.34280000  0.5 0.0517508457
H  H385  1  0.69380000  0.66060000  0.92510000  0.5 0.0441916742
H  H386  1  0.67950000  0.69690000  0.91380000  0.5 0.0517508457
H  H387  1  0.65720000  0.67290000  0.93770000  0.5 0.0517508457
H  H388  1  0.69380000  0.16060000  0.42510000  0.5 0.0441916742
H  H389  1  0.67950000  0.19690000  0.41380000  0.5 0.0517508457
H  H390  1  0.65720000  0.17290000  0.43770000  0.5 0.0517508457
H  H391  1  0.19380000  0.66060000  0.42510000  0.5 0.0441916742
H  H392  1  0.17950000  0.69690000  0.41380000  0.5 0.0517508457
H  H393  1  0.15720000  0.67290000  0.43770000  0.5 0.0517508457
H  H394  1  0.19380000  0.16060000  0.92510000  0.5 0.0441916742
H  H395  1  0.17950000  0.19690000  0.91380000  0.5 0.0517508457
H  H396  1  0.15720000  0.17290000  0.93770000  0.5 0.0517508457
H  H397  1  0.30620000  0.66060000  0.07490000  0.5 0.0441916742
H  H398  1  0.32050000  0.69690000  0.08620000  0.5 0.0517508457
H  H399  1  0.34280000  0.67290000  0.06230000  0.5 0.0517508457
H  H400  1  0.30620000  0.16060000  0.57490000  0.5 0.0441916742
H  H401  1  0.32050000  0.19690000  0.58620000  0.5 0.0517508457
H  H402  1  0.34280000  0.17290000  0.56230000  0.5 0.0517508457
H  H403  1  0.80620000  0.66060000  0.57490000  0.5 0.0441916742
H  H404  1  0.82050000  0.69690000  0.58620000  0.5 0.0517508457
H  H405  1  0.84280000  0.67290000  0.56230000  0.5 0.0517508457
H  H406  1  0.80620000  0.16060000  0.07490000  0.5 0.0441916742
H  H407  1  0.82050000  0.19690000  0.08620000  0.5 0.0517508457
H  H408  1  0.84280000  0.17290000  0.06230000  0.5 0.0517508457
H  H409  1  0.69380000  0.33940000  0.07490000  0.5 0.0441916742
H  H410  1  0.67950000  0.30310000  0.08620000  0.5 0.0517508457
H  H411  1  0.65720000  0.32710000  0.06230000  0.5 0.0517508457
H  H412  1  0.69380000  0.83940000  0.57490000  0.5 0.0441916742
H  H413  1  0.67950000  0.80310000  0.58620000  0.5 0.0517508457
H  H414  1  0.65720000  0.82710000  0.56230000  0.5 0.0517508457
H  H415  1  0.19380000  0.33940000  0.57490000  0.5 0.0441916742
H  H416  1  0.17950000  0.30310000  0.58620000  0.5 0.0517508457
H  H417  1  0.15720000  0.32710000  0.56230000  0.5 0.0517508457
H  H418  1  0.19380000  0.83940000  0.07490000  0.5 0.0441916742
H  H419  1  0.17950000  0.80310000  0.08620000  0.5 0.0517508457
H  H420  1  0.15720000  0.82710000  0.06230000  0.5 0.0517508457
H  H421  1  0.30620000  0.33940000  0.92510000  0.5 0.0441916742
H  H422  1  0.32050000  0.30310000  0.91380000  0.5 0.0517508457
H  H423  1  0.34280000  0.32710000  0.93770000  0.5 0.0517508457
H  H424  1  0.30620000  0.83940000  0.42510000  0.5 0.0441916742
H  H425  1  0.32050000  0.80310000  0.41380000  0.5 0.0517508457
H  H426  1  0.34280000  0.82710000  0.43770000  0.5 0.0517508457
H  H427  1  0.80620000  0.33940000  0.42510000  0.5 0.0441916742
H  H428  1  0.82050000  0.30310000  0.41380000  0.5 0.0517508457
H  H429  1  0.84280000  0.32710000  0.43770000  0.5 0.0517508457
H  H430  1  0.80620000  0.83940000  0.92510000  0.5 0.0441916742
H  H431  1  0.82050000  0.80310000  0.91380000  0.5 0.0517508457
H  H432  1  0.84280000  0.82710000  0.93770000  0.5 0.0517508457
H  H433  1  0.69380000  0.92510000  0.33940000  0.5 0.0441916742
H  H434  1  0.67950000  0.91380000  0.30310000  0.5 0.0517508457
H  H435  1  0.65720000  0.93770000  0.32710000  0.5 0.0517508457
H  H436  1  0.69380000  0.42510000  0.83940000  0.5 0.0441916742
H  H437  1  0.67950000  0.41380000  0.80310000  0.5 0.0517508457
H  H438  1  0.65720000  0.43770000  0.82710000  0.5 0.0517508457
H  H439  1  0.19380000  0.92510000  0.83940000  0.5 0.0441916742
H  H440  1  0.17950000  0.91380000  0.80310000  0.5 0.0517508457
H  H441  1  0.15720000  0.93770000  0.82710000  0.5 0.0517508457
H  H442  1  0.19380000  0.42510000  0.33940000  0.5 0.0441916742
H  H443  1  0.17950000  0.41380000  0.30310000  0.5 0.0517508457
H  H444  1  0.15720000  0.43770000  0.32710000  0.5 0.0517508457
H  H445  1  0.30620000  0.07490000  0.33940000  0.5 0.0441916742
H  H446  1  0.32050000  0.08620000  0.30310000  0.5 0.0517508457
H  H447  1  0.34280000  0.06230000  0.32710000  0.5 0.0517508457
H  H448  1  0.30620000  0.57490000  0.83940000  0.5 0.0441916742
H  H449  1  0.32050000  0.58620000  0.80310000  0.5 0.0517508457
H  H450  1  0.34280000  0.56230000  0.82710000  0.5 0.0517508457
H  H451  1  0.80620000  0.07490000  0.83940000  0.5 0.0441916742
H  H452  1  0.82050000  0.08620000  0.80310000  0.5 0.0517508457
H  H453  1  0.84280000  0.06230000  0.82710000  0.5 0.0517508457
H  H454  1  0.80620000  0.57490000  0.33940000  0.5 0.0441916742
H  H455  1  0.82050000  0.58620000  0.30310000  0.5 0.0517508457
H  H456  1  0.84280000  0.56230000  0.32710000  0.5 0.0517508457
H  H457  1  0.69380000  0.07490000  0.66060000  0.5 0.0441916742
H  H458  1  0.67950000  0.08620000  0.69690000  0.5 0.0517508457
H  H459  1  0.65720000  0.06230000  0.67290000  0.5 0.0517508457
H  H460  1  0.69380000  0.57490000  0.16060000  0.5 0.0441916742
H  H461  1  0.67950000  0.58620000  0.19690000  0.5 0.0517508457
H  H462  1  0.65720000  0.56230000  0.17290000  0.5 0.0517508457
H  H463  1  0.19380000  0.07490000  0.16060000  0.5 0.0441916742
H  H464  1  0.17950000  0.08620000  0.19690000  0.5 0.0517508457
H  H465  1  0.15720000  0.06230000  0.17290000  0.5 0.0517508457
H  H466  1  0.19380000  0.57490000  0.66060000  0.5 0.0441916742
H  H467  1  0.17950000  0.58620000  0.69690000  0.5 0.0517508457
H  H468  1  0.15720000  0.56230000  0.67290000  0.5 0.0517508457
H  H469  1  0.30620000  0.92510000  0.66060000  0.5 0.0441916742
H  H470  1  0.32050000  0.91380000  0.69690000  0.5 0.0517508457
H  H471  1  0.34280000  0.93770000  0.67290000  0.5 0.0517508457
H  H472  1  0.30620000  0.42510000  0.16060000  0.5 0.0441916742
H  H473  1  0.32050000  0.41380000  0.19690000  0.5 0.0517508457
H  H474  1  0.34280000  0.43770000  0.17290000  0.5 0.0517508457
H  H475  1  0.80620000  0.92510000  0.16060000  0.5 0.0441916742
H  H476  1  0.82050000  0.91380000  0.19690000  0.5 0.0517508457
H  H477  1  0.84280000  0.93770000  0.17290000  0.5 0.0517508457
H  H478  1  0.80620000  0.42510000  0.66060000  0.5 0.0441916742
H  H479  1  0.82050000  0.41380000  0.69690000  0.5 0.0517508457
H  H480  1  0.84280000  0.43770000  0.67290000  0.5 0.0517508457
H  H481  1  0.92510000  0.66060000  0.30620000  0.5 0.0441916742
H  H482  1  0.91380000  0.69690000  0.32050000  0.5 0.0517508457
H  H483  1  0.93770000  0.67290000  0.34280000  0.5 0.0517508457
H  H484  1  0.92510000  0.16060000  0.80620000  0.5 0.0441916742
H  H485  1  0.91380000  0.19690000  0.82050000  0.5 0.0517508457
H  H486  1  0.93770000  0.17290000  0.84280000  0.5 0.0517508457
H  H487  1  0.42510000  0.66060000  0.80620000  0.5 0.0441916742
H  H488  1  0.41380000  0.69690000  0.82050000  0.5 0.0517508457
H  H489  1  0.43770000  0.67290000  0.84280000  0.5 0.0517508457
H  H490  1  0.42510000  0.16060000  0.30620000  0.5 0.0441916742
H  H491  1  0.41380000  0.19690000  0.32050000  0.5 0.0517508457
H  H492  1  0.43770000  0.17290000  0.34280000  0.5 0.0517508457
H  H493  1  0.07490000  0.66060000  0.69380000  0.5 0.0441916742
H  H494  1  0.08620000  0.69690000  0.67950000  0.5 0.0517508457
H  H495  1  0.06230000  0.67290000  0.65720000  0.5 0.0517508457
H  H496  1  0.07490000  0.16060000  0.19380000  0.5 0.0441916742
H  H497  1  0.08620000  0.19690000  0.17950000  0.5 0.0517508457
H  H498  1  0.06230000  0.17290000  0.15720000  0.5 0.0517508457
H  H499  1  0.57490000  0.66060000  0.19380000  0.5 0.0441916742
H  H500  1  0.58620000  0.69690000  0.17950000  0.5 0.0517508457
H  H501  1  0.56230000  0.67290000  0.15720000  0.5 0.0517508457
H  H502  1  0.57490000  0.16060000  0.69380000  0.5 0.0441916742
H  H503  1  0.58620000  0.19690000  0.67950000  0.5 0.0517508457
H  H504  1  0.56230000  0.17290000  0.65720000  0.5 0.0517508457
H  H505  1  0.07490000  0.33940000  0.30620000  0.5 0.0441916742
H  H506  1  0.08620000  0.30310000  0.32050000  0.5 0.0517508457
H  H507  1  0.06230000  0.32710000  0.34280000  0.5 0.0517508457
H  H508  1  0.07490000  0.83940000  0.80620000  0.5 0.0441916742
H  H509  1  0.08620000  0.80310000  0.82050000  0.5 0.0517508457
H  H510  1  0.06230000  0.82710000  0.84280000  0.5 0.0517508457
H  H511  1  0.57490000  0.33940000  0.80620000  0.5 0.0441916742
H  H512  1  0.58620000  0.30310000  0.82050000  0.5 0.0517508457
H  H513  1  0.56230000  0.32710000  0.84280000  0.5 0.0517508457
H  H514  1  0.57490000  0.83940000  0.30620000  0.5 0.0441916742
H  H515  1  0.58620000  0.80310000  0.32050000  0.5 0.0517508457
H  H516  1  0.56230000  0.82710000  0.34280000  0.5 0.0517508457
H  H517  1  0.92510000  0.33940000  0.69380000  0.5 0.0441916742
H  H518  1  0.91380000  0.30310000  0.67950000  0.5 0.0517508457
H  H519  1  0.93770000  0.32710000  0.65720000  0.5 0.0517508457
H  H520  1  0.92510000  0.83940000  0.19380000  0.5 0.0441916742
H  H521  1  0.91380000  0.80310000  0.17950000  0.5 0.0517508457
H  H522  1  0.93770000  0.82710000  0.15720000  0.5 0.0517508457
H  H523  1  0.42510000  0.33940000  0.19380000  0.5 0.0441916742
H  H524  1  0.41380000  0.30310000  0.17950000  0.5 0.0517508457
H  H525  1  0.43770000  0.32710000  0.15720000  0.5 0.0517508457
H  H526  1  0.42510000  0.83940000  0.69380000  0.5 0.0441916742
H  H527  1  0.41380000  0.80310000  0.67950000  0.5 0.0517508457
H  H528  1  0.43770000  0.82710000  0.65720000  0.5 0.0517508457
H  H529  1  0.66060000  0.69380000  0.07490000  0.5 0.0441916742
H  H530  1  0.69690000  0.67950000  0.08620000  0.5 0.0517508457
H  H531  1  0.67290000  0.65720000  0.06230000  0.5 0.0517508457
H  H532  1  0.66060000  0.19380000  0.57490000  0.5 0.0441916742
H  H533  1  0.69690000  0.17950000  0.58620000  0.5 0.0517508457
H  H534  1  0.67290000  0.15720000  0.56230000  0.5 0.0517508457
H  H535  1  0.16060000  0.69380000  0.57490000  0.5 0.0441916742
H  H536  1  0.19690000  0.67950000  0.58620000  0.5 0.0517508457
H  H537  1  0.17290000  0.65720000  0.56230000  0.5 0.0517508457
H  H538  1  0.16060000  0.19380000  0.07490000  0.5 0.0441916742
H  H539  1  0.19690000  0.17950000  0.08620000  0.5 0.0517508457
H  H540  1  0.17290000  0.15720000  0.06230000  0.5 0.0517508457
H  H541  1  0.66060000  0.30620000  0.92510000  0.5 0.0441916742
H  H542  1  0.69690000  0.32050000  0.91380000  0.5 0.0517508457
H  H543  1  0.67290000  0.34280000  0.93770000  0.5 0.0517508457
H  H544  1  0.66060000  0.80620000  0.42510000  0.5 0.0441916742
H  H545  1  0.69690000  0.82050000  0.41380000  0.5 0.0517508457
H  H546  1  0.67290000  0.84280000  0.43770000  0.5 0.0517508457
H  H547  1  0.16060000  0.30620000  0.42510000  0.5 0.0441916742
H  H548  1  0.19690000  0.32050000  0.41380000  0.5 0.0517508457
H  H549  1  0.17290000  0.34280000  0.43770000  0.5 0.0517508457
H  H550  1  0.16060000  0.80620000  0.92510000  0.5 0.0441916742
H  H551  1  0.19690000  0.82050000  0.91380000  0.5 0.0517508457
H  H552  1  0.17290000  0.84280000  0.93770000  0.5 0.0517508457
H  H553  1  0.33940000  0.69380000  0.92510000  0.5 0.0441916742
H  H554  1  0.30310000  0.67950000  0.91380000  0.5 0.0517508457
H  H555  1  0.32710000  0.65720000  0.93770000  0.5 0.0517508457
H  H556  1  0.33940000  0.19380000  0.42510000  0.5 0.0441916742
H  H557  1  0.30310000  0.17950000  0.41380000  0.5 0.0517508457
H  H558  1  0.32710000  0.15720000  0.43770000  0.5 0.0517508457
H  H559  1  0.83940000  0.69380000  0.42510000  0.5 0.0441916742
H  H560  1  0.80310000  0.67950000  0.41380000  0.5 0.0517508457
H  H561  1  0.82710000  0.65720000  0.43770000  0.5 0.0517508457
H  H562  1  0.83940000  0.19380000  0.92510000  0.5 0.0441916742
H  H563  1  0.80310000  0.17950000  0.91380000  0.5 0.0517508457
H  H564  1  0.82710000  0.15720000  0.93770000  0.5 0.0517508457
H  H565  1  0.33940000  0.30620000  0.07490000  0.5 0.0441916742
H  H566  1  0.30310000  0.32050000  0.08620000  0.5 0.0517508457
H  H567  1  0.32710000  0.34280000  0.06230000  0.5 0.0517508457
H  H568  1  0.33940000  0.80620000  0.57490000  0.5 0.0441916742
H  H569  1  0.30310000  0.82050000  0.58620000  0.5 0.0517508457
H  H570  1  0.32710000  0.84280000  0.56230000  0.5 0.0517508457
H  H571  1  0.83940000  0.30620000  0.57490000  0.5 0.0441916742
H  H572  1  0.80310000  0.32050000  0.58620000  0.5 0.0517508457
H  H573  1  0.82710000  0.34280000  0.56230000  0.5 0.0517508457
H  H574  1  0.83940000  0.80620000  0.07490000  0.5 0.0441916742
H  H575  1  0.80310000  0.82050000  0.08620000  0.5 0.0517508457
H  H576  1  0.82710000  0.84280000  0.06230000  0.5 0.0517508457
C  C1  1  0.04675000  0.45325000  0.26620000  1.0 0.5988496853
C  C2  1  0.07395000  0.42605000  0.26590000  1.0 -0.0693148046
C  C3  1  0.08647000  0.41353000  0.23390000  1.0 -0.0214216204
C  C4  1  0.11215000  0.38785000  0.23340000  1.0 -0.0337858005
C  C5  1  0.12497000  0.37503000  0.26460000  1.0 -0.0808255195
C  C6  1  0.11290000  0.38710000  0.29640000  1.0 0.0607339047
C  C7  1  0.08680000  0.41320000  0.29500000  1.0 -0.0693148046
C  C8  1  0.12552000  0.37448000  0.20020000  1.0 0.5988496853
C  C9  1  0.12715000  0.37285000  0.32870000  1.0 -0.0476665784
C  C10  1  0.04675000  0.95325000  0.76620000  1.0 0.5988496853
C  C11  1  0.07395000  0.92605000  0.76590000  1.0 -0.0693148046
C  C12  1  0.08647000  0.91353000  0.73390000  1.0 -0.0214216204
C  C13  1  0.11215000  0.88785000  0.73340000  1.0 -0.0337858005
C  C14  1  0.12497000  0.87503000  0.76460000  1.0 -0.0808255195
C  C15  1  0.11290000  0.88710000  0.79640000  1.0 0.0607339047
C  C16  1  0.08680000  0.91320000  0.79500000  1.0 -0.0693148046
C  C17  1  0.12552000  0.87448000  0.70020000  1.0 0.5988496853
C  C18  1  0.12715000  0.87285000  0.82870000  1.0 -0.0476665784
C  C19  1  0.95325000  0.54675000  0.26620000  1.0 0.5988496853
C  C20  1  0.92605000  0.57395000  0.26590000  1.0 -0.0693148046
C  C21  1  0.91353000  0.58647000  0.23390000  1.0 -0.0214216204
C  C22  1  0.88785000  0.61215000  0.23340000  1.0 -0.0337858005
C  C23  1  0.87503000  0.62497000  0.26460000  1.0 -0.0808255195
C  C24  1  0.88710000  0.61290000  0.29640000  1.0 0.0607339047
C  C25  1  0.91320000  0.58680000  0.29500000  1.0 -0.0693148046
C  C26  1  0.87448000  0.62552000  0.20020000  1.0 0.5988496853
C  C27  1  0.87285000  0.62715000  0.32870000  1.0 -0.0476665784
C  C28  1  0.95325000  0.04675000  0.76620000  1.0 0.5988496853
C  C29  1  0.92605000  0.07395000  0.76590000  1.0 -0.0693148046
C  C30  1  0.91353000  0.08647000  0.73390000  1.0 -0.0214216204
C  C31  1  0.88785000  0.11215000  0.73340000  1.0 -0.0337858005
C  C32  1  0.87503000  0.12497000  0.76460000  1.0 -0.0808255195
C  C33  1  0.88710000  0.11290000  0.79640000  1.0 0.0607339047
C  C34  1  0.91320000  0.08680000  0.79500000  1.0 -0.0693148046
C  C35  1  0.87448000  0.12552000  0.70020000  1.0 0.5988496853
C  C36  1  0.87285000  0.12715000  0.82870000  1.0 -0.0476665784
C  C37  1  0.45325000  0.04675000  0.26620000  1.0 0.5988496853
C  C38  1  0.42605000  0.07395000  0.26590000  1.0 -0.0693148046
C  C39  1  0.41353000  0.08647000  0.23390000  1.0 -0.0214216204
C  C40  1  0.38785000  0.11215000  0.23340000  1.0 -0.0337858005
C  C41  1  0.37503000  0.12497000  0.26460000  1.0 -0.0808255195
C  C42  1  0.38710000  0.11290000  0.29640000  1.0 0.0607339047
C  C43  1  0.41320000  0.08680000  0.29500000  1.0 -0.0693148046
C  C44  1  0.37448000  0.12552000  0.20020000  1.0 0.5988496853
C  C45  1  0.37285000  0.12715000  0.32870000  1.0 -0.0476665784
C  C46  1  0.95325000  0.45325000  0.73380000  1.0 0.5988496853
C  C47  1  0.92605000  0.42605000  0.73410000  1.0 -0.0693148046
C  C48  1  0.91353000  0.41353000  0.76610000  1.0 -0.0214216204
C  C49  1  0.88785000  0.38785000  0.76660000  1.0 -0.0337858005
C  C50  1  0.87503000  0.37503000  0.73540000  1.0 -0.0808255195
C  C51  1  0.88710000  0.38710000  0.70360000  1.0 0.0607339047
C  C52  1  0.91320000  0.41320000  0.70500000  1.0 -0.0693148046
C  C53  1  0.87448000  0.37448000  0.79980000  1.0 0.5988496853
C  C54  1  0.87285000  0.37285000  0.67130000  1.0 -0.0476665784
C  C55  1  0.95325000  0.95325000  0.23380000  1.0 0.5988496853
C  C56  1  0.92605000  0.92605000  0.23410000  1.0 -0.0693148046
C  C57  1  0.91353000  0.91353000  0.26610000  1.0 -0.0214216204
C  C58  1  0.88785000  0.88785000  0.26660000  1.0 -0.0337858005
C  C59  1  0.87503000  0.87503000  0.23540000  1.0 -0.0808255195
C  C60  1  0.88710000  0.88710000  0.20360000  1.0 0.0607339047
C  C61  1  0.91320000  0.91320000  0.20500000  1.0 -0.0693148046
C  C62  1  0.87448000  0.87448000  0.29980000  1.0 0.5988496853
C  C63  1  0.87285000  0.87285000  0.17130000  1.0 -0.0476665784
C  C64  1  0.45325000  0.45325000  0.23380000  1.0 0.5988496853
C  C65  1  0.42605000  0.42605000  0.23410000  1.0 -0.0693148046
C  C66  1  0.41353000  0.41353000  0.26610000  1.0 -0.0214216204
C  C67  1  0.38785000  0.38785000  0.26660000  1.0 -0.0337858005
C  C68  1  0.37503000  0.37503000  0.23540000  1.0 -0.0808255195
C  C69  1  0.38710000  0.38710000  0.20360000  1.0 0.0607339047
C  C70  1  0.41320000  0.41320000  0.20500000  1.0 -0.0693148046
C  C71  1  0.37448000  0.37448000  0.29980000  1.0 0.5988496853
C  C72  1  0.37285000  0.37285000  0.17130000  1.0 -0.0476665784
C  C73  1  0.04675000  0.54675000  0.73380000  1.0 0.5988496853
C  C74  1  0.07395000  0.57395000  0.73410000  1.0 -0.0693148046
C  C75  1  0.08647000  0.58647000  0.76610000  1.0 -0.0214216204
C  C76  1  0.11215000  0.61215000  0.76660000  1.0 -0.0337858005
C  C77  1  0.12497000  0.62497000  0.73540000  1.0 -0.0808255195
C  C78  1  0.11290000  0.61290000  0.70360000  1.0 0.0607339047
C  C79  1  0.08680000  0.58680000  0.70500000  1.0 -0.0693148046
C  C80  1  0.12552000  0.62552000  0.79980000  1.0 0.5988496853
C  C81  1  0.12715000  0.62715000  0.67130000  1.0 -0.0476665784
C  C82  1  0.04675000  0.04675000  0.23380000  1.0 0.5988496853
C  C83  1  0.07395000  0.07395000  0.23410000  1.0 -0.0693148046
C  C84  1  0.08647000  0.08647000  0.26610000  1.0 -0.0214216204
C  C85  1  0.11215000  0.11215000  0.26660000  1.0 -0.0337858005
C  C86  1  0.12497000  0.12497000  0.23540000  1.0 -0.0808255195
C  C87  1  0.11290000  0.11290000  0.20360000  1.0 0.0607339047
C  C88  1  0.08680000  0.08680000  0.20500000  1.0 -0.0693148046
C  C89  1  0.12552000  0.12552000  0.29980000  1.0 0.5988496853
C  C90  1  0.12715000  0.12715000  0.17130000  1.0 -0.0476665784
C  C91  1  0.26620000  0.04675000  0.45325000  1.0 0.5988496853
C  C92  1  0.26590000  0.07395000  0.42605000  1.0 -0.0693148046
C  C93  1  0.23390000  0.08647000  0.41353000  1.0 -0.0214216204
C  C94  1  0.23340000  0.11215000  0.38785000  1.0 -0.0337858005
C  C95  1  0.26460000  0.12497000  0.37503000  1.0 -0.0808255195
C  C96  1  0.29640000  0.11290000  0.38710000  1.0 0.0607339047
C  C97  1  0.29500000  0.08680000  0.41320000  1.0 -0.0693148046
C  C98  1  0.20020000  0.12552000  0.37448000  1.0 0.5988496853
C  C99  1  0.32870000  0.12715000  0.37285000  1.0 -0.0476665784
C  C100  1  0.76620000  0.04675000  0.95325000  1.0 0.5988496853
C  C101  1  0.76590000  0.07395000  0.92605000  1.0 -0.0693148046
C  C102  1  0.73390000  0.08647000  0.91353000  1.0 -0.0214216204
C  C103  1  0.73340000  0.11215000  0.88785000  1.0 -0.0337858005
C  C104  1  0.76460000  0.12497000  0.87503000  1.0 -0.0808255195
C  C105  1  0.79640000  0.11290000  0.88710000  1.0 0.0607339047
C  C106  1  0.79500000  0.08680000  0.91320000  1.0 -0.0693148046
C  C107  1  0.70020000  0.12552000  0.87448000  1.0 0.5988496853
C  C108  1  0.82870000  0.12715000  0.87285000  1.0 -0.0476665784
C  C109  1  0.26620000  0.95325000  0.54675000  1.0 0.5988496853
C  C110  1  0.26590000  0.92605000  0.57395000  1.0 -0.0693148046
C  C111  1  0.23390000  0.91353000  0.58647000  1.0 -0.0214216204
C  C112  1  0.23340000  0.88785000  0.61215000  1.0 -0.0337858005
C  C113  1  0.26460000  0.87503000  0.62497000  1.0 -0.0808255195
C  C114  1  0.29640000  0.88710000  0.61290000  1.0 0.0607339047
C  C115  1  0.29500000  0.91320000  0.58680000  1.0 -0.0693148046
C  C116  1  0.20020000  0.87448000  0.62552000  1.0 0.5988496853
C  C117  1  0.32870000  0.87285000  0.62715000  1.0 -0.0476665784
C  C118  1  0.26620000  0.45325000  0.04675000  1.0 0.5988496853
C  C119  1  0.26590000  0.42605000  0.07395000  1.0 -0.0693148046
C  C120  1  0.23390000  0.41353000  0.08647000  1.0 -0.0214216204
C  C121  1  0.23340000  0.38785000  0.11215000  1.0 -0.0337858005
C  C122  1  0.26460000  0.37503000  0.12497000  1.0 -0.0808255195
C  C123  1  0.29640000  0.38710000  0.11290000  1.0 0.0607339047
C  C124  1  0.29500000  0.41320000  0.08680000  1.0 -0.0693148046
C  C125  1  0.20020000  0.37448000  0.12552000  1.0 0.5988496853
C  C126  1  0.32870000  0.37285000  0.12715000  1.0 -0.0476665784
C  C127  1  0.76620000  0.95325000  0.04675000  1.0 0.5988496853
C  C128  1  0.76590000  0.92605000  0.07395000  1.0 -0.0693148046
C  C129  1  0.73390000  0.91353000  0.08647000  1.0 -0.0214216204
C  C130  1  0.73340000  0.88785000  0.11215000  1.0 -0.0337858005
C  C131  1  0.76460000  0.87503000  0.12497000  1.0 -0.0808255195
C  C132  1  0.79640000  0.88710000  0.11290000  1.0 0.0607339047
C  C133  1  0.79500000  0.91320000  0.08680000  1.0 -0.0693148046
C  C134  1  0.70020000  0.87448000  0.12552000  1.0 0.5988496853
C  C135  1  0.82870000  0.87285000  0.12715000  1.0 -0.0476665784
C  C136  1  0.73380000  0.95325000  0.45325000  1.0 0.5988496853
C  C137  1  0.73410000  0.92605000  0.42605000  1.0 -0.0693148046
C  C138  1  0.76610000  0.91353000  0.41353000  1.0 -0.0214216204
C  C139  1  0.76660000  0.88785000  0.38785000  1.0 -0.0337858005
C  C140  1  0.73540000  0.87503000  0.37503000  1.0 -0.0808255195
C  C141  1  0.70360000  0.88710000  0.38710000  1.0 0.0607339047
C  C142  1  0.70500000  0.91320000  0.41320000  1.0 -0.0693148046
C  C143  1  0.79980000  0.87448000  0.37448000  1.0 0.5988496853
C  C144  1  0.67130000  0.87285000  0.37285000  1.0 -0.0476665784
C  C145  1  0.23380000  0.95325000  0.95325000  1.0 0.5988496853
C  C146  1  0.23410000  0.92605000  0.92605000  1.0 -0.0693148046
C  C147  1  0.26610000  0.91353000  0.91353000  1.0 -0.0214216204
C  C148  1  0.26660000  0.88785000  0.88785000  1.0 -0.0337858005
C  C149  1  0.23540000  0.87503000  0.87503000  1.0 -0.0808255195
C  C150  1  0.20360000  0.88710000  0.88710000  1.0 0.0607339047
C  C151  1  0.20500000  0.91320000  0.91320000  1.0 -0.0693148046
C  C152  1  0.29980000  0.87448000  0.87448000  1.0 0.5988496853
C  C153  1  0.17130000  0.87285000  0.87285000  1.0 -0.0476665784
C  C154  1  0.23380000  0.45325000  0.45325000  1.0 0.5988496853
C  C155  1  0.23410000  0.42605000  0.42605000  1.0 -0.0693148046
C  C156  1  0.26610000  0.41353000  0.41353000  1.0 -0.0214216204
C  C157  1  0.26660000  0.38785000  0.38785000  1.0 -0.0337858005
C  C158  1  0.23540000  0.37503000  0.37503000  1.0 -0.0808255195
C  C159  1  0.20360000  0.38710000  0.38710000  1.0 0.0607339047
C  C160  1  0.20500000  0.41320000  0.41320000  1.0 -0.0693148046
C  C161  1  0.29980000  0.37448000  0.37448000  1.0 0.5988496853
C  C162  1  0.17130000  0.37285000  0.37285000  1.0 -0.0476665784
C  C163  1  0.73380000  0.04675000  0.54675000  1.0 0.5988496853
C  C164  1  0.73410000  0.07395000  0.57395000  1.0 -0.0693148046
C  C165  1  0.76610000  0.08647000  0.58647000  1.0 -0.0214216204
C  C166  1  0.76660000  0.11215000  0.61215000  1.0 -0.0337858005
C  C167  1  0.73540000  0.12497000  0.62497000  1.0 -0.0808255195
C  C168  1  0.70360000  0.11290000  0.61290000  1.0 0.0607339047
C  C169  1  0.70500000  0.08680000  0.58680000  1.0 -0.0693148046
C  C170  1  0.79980000  0.12552000  0.62552000  1.0 0.5988496853
C  C171  1  0.67130000  0.12715000  0.62715000  1.0 -0.0476665784
C  C172  1  0.23380000  0.04675000  0.04675000  1.0 0.5988496853
C  C173  1  0.23410000  0.07395000  0.07395000  1.0 -0.0693148046
C  C174  1  0.26610000  0.08647000  0.08647000  1.0 -0.0214216204
C  C175  1  0.26660000  0.11215000  0.11215000  1.0 -0.0337858005
C  C176  1  0.23540000  0.12497000  0.12497000  1.0 -0.0808255195
C  C177  1  0.20360000  0.11290000  0.11290000  1.0 0.0607339047
C  C178  1  0.20500000  0.08680000  0.08680000  1.0 -0.0693148046
C  C179  1  0.29980000  0.12552000  0.12552000  1.0 0.5988496853
C  C180  1  0.17130000  0.12715000  0.12715000  1.0 -0.0476665784
C  C181  1  0.45325000  0.26620000  0.04675000  1.0 0.5988496853
C  C182  1  0.42605000  0.26590000  0.07395000  1.0 -0.0693148046
C  C183  1  0.41353000  0.23390000  0.08647000  1.0 -0.0214216204
C  C184  1  0.38785000  0.23340000  0.11215000  1.0 -0.0337858005
C  C185  1  0.37503000  0.26460000  0.12497000  1.0 -0.0808255195
C  C186  1  0.38710000  0.29640000  0.11290000  1.0 0.0607339047
C  C187  1  0.41320000  0.29500000  0.08680000  1.0 -0.0693148046
C  C188  1  0.37448000  0.20020000  0.12552000  1.0 0.5988496853
C  C189  1  0.37285000  0.32870000  0.12715000  1.0 -0.0476665784
C  C190  1  0.45325000  0.76620000  0.54675000  1.0 0.5988496853
C  C191  1  0.42605000  0.76590000  0.57395000  1.0 -0.0693148046
C  C192  1  0.41353000  0.73390000  0.58647000  1.0 -0.0214216204
C  C193  1  0.38785000  0.73340000  0.61215000  1.0 -0.0337858005
C  C194  1  0.37503000  0.76460000  0.62497000  1.0 -0.0808255195
C  C195  1  0.38710000  0.79640000  0.61290000  1.0 0.0607339047
C  C196  1  0.41320000  0.79500000  0.58680000  1.0 -0.0693148046
C  C197  1  0.37448000  0.70020000  0.62552000  1.0 0.5988496853
C  C198  1  0.37285000  0.82870000  0.62715000  1.0 -0.0476665784
C  C199  1  0.54675000  0.26620000  0.95325000  1.0 0.5988496853
C  C200  1  0.57395000  0.26590000  0.92605000  1.0 -0.0693148046
C  C201  1  0.58647000  0.23390000  0.91353000  1.0 -0.0214216204
C  C202  1  0.61215000  0.23340000  0.88785000  1.0 -0.0337858005
C  C203  1  0.62497000  0.26460000  0.87503000  1.0 -0.0808255195
C  C204  1  0.61290000  0.29640000  0.88710000  1.0 0.0607339047
C  C205  1  0.58680000  0.29500000  0.91320000  1.0 -0.0693148046
C  C206  1  0.62552000  0.20020000  0.87448000  1.0 0.5988496853
C  C207  1  0.62715000  0.32870000  0.87285000  1.0 -0.0476665784
C  C208  1  0.54675000  0.76620000  0.45325000  1.0 0.5988496853
C  C209  1  0.57395000  0.76590000  0.42605000  1.0 -0.0693148046
C  C210  1  0.58647000  0.73390000  0.41353000  1.0 -0.0214216204
C  C211  1  0.61215000  0.73340000  0.38785000  1.0 -0.0337858005
C  C212  1  0.62497000  0.76460000  0.37503000  1.0 -0.0808255195
C  C213  1  0.61290000  0.79640000  0.38710000  1.0 0.0607339047
C  C214  1  0.58680000  0.79500000  0.41320000  1.0 -0.0693148046
C  C215  1  0.62552000  0.70020000  0.37448000  1.0 0.5988496853
C  C216  1  0.62715000  0.82870000  0.37285000  1.0 -0.0476665784
C  C217  1  0.04675000  0.26620000  0.45325000  1.0 0.5988496853
C  C218  1  0.07395000  0.26590000  0.42605000  1.0 -0.0693148046
C  C219  1  0.08647000  0.23390000  0.41353000  1.0 -0.0214216204
C  C220  1  0.11215000  0.23340000  0.38785000  1.0 -0.0337858005
C  C221  1  0.12497000  0.26460000  0.37503000  1.0 -0.0808255195
C  C222  1  0.11290000  0.29640000  0.38710000  1.0 0.0607339047
C  C223  1  0.08680000  0.29500000  0.41320000  1.0 -0.0693148046
C  C224  1  0.12552000  0.20020000  0.37448000  1.0 0.5988496853
C  C225  1  0.12715000  0.32870000  0.37285000  1.0 -0.0476665784
C  C226  1  0.45325000  0.73380000  0.95325000  1.0 0.5988496853
C  C227  1  0.42605000  0.73410000  0.92605000  1.0 -0.0693148046
C  C228  1  0.41353000  0.76610000  0.91353000  1.0 -0.0214216204
C  C229  1  0.38785000  0.76660000  0.88785000  1.0 -0.0337858005
C  C230  1  0.37503000  0.73540000  0.87503000  1.0 -0.0808255195
C  C231  1  0.38710000  0.70360000  0.88710000  1.0 0.0607339047
C  C232  1  0.41320000  0.70500000  0.91320000  1.0 -0.0693148046
C  C233  1  0.37448000  0.79980000  0.87448000  1.0 0.5988496853
C  C234  1  0.37285000  0.67130000  0.87285000  1.0 -0.0476665784
C  C235  1  0.45325000  0.23380000  0.45325000  1.0 0.5988496853
C  C236  1  0.42605000  0.23410000  0.42605000  1.0 -0.0693148046
C  C237  1  0.41353000  0.26610000  0.41353000  1.0 -0.0214216204
C  C238  1  0.38785000  0.26660000  0.38785000  1.0 -0.0337858005
C  C239  1  0.37503000  0.23540000  0.37503000  1.0 -0.0808255195
C  C240  1  0.38710000  0.20360000  0.38710000  1.0 0.0607339047
C  C241  1  0.41320000  0.20500000  0.41320000  1.0 -0.0693148046
C  C242  1  0.37448000  0.29980000  0.37448000  1.0 0.5988496853
C  C243  1  0.37285000  0.17130000  0.37285000  1.0 -0.0476665784
C  C244  1  0.54675000  0.73380000  0.04675000  1.0 0.5988496853
C  C245  1  0.57395000  0.73410000  0.07395000  1.0 -0.0693148046
C  C246  1  0.58647000  0.76610000  0.08647000  1.0 -0.0214216204
C  C247  1  0.61215000  0.76660000  0.11215000  1.0 -0.0337858005
C  C248  1  0.62497000  0.73540000  0.12497000  1.0 -0.0808255195
C  C249  1  0.61290000  0.70360000  0.11290000  1.0 0.0607339047
C  C250  1  0.58680000  0.70500000  0.08680000  1.0 -0.0693148046
C  C251  1  0.62552000  0.79980000  0.12552000  1.0 0.5988496853
C  C252  1  0.62715000  0.67130000  0.12715000  1.0 -0.0476665784
C  C253  1  0.54675000  0.23380000  0.54675000  1.0 0.5988496853
C  C254  1  0.57395000  0.23410000  0.57395000  1.0 -0.0693148046
C  C255  1  0.58647000  0.26610000  0.58647000  1.0 -0.0214216204
C  C256  1  0.61215000  0.26660000  0.61215000  1.0 -0.0337858005
C  C257  1  0.62497000  0.23540000  0.62497000  1.0 -0.0808255195
C  C258  1  0.61290000  0.20360000  0.61290000  1.0 0.0607339047
C  C259  1  0.58680000  0.20500000  0.58680000  1.0 -0.0693148046
C  C260  1  0.62552000  0.29980000  0.62552000  1.0 0.5988496853
C  C261  1  0.62715000  0.17130000  0.62715000  1.0 -0.0476665784
C  C262  1  0.04675000  0.23380000  0.04675000  1.0 0.5988496853
C  C263  1  0.07395000  0.23410000  0.07395000  1.0 -0.0693148046
C  C264  1  0.08647000  0.26610000  0.08647000  1.0 -0.0214216204
C  C265  1  0.11215000  0.26660000  0.11215000  1.0 -0.0337858005
C  C266  1  0.12497000  0.23540000  0.12497000  1.0 -0.0808255195
C  C267  1  0.11290000  0.20360000  0.11290000  1.0 0.0607339047
C  C268  1  0.08680000  0.20500000  0.08680000  1.0 -0.0693148046
C  C269  1  0.12552000  0.29980000  0.12552000  1.0 0.5988496853
C  C270  1  0.12715000  0.17130000  0.12715000  1.0 -0.0476665784
C  C271  1  0.45325000  0.04675000  0.73380000  1.0 0.5988496853
C  C272  1  0.42605000  0.07395000  0.73410000  1.0 -0.0693148046
C  C273  1  0.41353000  0.08647000  0.76610000  1.0 -0.0214216204
C  C274  1  0.38785000  0.11215000  0.76660000  1.0 -0.0337858005
C  C275  1  0.37503000  0.12497000  0.73540000  1.0 -0.0808255195
C  C276  1  0.38710000  0.11290000  0.70360000  1.0 0.0607339047
C  C277  1  0.41320000  0.08680000  0.70500000  1.0 -0.0693148046
C  C278  1  0.37448000  0.12552000  0.79980000  1.0 0.5988496853
C  C279  1  0.37285000  0.12715000  0.67130000  1.0 -0.0476665784
C  C280  1  0.45325000  0.54675000  0.23380000  1.0 0.5988496853
C  C281  1  0.42605000  0.57395000  0.23410000  1.0 -0.0693148046
C  C282  1  0.41353000  0.58647000  0.26610000  1.0 -0.0214216204
C  C283  1  0.38785000  0.61215000  0.26660000  1.0 -0.0337858005
C  C284  1  0.37503000  0.62497000  0.23540000  1.0 -0.0808255195
C  C285  1  0.38710000  0.61290000  0.20360000  1.0 0.0607339047
C  C286  1  0.41320000  0.58680000  0.20500000  1.0 -0.0693148046
C  C287  1  0.37448000  0.62552000  0.29980000  1.0 0.5988496853
C  C288  1  0.37285000  0.62715000  0.17130000  1.0 -0.0476665784
C  C289  1  0.54675000  0.95325000  0.73380000  1.0 0.5988496853
C  C290  1  0.57395000  0.92605000  0.73410000  1.0 -0.0693148046
C  C291  1  0.58647000  0.91353000  0.76610000  1.0 -0.0214216204
C  C292  1  0.61215000  0.88785000  0.76660000  1.0 -0.0337858005
C  C293  1  0.62497000  0.87503000  0.73540000  1.0 -0.0808255195
C  C294  1  0.61290000  0.88710000  0.70360000  1.0 0.0607339047
C  C295  1  0.58680000  0.91320000  0.70500000  1.0 -0.0693148046
C  C296  1  0.62552000  0.87448000  0.79980000  1.0 0.5988496853
C  C297  1  0.62715000  0.87285000  0.67130000  1.0 -0.0476665784
C  C298  1  0.54675000  0.45325000  0.23380000  1.0 0.5988496853
C  C299  1  0.57395000  0.42605000  0.23410000  1.0 -0.0693148046
C  C300  1  0.58647000  0.41353000  0.26610000  1.0 -0.0214216204
C  C301  1  0.61215000  0.38785000  0.26660000  1.0 -0.0337858005
C  C302  1  0.62497000  0.37503000  0.23540000  1.0 -0.0808255195
C  C303  1  0.61290000  0.38710000  0.20360000  1.0 0.0607339047
C  C304  1  0.58680000  0.41320000  0.20500000  1.0 -0.0693148046
C  C305  1  0.62552000  0.37448000  0.29980000  1.0 0.5988496853
C  C306  1  0.62715000  0.37285000  0.17130000  1.0 -0.0476665784
C  C307  1  0.04675000  0.45325000  0.73380000  1.0 0.5988496853
C  C308  1  0.07395000  0.42605000  0.73410000  1.0 -0.0693148046
C  C309  1  0.08647000  0.41353000  0.76610000  1.0 -0.0214216204
C  C310  1  0.11215000  0.38785000  0.76660000  1.0 -0.0337858005
C  C311  1  0.12497000  0.37503000  0.73540000  1.0 -0.0808255195
C  C312  1  0.11290000  0.38710000  0.70360000  1.0 0.0607339047
C  C313  1  0.08680000  0.41320000  0.70500000  1.0 -0.0693148046
C  C314  1  0.12552000  0.37448000  0.79980000  1.0 0.5988496853
C  C315  1  0.12715000  0.37285000  0.67130000  1.0 -0.0476665784
C  C316  1  0.45325000  0.95325000  0.26620000  1.0 0.5988496853
C  C317  1  0.42605000  0.92605000  0.26590000  1.0 -0.0693148046
C  C318  1  0.41353000  0.91353000  0.23390000  1.0 -0.0214216204
C  C319  1  0.38785000  0.88785000  0.23340000  1.0 -0.0337858005
C  C320  1  0.37503000  0.87503000  0.26460000  1.0 -0.0808255195
C  C321  1  0.38710000  0.88710000  0.29640000  1.0 0.0607339047
C  C322  1  0.41320000  0.91320000  0.29500000  1.0 -0.0693148046
C  C323  1  0.37448000  0.87448000  0.20020000  1.0 0.5988496853
C  C324  1  0.37285000  0.87285000  0.32870000  1.0 -0.0476665784
C  C325  1  0.45325000  0.45325000  0.76620000  1.0 0.5988496853
C  C326  1  0.42605000  0.42605000  0.76590000  1.0 -0.0693148046
C  C327  1  0.41353000  0.41353000  0.73390000  1.0 -0.0214216204
C  C328  1  0.38785000  0.38785000  0.73340000  1.0 -0.0337858005
C  C329  1  0.37503000  0.37503000  0.76460000  1.0 -0.0808255195
C  C330  1  0.38710000  0.38710000  0.79640000  1.0 0.0607339047
C  C331  1  0.41320000  0.41320000  0.79500000  1.0 -0.0693148046
C  C332  1  0.37448000  0.37448000  0.70020000  1.0 0.5988496853
C  C333  1  0.37285000  0.37285000  0.82870000  1.0 -0.0476665784
C  C334  1  0.54675000  0.04675000  0.26620000  1.0 0.5988496853
C  C335  1  0.57395000  0.07395000  0.26590000  1.0 -0.0693148046
C  C336  1  0.58647000  0.08647000  0.23390000  1.0 -0.0214216204
C  C337  1  0.61215000  0.11215000  0.23340000  1.0 -0.0337858005
C  C338  1  0.62497000  0.12497000  0.26460000  1.0 -0.0808255195
C  C339  1  0.61290000  0.11290000  0.29640000  1.0 0.0607339047
C  C340  1  0.58680000  0.08680000  0.29500000  1.0 -0.0693148046
C  C341  1  0.62552000  0.12552000  0.20020000  1.0 0.5988496853
C  C342  1  0.62715000  0.12715000  0.32870000  1.0 -0.0476665784
C  C343  1  0.54675000  0.54675000  0.76620000  1.0 0.5988496853
C  C344  1  0.57395000  0.57395000  0.76590000  1.0 -0.0693148046
C  C345  1  0.58647000  0.58647000  0.73390000  1.0 -0.0214216204
C  C346  1  0.61215000  0.61215000  0.73340000  1.0 -0.0337858005
C  C347  1  0.62497000  0.62497000  0.76460000  1.0 -0.0808255195
C  C348  1  0.61290000  0.61290000  0.79640000  1.0 0.0607339047
C  C349  1  0.58680000  0.58680000  0.79500000  1.0 -0.0693148046
C  C350  1  0.62552000  0.62552000  0.70020000  1.0 0.5988496853
C  C351  1  0.62715000  0.62715000  0.82870000  1.0 -0.0476665784
C  C352  1  0.04675000  0.04675000  0.76620000  1.0 0.5988496853
C  C353  1  0.07395000  0.07395000  0.76590000  1.0 -0.0693148046
C  C354  1  0.08647000  0.08647000  0.73390000  1.0 -0.0214216204
C  C355  1  0.11215000  0.11215000  0.73340000  1.0 -0.0337858005
C  C356  1  0.12497000  0.12497000  0.76460000  1.0 -0.0808255195
C  C357  1  0.11290000  0.11290000  0.79640000  1.0 0.0607339047
C  C358  1  0.08680000  0.08680000  0.79500000  1.0 -0.0693148046
C  C359  1  0.12552000  0.12552000  0.70020000  1.0 0.5988496853
C  C360  1  0.12715000  0.12715000  0.82870000  1.0 -0.0476665784
C  C361  1  0.04675000  0.26620000  0.54675000  1.0 0.5988496853
C  C362  1  0.07395000  0.26590000  0.57395000  1.0 -0.0693148046
C  C363  1  0.08647000  0.23390000  0.58647000  1.0 -0.0214216204
C  C364  1  0.11215000  0.23340000  0.61215000  1.0 -0.0337858005
C  C365  1  0.12497000  0.26460000  0.62497000  1.0 -0.0808255195
C  C366  1  0.11290000  0.29640000  0.61290000  1.0 0.0607339047
C  C367  1  0.08680000  0.29500000  0.58680000  1.0 -0.0693148046
C  C368  1  0.12552000  0.20020000  0.62552000  1.0 0.5988496853
C  C369  1  0.12715000  0.32870000  0.62715000  1.0 -0.0476665784
C  C370  1  0.04675000  0.76620000  0.04675000  1.0 0.5988496853
C  C371  1  0.07395000  0.76590000  0.07395000  1.0 -0.0693148046
C  C372  1  0.08647000  0.73390000  0.08647000  1.0 -0.0214216204
C  C373  1  0.11215000  0.73340000  0.11215000  1.0 -0.0337858005
C  C374  1  0.12497000  0.76460000  0.12497000  1.0 -0.0808255195
C  C375  1  0.11290000  0.79640000  0.11290000  1.0 0.0607339047
C  C376  1  0.08680000  0.79500000  0.08680000  1.0 -0.0693148046
C  C377  1  0.12552000  0.70020000  0.12552000  1.0 0.5988496853
C  C378  1  0.12715000  0.82870000  0.12715000  1.0 -0.0476665784
C  C379  1  0.95325000  0.26620000  0.45325000  1.0 0.5988496853
C  C380  1  0.92605000  0.26590000  0.42605000  1.0 -0.0693148046
C  C381  1  0.91353000  0.23390000  0.41353000  1.0 -0.0214216204
C  C382  1  0.88785000  0.23340000  0.38785000  1.0 -0.0337858005
C  C383  1  0.87503000  0.26460000  0.37503000  1.0 -0.0808255195
C  C384  1  0.88710000  0.29640000  0.38710000  1.0 0.0607339047
C  C385  1  0.91320000  0.29500000  0.41320000  1.0 -0.0693148046
C  C386  1  0.87448000  0.20020000  0.37448000  1.0 0.5988496853
C  C387  1  0.87285000  0.32870000  0.37285000  1.0 -0.0476665784
C  C388  1  0.95325000  0.76620000  0.95325000  1.0 0.5988496853
C  C389  1  0.92605000  0.76590000  0.92605000  1.0 -0.0693148046
C  C390  1  0.91353000  0.73390000  0.91353000  1.0 -0.0214216204
C  C391  1  0.88785000  0.73340000  0.88785000  1.0 -0.0337858005
C  C392  1  0.87503000  0.76460000  0.87503000  1.0 -0.0808255195
C  C393  1  0.88710000  0.79640000  0.88710000  1.0 0.0607339047
C  C394  1  0.91320000  0.79500000  0.91320000  1.0 -0.0693148046
C  C395  1  0.87448000  0.70020000  0.87448000  1.0 0.5988496853
C  C396  1  0.87285000  0.82870000  0.87285000  1.0 -0.0476665784
C  C397  1  0.45325000  0.76620000  0.45325000  1.0 0.5988496853
C  C398  1  0.42605000  0.76590000  0.42605000  1.0 -0.0693148046
C  C399  1  0.41353000  0.73390000  0.41353000  1.0 -0.0214216204
C  C400  1  0.38785000  0.73340000  0.38785000  1.0 -0.0337858005
C  C401  1  0.37503000  0.76460000  0.37503000  1.0 -0.0808255195
C  C402  1  0.38710000  0.79640000  0.38710000  1.0 0.0607339047
C  C403  1  0.41320000  0.79500000  0.41320000  1.0 -0.0693148046
C  C404  1  0.37448000  0.70020000  0.37448000  1.0 0.5988496853
C  C405  1  0.37285000  0.82870000  0.37285000  1.0 -0.0476665784
C  C406  1  0.95325000  0.73380000  0.54675000  1.0 0.5988496853
C  C407  1  0.92605000  0.73410000  0.57395000  1.0 -0.0693148046
C  C408  1  0.91353000  0.76610000  0.58647000  1.0 -0.0214216204
C  C409  1  0.88785000  0.76660000  0.61215000  1.0 -0.0337858005
C  C410  1  0.87503000  0.73540000  0.62497000  1.0 -0.0808255195
C  C411  1  0.88710000  0.70360000  0.61290000  1.0 0.0607339047
C  C412  1  0.91320000  0.70500000  0.58680000  1.0 -0.0693148046
C  C413  1  0.87448000  0.79980000  0.62552000  1.0 0.5988496853
C  C414  1  0.87285000  0.67130000  0.62715000  1.0 -0.0476665784
C  C415  1  0.95325000  0.23380000  0.04675000  1.0 0.5988496853
C  C416  1  0.92605000  0.23410000  0.07395000  1.0 -0.0693148046
C  C417  1  0.91353000  0.26610000  0.08647000  1.0 -0.0214216204
C  C418  1  0.88785000  0.26660000  0.11215000  1.0 -0.0337858005
C  C419  1  0.87503000  0.23540000  0.12497000  1.0 -0.0808255195
C  C420  1  0.88710000  0.20360000  0.11290000  1.0 0.0607339047
C  C421  1  0.91320000  0.20500000  0.08680000  1.0 -0.0693148046
C  C422  1  0.87448000  0.29980000  0.12552000  1.0 0.5988496853
C  C423  1  0.87285000  0.17130000  0.12715000  1.0 -0.0476665784
C  C424  1  0.45325000  0.73380000  0.04675000  1.0 0.5988496853
C  C425  1  0.42605000  0.73410000  0.07395000  1.0 -0.0693148046
C  C426  1  0.41353000  0.76610000  0.08647000  1.0 -0.0214216204
C  C427  1  0.38785000  0.76660000  0.11215000  1.0 -0.0337858005
C  C428  1  0.37503000  0.73540000  0.12497000  1.0 -0.0808255195
C  C429  1  0.38710000  0.70360000  0.11290000  1.0 0.0607339047
C  C430  1  0.41320000  0.70500000  0.08680000  1.0 -0.0693148046
C  C431  1  0.37448000  0.79980000  0.12552000  1.0 0.5988496853
C  C432  1  0.37285000  0.67130000  0.12715000  1.0 -0.0476665784
C  C433  1  0.04675000  0.73380000  0.45325000  1.0 0.5988496853
C  C434  1  0.07395000  0.73410000  0.42605000  1.0 -0.0693148046
C  C435  1  0.08647000  0.76610000  0.41353000  1.0 -0.0214216204
C  C436  1  0.11215000  0.76660000  0.38785000  1.0 -0.0337858005
C  C437  1  0.12497000  0.73540000  0.37503000  1.0 -0.0808255195
C  C438  1  0.11290000  0.70360000  0.38710000  1.0 0.0607339047
C  C439  1  0.08680000  0.70500000  0.41320000  1.0 -0.0693148046
C  C440  1  0.12552000  0.79980000  0.37448000  1.0 0.5988496853
C  C441  1  0.12715000  0.67130000  0.37285000  1.0 -0.0476665784
C  C442  1  0.04675000  0.23380000  0.95325000  1.0 0.5988496853
C  C443  1  0.07395000  0.23410000  0.92605000  1.0 -0.0693148046
C  C444  1  0.08647000  0.26610000  0.91353000  1.0 -0.0214216204
C  C445  1  0.11215000  0.26660000  0.88785000  1.0 -0.0337858005
C  C446  1  0.12497000  0.23540000  0.87503000  1.0 -0.0808255195
C  C447  1  0.11290000  0.20360000  0.88710000  1.0 0.0607339047
C  C448  1  0.08680000  0.20500000  0.91320000  1.0 -0.0693148046
C  C449  1  0.12552000  0.29980000  0.87448000  1.0 0.5988496853
C  C450  1  0.12715000  0.17130000  0.87285000  1.0 -0.0476665784
C  C451  1  0.26620000  0.45325000  0.95325000  1.0 0.5988496853
C  C452  1  0.26590000  0.42605000  0.92605000  1.0 -0.0693148046
C  C453  1  0.23390000  0.41353000  0.91353000  1.0 -0.0214216204
C  C454  1  0.23340000  0.38785000  0.88785000  1.0 -0.0337858005
C  C455  1  0.26460000  0.37503000  0.87503000  1.0 -0.0808255195
C  C456  1  0.29640000  0.38710000  0.88710000  1.0 0.0607339047
C  C457  1  0.29500000  0.41320000  0.91320000  1.0 -0.0693148046
C  C458  1  0.20020000  0.37448000  0.87448000  1.0 0.5988496853
C  C459  1  0.32870000  0.37285000  0.87285000  1.0 -0.0476665784
C  C460  1  0.76620000  0.45325000  0.45325000  1.0 0.5988496853
C  C461  1  0.76590000  0.42605000  0.42605000  1.0 -0.0693148046
C  C462  1  0.73390000  0.41353000  0.41353000  1.0 -0.0214216204
C  C463  1  0.73340000  0.38785000  0.38785000  1.0 -0.0337858005
C  C464  1  0.76460000  0.37503000  0.37503000  1.0 -0.0808255195
C  C465  1  0.79640000  0.38710000  0.38710000  1.0 0.0607339047
C  C466  1  0.79500000  0.41320000  0.41320000  1.0 -0.0693148046
C  C467  1  0.70020000  0.37448000  0.37448000  1.0 0.5988496853
C  C468  1  0.82870000  0.37285000  0.37285000  1.0 -0.0476665784
C  C469  1  0.26620000  0.54675000  0.04675000  1.0 0.5988496853
C  C470  1  0.26590000  0.57395000  0.07395000  1.0 -0.0693148046
C  C471  1  0.23390000  0.58647000  0.08647000  1.0 -0.0214216204
C  C472  1  0.23340000  0.61215000  0.11215000  1.0 -0.0337858005
C  C473  1  0.26460000  0.62497000  0.12497000  1.0 -0.0808255195
C  C474  1  0.29640000  0.61290000  0.11290000  1.0 0.0607339047
C  C475  1  0.29500000  0.58680000  0.08680000  1.0 -0.0693148046
C  C476  1  0.20020000  0.62552000  0.12552000  1.0 0.5988496853
C  C477  1  0.32870000  0.62715000  0.12715000  1.0 -0.0476665784
C  C478  1  0.76620000  0.54675000  0.54675000  1.0 0.5988496853
C  C479  1  0.76590000  0.57395000  0.57395000  1.0 -0.0693148046
C  C480  1  0.73390000  0.58647000  0.58647000  1.0 -0.0214216204
C  C481  1  0.73340000  0.61215000  0.61215000  1.0 -0.0337858005
C  C482  1  0.76460000  0.62497000  0.62497000  1.0 -0.0808255195
C  C483  1  0.79640000  0.61290000  0.61290000  1.0 0.0607339047
C  C484  1  0.79500000  0.58680000  0.58680000  1.0 -0.0693148046
C  C485  1  0.70020000  0.62552000  0.62552000  1.0 0.5988496853
C  C486  1  0.82870000  0.62715000  0.62715000  1.0 -0.0476665784
C  C487  1  0.76620000  0.04675000  0.04675000  1.0 0.5988496853
C  C488  1  0.76590000  0.07395000  0.07395000  1.0 -0.0693148046
C  C489  1  0.73390000  0.08647000  0.08647000  1.0 -0.0214216204
C  C490  1  0.73340000  0.11215000  0.11215000  1.0 -0.0337858005
C  C491  1  0.76460000  0.12497000  0.12497000  1.0 -0.0808255195
C  C492  1  0.79640000  0.11290000  0.11290000  1.0 0.0607339047
C  C493  1  0.79500000  0.08680000  0.08680000  1.0 -0.0693148046
C  C494  1  0.70020000  0.12552000  0.12552000  1.0 0.5988496853
C  C495  1  0.82870000  0.12715000  0.12715000  1.0 -0.0476665784
C  C496  1  0.73380000  0.45325000  0.04675000  1.0 0.5988496853
C  C497  1  0.73410000  0.42605000  0.07395000  1.0 -0.0693148046
C  C498  1  0.76610000  0.41353000  0.08647000  1.0 -0.0214216204
C  C499  1  0.76660000  0.38785000  0.11215000  1.0 -0.0337858005
C  C500  1  0.73540000  0.37503000  0.12497000  1.0 -0.0808255195
C  C501  1  0.70360000  0.38710000  0.11290000  1.0 0.0607339047
C  C502  1  0.70500000  0.41320000  0.08680000  1.0 -0.0693148046
C  C503  1  0.79980000  0.37448000  0.12552000  1.0 0.5988496853
C  C504  1  0.67130000  0.37285000  0.12715000  1.0 -0.0476665784
C  C505  1  0.23380000  0.45325000  0.54675000  1.0 0.5988496853
C  C506  1  0.23410000  0.42605000  0.57395000  1.0 -0.0693148046
C  C507  1  0.26610000  0.41353000  0.58647000  1.0 -0.0214216204
C  C508  1  0.26660000  0.38785000  0.61215000  1.0 -0.0337858005
C  C509  1  0.23540000  0.37503000  0.62497000  1.0 -0.0808255195
C  C510  1  0.20360000  0.38710000  0.61290000  1.0 0.0607339047
C  C511  1  0.20500000  0.41320000  0.58680000  1.0 -0.0693148046
C  C512  1  0.29980000  0.37448000  0.62552000  1.0 0.5988496853
C  C513  1  0.17130000  0.37285000  0.62715000  1.0 -0.0476665784
C  C514  1  0.73380000  0.54675000  0.95325000  1.0 0.5988496853
C  C515  1  0.73410000  0.57395000  0.92605000  1.0 -0.0693148046
C  C516  1  0.76610000  0.58647000  0.91353000  1.0 -0.0214216204
C  C517  1  0.76660000  0.61215000  0.88785000  1.0 -0.0337858005
C  C518  1  0.73540000  0.62497000  0.87503000  1.0 -0.0808255195
C  C519  1  0.70360000  0.61290000  0.88710000  1.0 0.0607339047
C  C520  1  0.70500000  0.58680000  0.91320000  1.0 -0.0693148046
C  C521  1  0.79980000  0.62552000  0.87448000  1.0 0.5988496853
C  C522  1  0.67130000  0.62715000  0.87285000  1.0 -0.0476665784
C  C523  1  0.73380000  0.04675000  0.45325000  1.0 0.5988496853
C  C524  1  0.73410000  0.07395000  0.42605000  1.0 -0.0693148046
C  C525  1  0.76610000  0.08647000  0.41353000  1.0 -0.0214216204
C  C526  1  0.76660000  0.11215000  0.38785000  1.0 -0.0337858005
C  C527  1  0.73540000  0.12497000  0.37503000  1.0 -0.0808255195
C  C528  1  0.70360000  0.11290000  0.38710000  1.0 0.0607339047
C  C529  1  0.70500000  0.08680000  0.41320000  1.0 -0.0693148046
C  C530  1  0.79980000  0.12552000  0.37448000  1.0 0.5988496853
C  C531  1  0.67130000  0.12715000  0.37285000  1.0 -0.0476665784
C  C532  1  0.23380000  0.54675000  0.45325000  1.0 0.5988496853
C  C533  1  0.23410000  0.57395000  0.42605000  1.0 -0.0693148046
C  C534  1  0.26610000  0.58647000  0.41353000  1.0 -0.0214216204
C  C535  1  0.26660000  0.61215000  0.38785000  1.0 -0.0337858005
C  C536  1  0.23540000  0.62497000  0.37503000  1.0 -0.0808255195
C  C537  1  0.20360000  0.61290000  0.38710000  1.0 0.0607339047
C  C538  1  0.20500000  0.58680000  0.41320000  1.0 -0.0693148046
C  C539  1  0.29980000  0.62552000  0.37448000  1.0 0.5988496853
C  C540  1  0.17130000  0.62715000  0.37285000  1.0 -0.0476665784
C  C541  1  0.95325000  0.54675000  0.73380000  1.0 0.5988496853
C  C542  1  0.92605000  0.57395000  0.73410000  1.0 -0.0693148046
C  C543  1  0.91353000  0.58647000  0.76610000  1.0 -0.0214216204
C  C544  1  0.88785000  0.61215000  0.76660000  1.0 -0.0337858005
C  C545  1  0.87503000  0.62497000  0.73540000  1.0 -0.0808255195
C  C546  1  0.88710000  0.61290000  0.70360000  1.0 0.0607339047
C  C547  1  0.91320000  0.58680000  0.70500000  1.0 -0.0693148046
C  C548  1  0.87448000  0.62552000  0.79980000  1.0 0.5988496853
C  C549  1  0.87285000  0.62715000  0.67130000  1.0 -0.0476665784
C  C550  1  0.95325000  0.04675000  0.23380000  1.0 0.5988496853
C  C551  1  0.92605000  0.07395000  0.23410000  1.0 -0.0693148046
C  C552  1  0.91353000  0.08647000  0.26610000  1.0 -0.0214216204
C  C553  1  0.88785000  0.11215000  0.26660000  1.0 -0.0337858005
C  C554  1  0.87503000  0.12497000  0.23540000  1.0 -0.0808255195
C  C555  1  0.88710000  0.11290000  0.20360000  1.0 0.0607339047
C  C556  1  0.91320000  0.08680000  0.20500000  1.0 -0.0693148046
C  C557  1  0.87448000  0.12552000  0.29980000  1.0 0.5988496853
C  C558  1  0.87285000  0.12715000  0.17130000  1.0 -0.0476665784
C  C559  1  0.04675000  0.95325000  0.23380000  1.0 0.5988496853
C  C560  1  0.07395000  0.92605000  0.23410000  1.0 -0.0693148046
C  C561  1  0.08647000  0.91353000  0.26610000  1.0 -0.0214216204
C  C562  1  0.11215000  0.88785000  0.26660000  1.0 -0.0337858005
C  C563  1  0.12497000  0.87503000  0.23540000  1.0 -0.0808255195
C  C564  1  0.11290000  0.88710000  0.20360000  1.0 0.0607339047
C  C565  1  0.08680000  0.91320000  0.20500000  1.0 -0.0693148046
C  C566  1  0.12552000  0.87448000  0.29980000  1.0 0.5988496853
C  C567  1  0.12715000  0.87285000  0.17130000  1.0 -0.0476665784
C  C568  1  0.04675000  0.54675000  0.26620000  1.0 0.5988496853
C  C569  1  0.07395000  0.57395000  0.26590000  1.0 -0.0693148046
C  C570  1  0.08647000  0.58647000  0.23390000  1.0 -0.0214216204
C  C571  1  0.11215000  0.61215000  0.23340000  1.0 -0.0337858005
C  C572  1  0.12497000  0.62497000  0.26460000  1.0 -0.0808255195
C  C573  1  0.11290000  0.61290000  0.29640000  1.0 0.0607339047
C  C574  1  0.08680000  0.58680000  0.29500000  1.0 -0.0693148046
C  C575  1  0.12552000  0.62552000  0.20020000  1.0 0.5988496853
C  C576  1  0.12715000  0.62715000  0.32870000  1.0 -0.0476665784
C  C577  1  0.95325000  0.45325000  0.26620000  1.0 0.5988496853
C  C578  1  0.92605000  0.42605000  0.26590000  1.0 -0.0693148046
C  C579  1  0.91353000  0.41353000  0.23390000  1.0 -0.0214216204
C  C580  1  0.88785000  0.38785000  0.23340000  1.0 -0.0337858005
C  C581  1  0.87503000  0.37503000  0.26460000  1.0 -0.0808255195
C  C582  1  0.88710000  0.38710000  0.29640000  1.0 0.0607339047
C  C583  1  0.91320000  0.41320000  0.29500000  1.0 -0.0693148046
C  C584  1  0.87448000  0.37448000  0.20020000  1.0 0.5988496853
C  C585  1  0.87285000  0.37285000  0.32870000  1.0 -0.0476665784
C  C586  1  0.95325000  0.95325000  0.76620000  1.0 0.5988496853
C  C587  1  0.92605000  0.92605000  0.76590000  1.0 -0.0693148046
C  C588  1  0.91353000  0.91353000  0.73390000  1.0 -0.0214216204
C  C589  1  0.88785000  0.88785000  0.73340000  1.0 -0.0337858005
C  C590  1  0.87503000  0.87503000  0.76460000  1.0 -0.0808255195
C  C591  1  0.88710000  0.88710000  0.79640000  1.0 0.0607339047
C  C592  1  0.91320000  0.91320000  0.79500000  1.0 -0.0693148046
C  C593  1  0.87448000  0.87448000  0.70020000  1.0 0.5988496853
C  C594  1  0.87285000  0.87285000  0.82870000  1.0 -0.0476665784
C  C595  1  0.73380000  0.95325000  0.54675000  1.0 0.5988496853
C  C596  1  0.73410000  0.92605000  0.57395000  1.0 -0.0693148046
C  C597  1  0.76610000  0.91353000  0.58647000  1.0 -0.0214216204
C  C598  1  0.76660000  0.88785000  0.61215000  1.0 -0.0337858005
C  C599  1  0.73540000  0.87503000  0.62497000  1.0 -0.0808255195
C  C600  1  0.70360000  0.88710000  0.61290000  1.0 0.0607339047
C  C601  1  0.70500000  0.91320000  0.58680000  1.0 -0.0693148046
C  C602  1  0.79980000  0.87448000  0.62552000  1.0 0.5988496853
C  C603  1  0.67130000  0.87285000  0.62715000  1.0 -0.0476665784
C  C604  1  0.23380000  0.95325000  0.04675000  1.0 0.5988496853
C  C605  1  0.23410000  0.92605000  0.07395000  1.0 -0.0693148046
C  C606  1  0.26610000  0.91353000  0.08647000  1.0 -0.0214216204
C  C607  1  0.26660000  0.88785000  0.11215000  1.0 -0.0337858005
C  C608  1  0.23540000  0.87503000  0.12497000  1.0 -0.0808255195
C  C609  1  0.20360000  0.88710000  0.11290000  1.0 0.0607339047
C  C610  1  0.20500000  0.91320000  0.08680000  1.0 -0.0693148046
C  C611  1  0.29980000  0.87448000  0.12552000  1.0 0.5988496853
C  C612  1  0.17130000  0.87285000  0.12715000  1.0 -0.0476665784
C  C613  1  0.23380000  0.04675000  0.95325000  1.0 0.5988496853
C  C614  1  0.23410000  0.07395000  0.92605000  1.0 -0.0693148046
C  C615  1  0.26610000  0.08647000  0.91353000  1.0 -0.0214216204
C  C616  1  0.26660000  0.11215000  0.88785000  1.0 -0.0337858005
C  C617  1  0.23540000  0.12497000  0.87503000  1.0 -0.0808255195
C  C618  1  0.20360000  0.11290000  0.88710000  1.0 0.0607339047
C  C619  1  0.20500000  0.08680000  0.91320000  1.0 -0.0693148046
C  C620  1  0.29980000  0.12552000  0.87448000  1.0 0.5988496853
C  C621  1  0.17130000  0.12715000  0.87285000  1.0 -0.0476665784
C  C622  1  0.26620000  0.04675000  0.54675000  1.0 0.5988496853
C  C623  1  0.26590000  0.07395000  0.57395000  1.0 -0.0693148046
C  C624  1  0.23390000  0.08647000  0.58647000  1.0 -0.0214216204
C  C625  1  0.23340000  0.11215000  0.61215000  1.0 -0.0337858005
C  C626  1  0.26460000  0.12497000  0.62497000  1.0 -0.0808255195
C  C627  1  0.29640000  0.11290000  0.61290000  1.0 0.0607339047
C  C628  1  0.29500000  0.08680000  0.58680000  1.0 -0.0693148046
C  C629  1  0.20020000  0.12552000  0.62552000  1.0 0.5988496853
C  C630  1  0.32870000  0.12715000  0.62715000  1.0 -0.0476665784
C  C631  1  0.26620000  0.95325000  0.45325000  1.0 0.5988496853
C  C632  1  0.26590000  0.92605000  0.42605000  1.0 -0.0693148046
C  C633  1  0.23390000  0.91353000  0.41353000  1.0 -0.0214216204
C  C634  1  0.23340000  0.88785000  0.38785000  1.0 -0.0337858005
C  C635  1  0.26460000  0.87503000  0.37503000  1.0 -0.0808255195
C  C636  1  0.29640000  0.88710000  0.38710000  1.0 0.0607339047
C  C637  1  0.29500000  0.91320000  0.41320000  1.0 -0.0693148046
C  C638  1  0.20020000  0.87448000  0.37448000  1.0 0.5988496853
C  C639  1  0.32870000  0.87285000  0.37285000  1.0 -0.0476665784
C  C640  1  0.76620000  0.95325000  0.95325000  1.0 0.5988496853
C  C641  1  0.76590000  0.92605000  0.92605000  1.0 -0.0693148046
C  C642  1  0.73390000  0.91353000  0.91353000  1.0 -0.0214216204
C  C643  1  0.73340000  0.88785000  0.88785000  1.0 -0.0337858005
C  C644  1  0.76460000  0.87503000  0.87503000  1.0 -0.0808255195
C  C645  1  0.79640000  0.88710000  0.88710000  1.0 0.0607339047
C  C646  1  0.79500000  0.91320000  0.91320000  1.0 -0.0693148046
C  C647  1  0.70020000  0.87448000  0.87448000  1.0 0.5988496853
C  C648  1  0.82870000  0.87285000  0.87285000  1.0 -0.0476665784
C  C649  1  0.54675000  0.73380000  0.95325000  1.0 0.5988496853
C  C650  1  0.57395000  0.73410000  0.92605000  1.0 -0.0693148046
C  C651  1  0.58647000  0.76610000  0.91353000  1.0 -0.0214216204
C  C652  1  0.61215000  0.76660000  0.88785000  1.0 -0.0337858005
C  C653  1  0.62497000  0.73540000  0.87503000  1.0 -0.0808255195
C  C654  1  0.61290000  0.70360000  0.88710000  1.0 0.0607339047
C  C655  1  0.58680000  0.70500000  0.91320000  1.0 -0.0693148046
C  C656  1  0.62552000  0.79980000  0.87448000  1.0 0.5988496853
C  C657  1  0.62715000  0.67130000  0.87285000  1.0 -0.0476665784
C  C658  1  0.54675000  0.23380000  0.45325000  1.0 0.5988496853
C  C659  1  0.57395000  0.23410000  0.42605000  1.0 -0.0693148046
C  C660  1  0.58647000  0.26610000  0.41353000  1.0 -0.0214216204
C  C661  1  0.61215000  0.26660000  0.38785000  1.0 -0.0337858005
C  C662  1  0.62497000  0.23540000  0.37503000  1.0 -0.0808255195
C  C663  1  0.61290000  0.20360000  0.38710000  1.0 0.0607339047
C  C664  1  0.58680000  0.20500000  0.41320000  1.0 -0.0693148046
C  C665  1  0.62552000  0.29980000  0.37448000  1.0 0.5988496853
C  C666  1  0.62715000  0.17130000  0.37285000  1.0 -0.0476665784
C  C667  1  0.45325000  0.23380000  0.54675000  1.0 0.5988496853
C  C668  1  0.42605000  0.23410000  0.57395000  1.0 -0.0693148046
C  C669  1  0.41353000  0.26610000  0.58647000  1.0 -0.0214216204
C  C670  1  0.38785000  0.26660000  0.61215000  1.0 -0.0337858005
C  C671  1  0.37503000  0.23540000  0.62497000  1.0 -0.0808255195
C  C672  1  0.38710000  0.20360000  0.61290000  1.0 0.0607339047
C  C673  1  0.41320000  0.20500000  0.58680000  1.0 -0.0693148046
C  C674  1  0.37448000  0.29980000  0.62552000  1.0 0.5988496853
C  C675  1  0.37285000  0.17130000  0.62715000  1.0 -0.0476665784
C  C676  1  0.54675000  0.26620000  0.04675000  1.0 0.5988496853
C  C677  1  0.57395000  0.26590000  0.07395000  1.0 -0.0693148046
C  C678  1  0.58647000  0.23390000  0.08647000  1.0 -0.0214216204
C  C679  1  0.61215000  0.23340000  0.11215000  1.0 -0.0337858005
C  C680  1  0.62497000  0.26460000  0.12497000  1.0 -0.0808255195
C  C681  1  0.61290000  0.29640000  0.11290000  1.0 0.0607339047
C  C682  1  0.58680000  0.29500000  0.08680000  1.0 -0.0693148046
C  C683  1  0.62552000  0.20020000  0.12552000  1.0 0.5988496853
C  C684  1  0.62715000  0.32870000  0.12715000  1.0 -0.0476665784
C  C685  1  0.54675000  0.76620000  0.54675000  1.0 0.5988496853
C  C686  1  0.57395000  0.76590000  0.57395000  1.0 -0.0693148046
C  C687  1  0.58647000  0.73390000  0.58647000  1.0 -0.0214216204
C  C688  1  0.61215000  0.73340000  0.61215000  1.0 -0.0337858005
C  C689  1  0.62497000  0.76460000  0.62497000  1.0 -0.0808255195
C  C690  1  0.61290000  0.79640000  0.61290000  1.0 0.0607339047
C  C691  1  0.58680000  0.79500000  0.58680000  1.0 -0.0693148046
C  C692  1  0.62552000  0.70020000  0.62552000  1.0 0.5988496853
C  C693  1  0.62715000  0.82870000  0.62715000  1.0 -0.0476665784
C  C694  1  0.45325000  0.26620000  0.95325000  1.0 0.5988496853
C  C695  1  0.42605000  0.26590000  0.92605000  1.0 -0.0693148046
C  C696  1  0.41353000  0.23390000  0.91353000  1.0 -0.0214216204
C  C697  1  0.38785000  0.23340000  0.88785000  1.0 -0.0337858005
C  C698  1  0.37503000  0.26460000  0.87503000  1.0 -0.0808255195
C  C699  1  0.38710000  0.29640000  0.88710000  1.0 0.0607339047
C  C700  1  0.41320000  0.29500000  0.91320000  1.0 -0.0693148046
C  C701  1  0.37448000  0.20020000  0.87448000  1.0 0.5988496853
C  C702  1  0.37285000  0.32870000  0.87285000  1.0 -0.0476665784
C  C703  1  0.54675000  0.95325000  0.26620000  1.0 0.5988496853
C  C704  1  0.57395000  0.92605000  0.26590000  1.0 -0.0693148046
C  C705  1  0.58647000  0.91353000  0.23390000  1.0 -0.0214216204
C  C706  1  0.61215000  0.88785000  0.23340000  1.0 -0.0337858005
C  C707  1  0.62497000  0.87503000  0.26460000  1.0 -0.0808255195
C  C708  1  0.61290000  0.88710000  0.29640000  1.0 0.0607339047
C  C709  1  0.58680000  0.91320000  0.29500000  1.0 -0.0693148046
C  C710  1  0.62552000  0.87448000  0.20020000  1.0 0.5988496853
C  C711  1  0.62715000  0.87285000  0.32870000  1.0 -0.0476665784
C  C712  1  0.54675000  0.45325000  0.76620000  1.0 0.5988496853
C  C713  1  0.57395000  0.42605000  0.76590000  1.0 -0.0693148046
C  C714  1  0.58647000  0.41353000  0.73390000  1.0 -0.0214216204
C  C715  1  0.61215000  0.38785000  0.73340000  1.0 -0.0337858005
C  C716  1  0.62497000  0.37503000  0.76460000  1.0 -0.0808255195
C  C717  1  0.61290000  0.38710000  0.79640000  1.0 0.0607339047
C  C718  1  0.58680000  0.41320000  0.79500000  1.0 -0.0693148046
C  C719  1  0.62552000  0.37448000  0.70020000  1.0 0.5988496853
C  C720  1  0.62715000  0.37285000  0.82870000  1.0 -0.0476665784
C  C721  1  0.45325000  0.54675000  0.76620000  1.0 0.5988496853
C  C722  1  0.42605000  0.57395000  0.76590000  1.0 -0.0693148046
C  C723  1  0.41353000  0.58647000  0.73390000  1.0 -0.0214216204
C  C724  1  0.38785000  0.61215000  0.73340000  1.0 -0.0337858005
C  C725  1  0.37503000  0.62497000  0.76460000  1.0 -0.0808255195
C  C726  1  0.38710000  0.61290000  0.79640000  1.0 0.0607339047
C  C727  1  0.41320000  0.58680000  0.79500000  1.0 -0.0693148046
C  C728  1  0.37448000  0.62552000  0.70020000  1.0 0.5988496853
C  C729  1  0.37285000  0.62715000  0.82870000  1.0 -0.0476665784
C  C730  1  0.54675000  0.04675000  0.73380000  1.0 0.5988496853
C  C731  1  0.57395000  0.07395000  0.73410000  1.0 -0.0693148046
C  C732  1  0.58647000  0.08647000  0.76610000  1.0 -0.0214216204
C  C733  1  0.61215000  0.11215000  0.76660000  1.0 -0.0337858005
C  C734  1  0.62497000  0.12497000  0.73540000  1.0 -0.0808255195
C  C735  1  0.61290000  0.11290000  0.70360000  1.0 0.0607339047
C  C736  1  0.58680000  0.08680000  0.70500000  1.0 -0.0693148046
C  C737  1  0.62552000  0.12552000  0.79980000  1.0 0.5988496853
C  C738  1  0.62715000  0.12715000  0.67130000  1.0 -0.0476665784
C  C739  1  0.54675000  0.54675000  0.23380000  1.0 0.5988496853
C  C740  1  0.57395000  0.57395000  0.23410000  1.0 -0.0693148046
C  C741  1  0.58647000  0.58647000  0.26610000  1.0 -0.0214216204
C  C742  1  0.61215000  0.61215000  0.26660000  1.0 -0.0337858005
C  C743  1  0.62497000  0.62497000  0.23540000  1.0 -0.0808255195
C  C744  1  0.61290000  0.61290000  0.20360000  1.0 0.0607339047
C  C745  1  0.58680000  0.58680000  0.20500000  1.0 -0.0693148046
C  C746  1  0.62552000  0.62552000  0.29980000  1.0 0.5988496853
C  C747  1  0.62715000  0.62715000  0.17130000  1.0 -0.0476665784
C  C748  1  0.45325000  0.95325000  0.73380000  1.0 0.5988496853
C  C749  1  0.42605000  0.92605000  0.73410000  1.0 -0.0693148046
C  C750  1  0.41353000  0.91353000  0.76610000  1.0 -0.0214216204
C  C751  1  0.38785000  0.88785000  0.76660000  1.0 -0.0337858005
C  C752  1  0.37503000  0.87503000  0.73540000  1.0 -0.0808255195
C  C753  1  0.38710000  0.88710000  0.70360000  1.0 0.0607339047
C  C754  1  0.41320000  0.91320000  0.70500000  1.0 -0.0693148046
C  C755  1  0.37448000  0.87448000  0.79980000  1.0 0.5988496853
C  C756  1  0.37285000  0.87285000  0.67130000  1.0 -0.0476665784
C  C757  1  0.95325000  0.73380000  0.45325000  1.0 0.5988496853
C  C758  1  0.92605000  0.73410000  0.42605000  1.0 -0.0693148046
C  C759  1  0.91353000  0.76610000  0.41353000  1.0 -0.0214216204
C  C760  1  0.88785000  0.76660000  0.38785000  1.0 -0.0337858005
C  C761  1  0.87503000  0.73540000  0.37503000  1.0 -0.0808255195
C  C762  1  0.88710000  0.70360000  0.38710000  1.0 0.0607339047
C  C763  1  0.91320000  0.70500000  0.41320000  1.0 -0.0693148046
C  C764  1  0.87448000  0.79980000  0.37448000  1.0 0.5988496853
C  C765  1  0.87285000  0.67130000  0.37285000  1.0 -0.0476665784
C  C766  1  0.95325000  0.23380000  0.95325000  1.0 0.5988496853
C  C767  1  0.92605000  0.23410000  0.92605000  1.0 -0.0693148046
C  C768  1  0.91353000  0.26610000  0.91353000  1.0 -0.0214216204
C  C769  1  0.88785000  0.26660000  0.88785000  1.0 -0.0337858005
C  C770  1  0.87503000  0.23540000  0.87503000  1.0 -0.0808255195
C  C771  1  0.88710000  0.20360000  0.88710000  1.0 0.0607339047
C  C772  1  0.91320000  0.20500000  0.91320000  1.0 -0.0693148046
C  C773  1  0.87448000  0.29980000  0.87448000  1.0 0.5988496853
C  C774  1  0.87285000  0.17130000  0.87285000  1.0 -0.0476665784
C  C775  1  0.04675000  0.73380000  0.54675000  1.0 0.5988496853
C  C776  1  0.07395000  0.73410000  0.57395000  1.0 -0.0693148046
C  C777  1  0.08647000  0.76610000  0.58647000  1.0 -0.0214216204
C  C778  1  0.11215000  0.76660000  0.61215000  1.0 -0.0337858005
C  C779  1  0.12497000  0.73540000  0.62497000  1.0 -0.0808255195
C  C780  1  0.11290000  0.70360000  0.61290000  1.0 0.0607339047
C  C781  1  0.08680000  0.70500000  0.58680000  1.0 -0.0693148046
C  C782  1  0.12552000  0.79980000  0.62552000  1.0 0.5988496853
C  C783  1  0.12715000  0.67130000  0.62715000  1.0 -0.0476665784
C  C784  1  0.04675000  0.76620000  0.95325000  1.0 0.5988496853
C  C785  1  0.07395000  0.76590000  0.92605000  1.0 -0.0693148046
C  C786  1  0.08647000  0.73390000  0.91353000  1.0 -0.0214216204
C  C787  1  0.11215000  0.73340000  0.88785000  1.0 -0.0337858005
C  C788  1  0.12497000  0.76460000  0.87503000  1.0 -0.0808255195
C  C789  1  0.11290000  0.79640000  0.88710000  1.0 0.0607339047
C  C790  1  0.08680000  0.79500000  0.91320000  1.0 -0.0693148046
C  C791  1  0.12552000  0.70020000  0.87448000  1.0 0.5988496853
C  C792  1  0.12715000  0.82870000  0.87285000  1.0 -0.0476665784
C  C793  1  0.95325000  0.26620000  0.54675000  1.0 0.5988496853
C  C794  1  0.92605000  0.26590000  0.57395000  1.0 -0.0693148046
C  C795  1  0.91353000  0.23390000  0.58647000  1.0 -0.0214216204
C  C796  1  0.88785000  0.23340000  0.61215000  1.0 -0.0337858005
C  C797  1  0.87503000  0.26460000  0.62497000  1.0 -0.0808255195
C  C798  1  0.88710000  0.29640000  0.61290000  1.0 0.0607339047
C  C799  1  0.91320000  0.29500000  0.58680000  1.0 -0.0693148046
C  C800  1  0.87448000  0.20020000  0.62552000  1.0 0.5988496853
C  C801  1  0.87285000  0.32870000  0.62715000  1.0 -0.0476665784
C  C802  1  0.95325000  0.76620000  0.04675000  1.0 0.5988496853
C  C803  1  0.92605000  0.76590000  0.07395000  1.0 -0.0693148046
C  C804  1  0.91353000  0.73390000  0.08647000  1.0 -0.0214216204
C  C805  1  0.88785000  0.73340000  0.11215000  1.0 -0.0337858005
C  C806  1  0.87503000  0.76460000  0.12497000  1.0 -0.0808255195
C  C807  1  0.88710000  0.79640000  0.11290000  1.0 0.0607339047
C  C808  1  0.91320000  0.79500000  0.08680000  1.0 -0.0693148046
C  C809  1  0.87448000  0.70020000  0.12552000  1.0 0.5988496853
C  C810  1  0.87285000  0.82870000  0.12715000  1.0 -0.0476665784
C  C811  1  0.73380000  0.54675000  0.04675000  1.0 0.5988496853
C  C812  1  0.73410000  0.57395000  0.07395000  1.0 -0.0693148046
C  C813  1  0.76610000  0.58647000  0.08647000  1.0 -0.0214216204
C  C814  1  0.76660000  0.61215000  0.11215000  1.0 -0.0337858005
C  C815  1  0.73540000  0.62497000  0.12497000  1.0 -0.0808255195
C  C816  1  0.70360000  0.61290000  0.11290000  1.0 0.0607339047
C  C817  1  0.70500000  0.58680000  0.08680000  1.0 -0.0693148046
C  C818  1  0.79980000  0.62552000  0.12552000  1.0 0.5988496853
C  C819  1  0.67130000  0.62715000  0.12715000  1.0 -0.0476665784
C  C820  1  0.23380000  0.54675000  0.54675000  1.0 0.5988496853
C  C821  1  0.23410000  0.57395000  0.57395000  1.0 -0.0693148046
C  C822  1  0.26610000  0.58647000  0.58647000  1.0 -0.0214216204
C  C823  1  0.26660000  0.61215000  0.61215000  1.0 -0.0337858005
C  C824  1  0.23540000  0.62497000  0.62497000  1.0 -0.0808255195
C  C825  1  0.20360000  0.61290000  0.61290000  1.0 0.0607339047
C  C826  1  0.20500000  0.58680000  0.58680000  1.0 -0.0693148046
C  C827  1  0.29980000  0.62552000  0.62552000  1.0 0.5988496853
C  C828  1  0.17130000  0.62715000  0.62715000  1.0 -0.0476665784
C  C829  1  0.73380000  0.45325000  0.95325000  1.0 0.5988496853
C  C830  1  0.73410000  0.42605000  0.92605000  1.0 -0.0693148046
C  C831  1  0.76610000  0.41353000  0.91353000  1.0 -0.0214216204
C  C832  1  0.76660000  0.38785000  0.88785000  1.0 -0.0337858005
C  C833  1  0.73540000  0.37503000  0.87503000  1.0 -0.0808255195
C  C834  1  0.70360000  0.38710000  0.88710000  1.0 0.0607339047
C  C835  1  0.70500000  0.41320000  0.91320000  1.0 -0.0693148046
C  C836  1  0.79980000  0.37448000  0.87448000  1.0 0.5988496853
C  C837  1  0.67130000  0.37285000  0.87285000  1.0 -0.0476665784
C  C838  1  0.26620000  0.54675000  0.95325000  1.0 0.5988496853
C  C839  1  0.26590000  0.57395000  0.92605000  1.0 -0.0693148046
C  C840  1  0.23390000  0.58647000  0.91353000  1.0 -0.0214216204
C  C841  1  0.23340000  0.61215000  0.88785000  1.0 -0.0337858005
C  C842  1  0.26460000  0.62497000  0.87503000  1.0 -0.0808255195
C  C843  1  0.29640000  0.61290000  0.88710000  1.0 0.0607339047
C  C844  1  0.29500000  0.58680000  0.91320000  1.0 -0.0693148046
C  C845  1  0.20020000  0.62552000  0.87448000  1.0 0.5988496853
C  C846  1  0.32870000  0.62715000  0.87285000  1.0 -0.0476665784
C  C847  1  0.76620000  0.54675000  0.45325000  1.0 0.5988496853
C  C848  1  0.76590000  0.57395000  0.42605000  1.0 -0.0693148046
C  C849  1  0.73390000  0.58647000  0.41353000  1.0 -0.0214216204
C  C850  1  0.73340000  0.61215000  0.38785000  1.0 -0.0337858005
C  C851  1  0.76460000  0.62497000  0.37503000  1.0 -0.0808255195
C  C852  1  0.79640000  0.61290000  0.38710000  1.0 0.0607339047
C  C853  1  0.79500000  0.58680000  0.41320000  1.0 -0.0693148046
C  C854  1  0.70020000  0.62552000  0.37448000  1.0 0.5988496853
C  C855  1  0.82870000  0.62715000  0.37285000  1.0 -0.0476665784
C  C856  1  0.76620000  0.45325000  0.54675000  1.0 0.5988496853
C  C857  1  0.76590000  0.42605000  0.57395000  1.0 -0.0693148046
C  C858  1  0.73390000  0.41353000  0.58647000  1.0 -0.0214216204
C  C859  1  0.73340000  0.38785000  0.61215000  1.0 -0.0337858005
C  C860  1  0.76460000  0.37503000  0.62497000  1.0 -0.0808255195
C  C861  1  0.79640000  0.38710000  0.61290000  1.0 0.0607339047
C  C862  1  0.79500000  0.41320000  0.58680000  1.0 -0.0693148046
C  C863  1  0.70020000  0.37448000  0.62552000  1.0 0.5988496853
C  C864  1  0.82870000  0.37285000  0.62715000  1.0 -0.0476665784
C  C865  1  0.11230000  0.34265000  0.34265000  1.0 0.0063396212
C  C866  1  0.08120000  0.32660000  0.32660000  1.0 -0.2041271244
C  C867  1  0.11230000  0.84265000  0.84265000  1.0 0.0063396212
C  C868  1  0.08120000  0.82660000  0.82660000  1.0 -0.2056429931
C  C869  1  0.61230000  0.34265000  0.84265000  1.0 0.0063396212
C  C870  1  0.58120000  0.32660000  0.82660000  1.0 -0.2056429931
C  C871  1  0.61230000  0.84265000  0.34265000  1.0 0.0063396212
C  C872  1  0.58120000  0.82660000  0.32660000  1.0 -0.2056429931
C  C873  1  0.88770000  0.65735000  0.34265000  1.0 0.0063396212
C  C874  1  0.91880000  0.67340000  0.32660000  1.0 -0.2056429931
C  C875  1  0.88770000  0.15735000  0.84265000  1.0 0.0063396212
C  C876  1  0.91880000  0.17340000  0.82660000  1.0 -0.2056429931
C  C877  1  0.38770000  0.65735000  0.84265000  1.0 0.0063396212
C  C878  1  0.41880000  0.67340000  0.82660000  1.0 -0.2056429931
C  C879  1  0.38770000  0.15735000  0.34265000  1.0 0.0063396212
C  C880  1  0.41880000  0.17340000  0.32660000  1.0 -0.2041271244
C  C881  1  0.88770000  0.34265000  0.65735000  1.0 0.0063396212
C  C882  1  0.91880000  0.32660000  0.67340000  1.0 -0.2056429931
C  C883  1  0.88770000  0.84265000  0.15735000  1.0 0.0063396212
C  C884  1  0.91880000  0.82660000  0.17340000  1.0 -0.2056429931
C  C885  1  0.38770000  0.34265000  0.15735000  1.0 0.0063396212
C  C886  1  0.41880000  0.32660000  0.17340000  1.0 -0.2041271244
C  C887  1  0.38770000  0.84265000  0.65735000  1.0 0.0063396212
C  C888  1  0.41880000  0.82660000  0.67340000  1.0 -0.2056429931
C  C889  1  0.11230000  0.65735000  0.65735000  1.0 0.0063396212
C  C890  1  0.08120000  0.67340000  0.67340000  1.0 -0.2056429931
C  C891  1  0.11230000  0.15735000  0.15735000  1.0 0.0063396212
C  C892  1  0.08120000  0.17340000  0.17340000  1.0 -0.2041271244
C  C893  1  0.61230000  0.65735000  0.15735000  1.0 0.0063396212
C  C894  1  0.58120000  0.67340000  0.17340000  1.0 -0.2056429931
C  C895  1  0.61230000  0.15735000  0.65735000  1.0 0.0063396212
C  C896  1  0.58120000  0.17340000  0.67340000  1.0 -0.2041271244
C  C897  1  0.34265000  0.11230000  0.34265000  1.0 0.0063396212
C  C898  1  0.32660000  0.08120000  0.32660000  1.0 -0.2041271244
C  C899  1  0.34265000  0.61230000  0.84265000  1.0 0.0063396212
C  C900  1  0.32660000  0.58120000  0.82660000  1.0 -0.2056429931
C  C901  1  0.84265000  0.11230000  0.84265000  1.0 0.0063396212
C  C902  1  0.82660000  0.08120000  0.82660000  1.0 -0.2056429931
C  C903  1  0.84265000  0.61230000  0.34265000  1.0 0.0063396212
C  C904  1  0.82660000  0.58120000  0.32660000  1.0 -0.2056429931
C  C905  1  0.34265000  0.88770000  0.65735000  1.0 0.0063396212
C  C906  1  0.32660000  0.91880000  0.67340000  1.0 -0.2056429931
C  C907  1  0.34265000  0.38770000  0.15735000  1.0 0.0063396212
C  C908  1  0.32660000  0.41880000  0.17340000  1.0 -0.2041271244
C  C909  1  0.84265000  0.88770000  0.15735000  1.0 0.0063396212
C  C910  1  0.82660000  0.91880000  0.17340000  1.0 -0.2056429931
C  C911  1  0.84265000  0.38770000  0.65735000  1.0 0.0063396212
C  C912  1  0.82660000  0.41880000  0.67340000  1.0 -0.2056429931
C  C913  1  0.65735000  0.88770000  0.34265000  1.0 0.0063396212
C  C914  1  0.67340000  0.91880000  0.32660000  1.0 -0.2056429931
C  C915  1  0.65735000  0.38770000  0.84265000  1.0 0.0063396212
C  C916  1  0.67340000  0.41880000  0.82660000  1.0 -0.2056429931
C  C917  1  0.15735000  0.88770000  0.84265000  1.0 0.0063396212
C  C918  1  0.17340000  0.91880000  0.82660000  1.0 -0.2056429931
C  C919  1  0.15735000  0.38770000  0.34265000  1.0 0.0063396212
C  C920  1  0.17340000  0.41880000  0.32660000  1.0 -0.2041271244
C  C921  1  0.65735000  0.11230000  0.65735000  1.0 0.0063396212
C  C922  1  0.67340000  0.08120000  0.67340000  1.0 -0.2041271244
C  C923  1  0.65735000  0.61230000  0.15735000  1.0 0.0063396212
C  C924  1  0.67340000  0.58120000  0.17340000  1.0 -0.2056429931
C  C925  1  0.15735000  0.11230000  0.15735000  1.0 0.0063396212
C  C926  1  0.17340000  0.08120000  0.17340000  1.0 -0.2041271244
C  C927  1  0.15735000  0.61230000  0.65735000  1.0 0.0063396212
C  C928  1  0.17340000  0.58120000  0.67340000  1.0 -0.2056429931
C  C929  1  0.34265000  0.34265000  0.11230000  1.0 0.0063396212
C  C930  1  0.32660000  0.32660000  0.08120000  1.0 -0.2041271244
C  C931  1  0.34265000  0.84265000  0.61230000  1.0 0.0063396212
C  C932  1  0.32660000  0.82660000  0.58120000  1.0 -0.2056429931
C  C933  1  0.84265000  0.34265000  0.61230000  1.0 0.0063396212
C  C934  1  0.82660000  0.32660000  0.58120000  1.0 -0.2056429931
C  C935  1  0.84265000  0.84265000  0.11230000  1.0 0.0063396212
C  C936  1  0.82660000  0.82660000  0.08120000  1.0 -0.2056429931
C  C937  1  0.65735000  0.34265000  0.88770000  1.0 0.0063396212
C  C938  1  0.67340000  0.32660000  0.91880000  1.0 -0.2056429931
C  C939  1  0.65735000  0.84265000  0.38770000  1.0 0.0063396212
C  C940  1  0.67340000  0.82660000  0.41880000  1.0 -0.2056429931
C  C941  1  0.15735000  0.34265000  0.38770000  1.0 0.0063396212
C  C942  1  0.17340000  0.32660000  0.41880000  1.0 -0.2041271244
C  C943  1  0.15735000  0.84265000  0.88770000  1.0 0.0063396212
C  C944  1  0.17340000  0.82660000  0.91880000  1.0 -0.2056429931
C  C945  1  0.34265000  0.65735000  0.88770000  1.0 0.0063396212
C  C946  1  0.32660000  0.67340000  0.91880000  1.0 -0.2056429931
C  C947  1  0.34265000  0.15735000  0.38770000  1.0 0.0063396212
C  C948  1  0.32660000  0.17340000  0.41880000  1.0 -0.2041271244
C  C949  1  0.84265000  0.65735000  0.38770000  1.0 0.0063396212
C  C950  1  0.82660000  0.67340000  0.41880000  1.0 -0.2056429931
C  C951  1  0.84265000  0.15735000  0.88770000  1.0 0.0063396212
C  C952  1  0.82660000  0.17340000  0.91880000  1.0 -0.2056429931
C  C953  1  0.65735000  0.65735000  0.11230000  1.0 0.0063396212
C  C954  1  0.67340000  0.67340000  0.08120000  1.0 -0.2056429931
C  C955  1  0.65735000  0.15735000  0.61230000  1.0 0.0063396212
C  C956  1  0.67340000  0.17340000  0.58120000  1.0 -0.2041271244
C  C957  1  0.15735000  0.65735000  0.61230000  1.0 0.0063396212
C  C958  1  0.17340000  0.67340000  0.58120000  1.0 -0.2056429931
C  C959  1  0.15735000  0.15735000  0.11230000  1.0 0.0063396212
C  C960  1  0.17340000  0.17340000  0.08120000  1.0 -0.2041271244
C  C961  1  0.34265000  0.11230000  0.65735000  1.0 0.0063396212
C  C962  1  0.32660000  0.08120000  0.67340000  1.0 -0.2041271244
C  C963  1  0.34265000  0.61230000  0.15735000  1.0 0.0063396212
C  C964  1  0.32660000  0.58120000  0.17340000  1.0 -0.2041271244
C  C965  1  0.84265000  0.11230000  0.15735000  1.0 0.0063396212
C  C966  1  0.82660000  0.08120000  0.17340000  1.0 -0.2041271244
C  C967  1  0.84265000  0.61230000  0.65735000  1.0 0.0063396212
C  C968  1  0.82660000  0.58120000  0.67340000  1.0 -0.2056429931
C  C969  1  0.65735000  0.88770000  0.65735000  1.0 0.0063396212
C  C970  1  0.67340000  0.91880000  0.67340000  1.0 -0.2056429931
C  C971  1  0.65735000  0.38770000  0.15735000  1.0 0.0063396212
C  C972  1  0.67340000  0.41880000  0.17340000  1.0 -0.2041271244
C  C973  1  0.15735000  0.88770000  0.15735000  1.0 0.0063396212
C  C974  1  0.17340000  0.91880000  0.17340000  1.0 -0.2056429931
C  C975  1  0.15735000  0.38770000  0.65735000  1.0 0.0063396212
C  C976  1  0.17340000  0.41880000  0.67340000  1.0 -0.2056429931
C  C977  1  0.34265000  0.88770000  0.34265000  1.0 0.0063396212
C  C978  1  0.32660000  0.91880000  0.32660000  1.0 -0.2056429931
C  C979  1  0.34265000  0.38770000  0.84265000  1.0 0.0063396212
C  C980  1  0.32660000  0.41880000  0.82660000  1.0 -0.2056429931
C  C981  1  0.84265000  0.88770000  0.84265000  1.0 0.0063396212
C  C982  1  0.82660000  0.91880000  0.82660000  1.0 -0.2056429931
C  C983  1  0.84265000  0.38770000  0.34265000  1.0 0.0063396212
C  C984  1  0.82660000  0.41880000  0.32660000  1.0 -0.2056429931
C  C985  1  0.65735000  0.11230000  0.34265000  1.0 0.0063396212
C  C986  1  0.67340000  0.08120000  0.32660000  1.0 -0.2041271244
C  C987  1  0.65735000  0.61230000  0.84265000  1.0 0.0063396212
C  C988  1  0.67340000  0.58120000  0.82660000  1.0 -0.2056429931
C  C989  1  0.15735000  0.11230000  0.84265000  1.0 0.0063396212
C  C990  1  0.17340000  0.08120000  0.82660000  1.0 -0.2041271244
C  C991  1  0.15735000  0.61230000  0.34265000  1.0 0.0063396212
C  C992  1  0.17340000  0.58120000  0.32660000  1.0 -0.2056429931
C  C993  1  0.11230000  0.34265000  0.65735000  1.0 0.0063396212
C  C994  1  0.08120000  0.32660000  0.67340000  1.0 -0.2041271244
C  C995  1  0.11230000  0.84265000  0.15735000  1.0 0.0063396212
C  C996  1  0.08120000  0.82660000  0.17340000  1.0 -0.2056429931
C  C997  1  0.61230000  0.34265000  0.15735000  1.0 0.0063396212
C  C998  1  0.58120000  0.32660000  0.17340000  1.0 -0.2041271244
C  C999  1  0.61230000  0.84265000  0.65735000  1.0 0.0063396212
C  C1000  1  0.58120000  0.82660000  0.67340000  1.0 -0.2056429931
C  C1001  1  0.88770000  0.34265000  0.34265000  1.0 0.0063396212
C  C1002  1  0.91880000  0.32660000  0.32660000  1.0 -0.2056429931
C  C1003  1  0.88770000  0.84265000  0.84265000  1.0 0.0063396212
C  C1004  1  0.91880000  0.82660000  0.82660000  1.0 -0.2056429931
C  C1005  1  0.38770000  0.34265000  0.84265000  1.0 0.0063396212
C  C1006  1  0.41880000  0.32660000  0.82660000  1.0 -0.2056429931
C  C1007  1  0.38770000  0.84265000  0.34265000  1.0 0.0063396212
C  C1008  1  0.41880000  0.82660000  0.32660000  1.0 -0.2056429931
C  C1009  1  0.88770000  0.65735000  0.65735000  1.0 0.0063396212
C  C1010  1  0.91880000  0.67340000  0.67340000  1.0 -0.2056429931
C  C1011  1  0.88770000  0.15735000  0.15735000  1.0 0.0063396212
C  C1012  1  0.91880000  0.17340000  0.17340000  1.0 -0.2041271244
C  C1013  1  0.38770000  0.65735000  0.15735000  1.0 0.0063396212
C  C1014  1  0.41880000  0.67340000  0.17340000  1.0 -0.2056429931
C  C1015  1  0.38770000  0.15735000  0.65735000  1.0 0.0063396212
C  C1016  1  0.41880000  0.17340000  0.67340000  1.0 -0.2041271244
C  C1017  1  0.11230000  0.65735000  0.34265000  1.0 0.0063396212
C  C1018  1  0.08120000  0.67340000  0.32660000  1.0 -0.2056429931
C  C1019  1  0.11230000  0.15735000  0.84265000  1.0 0.0063396212
C  C1020  1  0.08120000  0.17340000  0.82660000  1.0 -0.2041271244
C  C1021  1  0.61230000  0.65735000  0.84265000  1.0 0.0063396212
C  C1022  1  0.58120000  0.67340000  0.82660000  1.0 -0.2056429931
C  C1023  1  0.61230000  0.15735000  0.34265000  1.0 0.0063396212
C  C1024  1  0.58120000  0.17340000  0.32660000  1.0 -0.2041271244
C  C1025  1  0.34265000  0.34265000  0.88770000  1.0 0.0063396212
C  C1026  1  0.32660000  0.32660000  0.91880000  1.0 -0.2056429931
C  C1027  1  0.34265000  0.84265000  0.38770000  1.0 0.0063396212
C  C1028  1  0.32660000  0.82660000  0.41880000  1.0 -0.2056429931
C  C1029  1  0.84265000  0.34265000  0.38770000  1.0 0.0063396212
C  C1030  1  0.82660000  0.32660000  0.41880000  1.0 -0.2056429931
C  C1031  1  0.84265000  0.84265000  0.88770000  1.0 0.0063396212
C  C1032  1  0.82660000  0.82660000  0.91880000  1.0 -0.2056429931
C  C1033  1  0.34265000  0.65735000  0.11230000  1.0 0.0063396212
C  C1034  1  0.32660000  0.67340000  0.08120000  1.0 -0.2041271244
C  C1035  1  0.34265000  0.15735000  0.61230000  1.0 0.0063396212
C  C1036  1  0.32660000  0.17340000  0.58120000  1.0 -0.2041271244
C  C1037  1  0.84265000  0.65735000  0.61230000  1.0 0.0063396212
C  C1038  1  0.82660000  0.67340000  0.58120000  1.0 -0.2056429931
C  C1039  1  0.84265000  0.15735000  0.11230000  1.0 0.0063396212
C  C1040  1  0.82660000  0.17340000  0.08120000  1.0 -0.2041271244
C  C1041  1  0.65735000  0.34265000  0.11230000  1.0 0.0063396212
C  C1042  1  0.67340000  0.32660000  0.08120000  1.0 -0.2041271244
C  C1043  1  0.65735000  0.84265000  0.61230000  1.0 0.0063396212
C  C1044  1  0.67340000  0.82660000  0.58120000  1.0 -0.2056429931
C  C1045  1  0.15735000  0.34265000  0.61230000  1.0 0.0063396212
C  C1046  1  0.17340000  0.32660000  0.58120000  1.0 -0.2041271244
C  C1047  1  0.15735000  0.84265000  0.11230000  1.0 0.0063396212
C  C1048  1  0.17340000  0.82660000  0.08120000  1.0 -0.2041271244
C  C1049  1  0.65735000  0.65735000  0.88770000  1.0 0.0063396212
C  C1050  1  0.67340000  0.67340000  0.91880000  1.0 -0.2056429931
C  C1051  1  0.65735000  0.15735000  0.38770000  1.0 0.0063396212
C  C1052  1  0.67340000  0.17340000  0.41880000  1.0 -0.2041271244
C  C1053  1  0.15735000  0.65735000  0.38770000  1.0 0.0063396212
C  C1054  1  0.17340000  0.67340000  0.41880000  1.0 -0.2056429931
C  C1055  1  0.15735000  0.15735000  0.88770000  1.0 0.0063396212
C  C1056  1  0.17340000  0.17340000  0.91880000  1.0 -0.2056429931
N  N1  1  0.30360000  0.69640000  0.19640000  1.0 0.2984853195
N  N2  1  0.30360000  0.19640000  0.69640000  1.0 0.2984853195
N  N3  1  0.80360000  0.69640000  0.69640000  1.0 0.2984853195
N  N4  1  0.80360000  0.19640000  0.19640000  1.0 0.2984853195
N  N5  1  0.69640000  0.30360000  0.19640000  1.0 0.2984853195
N  N6  1  0.69640000  0.80360000  0.69640000  1.0 0.2984853195
N  N7  1  0.19640000  0.30360000  0.69640000  1.0 0.2984853195
N  N8  1  0.19640000  0.80360000  0.19640000  1.0 0.2984853195
N  N9  1  0.30360000  0.30360000  0.80360000  1.0 0.2984853195
N  N10  1  0.30360000  0.80360000  0.30360000  1.0 0.2984853195
N  N11  1  0.80360000  0.30360000  0.30360000  1.0 0.2984853195
N  N12  1  0.80360000  0.80360000  0.80360000  1.0 0.2984853195
N  N13  1  0.69640000  0.69640000  0.80360000  1.0 0.2984853195
N  N14  1  0.69640000  0.19640000  0.30360000  1.0 0.2984853195
N  N15  1  0.19640000  0.69640000  0.30360000  1.0 0.2984853195
N  N16  1  0.19640000  0.19640000  0.80360000  1.0 0.2984853195
N  N17  1  0.69640000  0.30360000  0.80360000  1.0 0.2984853195
N  N18  1  0.69640000  0.80360000  0.30360000  1.0 0.2984853195
N  N19  1  0.19640000  0.30360000  0.30360000  1.0 0.2984853195
N  N20  1  0.19640000  0.80360000  0.80360000  1.0 0.2984853195
N  N21  1  0.30360000  0.69640000  0.80360000  1.0 0.2984853195
N  N22  1  0.30360000  0.19640000  0.30360000  1.0 0.2984853195
N  N23  1  0.80360000  0.69640000  0.30360000  1.0 0.2984853195
N  N24  1  0.80360000  0.19640000  0.80360000  1.0 0.2984853195
N  N25  1  0.30360000  0.30360000  0.19640000  1.0 0.2984853195
N  N26  1  0.30360000  0.80360000  0.69640000  1.0 0.2984853195
N  N27  1  0.80360000  0.30360000  0.69640000  1.0 0.2984853195
N  N28  1  0.80360000  0.80360000  0.19640000  1.0 0.2984853195
N  N29  1  0.69640000  0.69640000  0.19640000  1.0 0.2984853195
N  N30  1  0.69640000  0.19640000  0.69640000  1.0 0.2984853195
N  N31  1  0.19640000  0.69640000  0.69640000  1.0 0.2984853195
N  N32  1  0.19640000  0.19640000  0.19640000  1.0 0.2984853195
O  O1  1  0.00000000  0.50000000  0.35570000  1.0 -0.5153430731
O  O2  1  0.00000000  0.50000000  0.17100000  1.0 -0.2562192044
O  O3  1  0.00000000  0.00000000  0.85570000  1.0 -0.5153430731
O  O4  1  0.00000000  0.00000000  0.67100000  1.0 -0.2562192044
O  O5  1  0.50000000  0.50000000  0.85570000  1.0 -0.5153430731
O  O6  1  0.50000000  0.50000000  0.67100000  1.0 -0.2562192044
O  O7  1  0.50000000  0.00000000  0.35570000  1.0 -0.5153430731
O  O8  1  0.50000000  0.00000000  0.17100000  1.0 -0.2562192044
O  O9  1  0.00000000  0.50000000  0.64430000  1.0 -0.5153430731
O  O10  1  0.00000000  0.50000000  0.82900000  1.0 -0.2562192044
O  O11  1  0.00000000  0.00000000  0.14430000  1.0 -0.5153430731
O  O12  1  0.00000000  0.00000000  0.32900000  1.0 -0.2562192044
O  O13  1  0.50000000  0.50000000  0.14430000  1.0 -0.5153430731
O  O14  1  0.50000000  0.50000000  0.32900000  1.0 -0.2562192044
O  O15  1  0.50000000  0.00000000  0.64430000  1.0 -0.5141864387
O  O16  1  0.50000000  0.00000000  0.82900000  1.0 -0.2503568109
O  O17  1  0.35570000  0.00000000  0.50000000  1.0 -0.5153430731
O  O18  1  0.17100000  0.00000000  0.50000000  1.0 -0.2562192044
O  O19  1  0.85570000  0.00000000  0.00000000  1.0 -0.5141864387
O  O20  1  0.67100000  0.00000000  0.00000000  1.0 -0.2562192044
O  O21  1  0.85570000  0.50000000  0.50000000  1.0 -0.5141864387
O  O22  1  0.67100000  0.50000000  0.50000000  1.0 -0.2562192044
O  O23  1  0.35570000  0.50000000  0.00000000  1.0 -0.5153430731
O  O24  1  0.17100000  0.50000000  0.00000000  1.0 -0.2562192044
O  O25  1  0.64430000  0.00000000  0.50000000  1.0 -0.5141864387
O  O26  1  0.82900000  0.00000000  0.50000000  1.0 -0.2503568109
O  O27  1  0.14430000  0.00000000  0.00000000  1.0 -0.5153430731
O  O28  1  0.32900000  0.00000000  0.00000000  1.0 -0.2562192044
O  O29  1  0.14430000  0.50000000  0.50000000  1.0 -0.5153430731
O  O30  1  0.32900000  0.50000000  0.50000000  1.0 -0.2562192044
O  O31  1  0.64430000  0.50000000  0.00000000  1.0 -0.5141864387
O  O32  1  0.82900000  0.50000000  0.00000000  1.0 -0.2562192044
O  O33  1  0.50000000  0.35570000  0.00000000  1.0 -0.5153430731
O  O34  1  0.50000000  0.17100000  0.00000000  1.0 -0.2562192044
O  O35  1  0.50000000  0.85570000  0.50000000  1.0 -0.5153430731
O  O36  1  0.50000000  0.67100000  0.50000000  1.0 -0.2562192044
O  O37  1  0.00000000  0.85570000  0.00000000  1.0 -0.5153430731
O  O38  1  0.00000000  0.67100000  0.00000000  1.0 -0.2562192044
O  O39  1  0.50000000  0.64430000  0.00000000  1.0 -0.5153430731
O  O40  1  0.50000000  0.82900000  0.00000000  1.0 -0.2562192044
O  O41  1  0.50000000  0.14430000  0.50000000  1.0 -0.5153430731
O  O42  1  0.50000000  0.32900000  0.50000000  1.0 -0.2562192044
O  O43  1  0.00000000  0.14430000  0.00000000  1.0 -0.5153430731
O  O44  1  0.00000000  0.32900000  0.00000000  1.0 -0.2562192044
O  O45  1  0.00000000  0.35570000  0.50000000  1.0 -0.5153430731
O  O46  1  0.00000000  0.17100000  0.50000000  1.0 -0.2562192044
O  O47  1  0.00000000  0.64430000  0.50000000  1.0 -0.5153430731
O  O48  1  0.00000000  0.82900000  0.50000000  1.0 -0.2562192044
O  O49  1  0.09640000  0.40360000  0.09640000  1.0 -0.6056730649
O  O50  1  0.90360000  0.59640000  0.09640000  1.0 -0.6041316486
O  O51  1  0.40360000  0.09640000  0.09640000  1.0 -0.6056730649
O  O52  1  0.90360000  0.40360000  0.90360000  1.0 -0.6056730649
O  O53  1  0.40360000  0.40360000  0.40360000  1.0 -0.6056730649
O  O54  1  0.09640000  0.59640000  0.90360000  1.0 -0.6056730649
O  O55  1  0.09640000  0.09640000  0.40360000  1.0 -0.6056730649
O  O56  1  0.09640000  0.90360000  0.59640000  1.0 -0.6041316486
O  O57  1  0.90360000  0.90360000  0.40360000  1.0 -0.6041316486
O  O58  1  0.90360000  0.09640000  0.59640000  1.0 -0.6056730649
O  O59  1  0.40360000  0.59640000  0.59640000  1.0 -0.6041316486
O  O60  1  0.59640000  0.09640000  0.90360000  1.0 -0.6056730649
O  O61  1  0.59640000  0.59640000  0.40360000  1.0 -0.6041316486
O  O62  1  0.40360000  0.90360000  0.90360000  1.0 -0.6041316486
O  O63  1  0.59640000  0.90360000  0.09640000  1.0 -0.6041316486
O  O64  1  0.59640000  0.40360000  0.59640000  1.0 -0.6056730649
O  O65  1  0.40360000  0.09640000  0.90360000  1.0 -0.6056730649
O  O66  1  0.40360000  0.59640000  0.40360000  1.0 -0.6041316486
O  O67  1  0.59640000  0.90360000  0.90360000  1.0 -0.6041316486
O  O68  1  0.59640000  0.40360000  0.40360000  1.0 -0.6056730649
O  O69  1  0.09640000  0.90360000  0.40360000  1.0 -0.6041316486
O  O70  1  0.09640000  0.40360000  0.90360000  1.0 -0.6056730649
O  O71  1  0.40360000  0.90360000  0.09640000  1.0 -0.6041316486
O  O72  1  0.40360000  0.40360000  0.59640000  1.0 -0.6056730649
O  O73  1  0.59640000  0.09640000  0.09640000  1.0 -0.6056730649
O  O74  1  0.59640000  0.59640000  0.59640000  1.0 -0.6041316486
O  O75  1  0.09640000  0.09640000  0.59640000  1.0 -0.6056730649
O  O76  1  0.90360000  0.09640000  0.40360000  1.0 -0.6056730649
O  O77  1  0.90360000  0.90360000  0.59640000  1.0 -0.6041316486
O  O78  1  0.90360000  0.40360000  0.09640000  1.0 -0.6056730649
O  O79  1  0.09640000  0.59640000  0.09640000  1.0 -0.6041316486
O  O80  1  0.90360000  0.59640000  0.90360000  1.0 -0.6056730649
O  O81  1  0.03641000  0.46359000  0.29550000  1.0 -0.4965465093
O  O82  1  0.03590000  0.46410000  0.23700000  1.0 -0.5399802674
O  O83  1  0.14760000  0.35240000  0.20100000  1.0 -0.5484507468
O  O84  1  0.11330000  0.38670000  0.17240000  1.0 -0.5484507468
O  O85  1  0.03641000  0.96359000  0.79550000  1.0 -0.4965465093
O  O86  1  0.03590000  0.96410000  0.73700000  1.0 -0.5399802674
O  O87  1  0.14760000  0.85240000  0.70100000  1.0 -0.5484507468
O  O88  1  0.11330000  0.88670000  0.67240000  1.0 -0.5484507468
O  O89  1  0.96359000  0.53641000  0.29550000  1.0 -0.4965465093
O  O90  1  0.96410000  0.53590000  0.23700000  1.0 -0.5399802674
O  O91  1  0.85240000  0.64760000  0.20100000  1.0 -0.5484507468
O  O92  1  0.88670000  0.61330000  0.17240000  1.0 -0.5484507468
O  O93  1  0.96359000  0.03641000  0.79550000  1.0 -0.4965465093
O  O94  1  0.96410000  0.03590000  0.73700000  1.0 -0.5399802674
O  O95  1  0.85240000  0.14760000  0.70100000  1.0 -0.5484507468
O  O96  1  0.88670000  0.11330000  0.67240000  1.0 -0.5484507468
O  O97  1  0.46359000  0.03641000  0.29550000  1.0 -0.4965465093
O  O98  1  0.46410000  0.03590000  0.23700000  1.0 -0.5399802674
O  O99  1  0.35240000  0.14760000  0.20100000  1.0 -0.5484507468
O  O100  1  0.38670000  0.11330000  0.17240000  1.0 -0.5484507468
O  O101  1  0.96359000  0.46359000  0.70450000  1.0 -0.4965465093
O  O102  1  0.96410000  0.46410000  0.76300000  1.0 -0.5399802674
O  O103  1  0.85240000  0.35240000  0.79900000  1.0 -0.5484507468
O  O104  1  0.88670000  0.38670000  0.82760000  1.0 -0.5484507468
O  O105  1  0.96359000  0.96359000  0.20450000  1.0 -0.4965465093
O  O106  1  0.96410000  0.96410000  0.26300000  1.0 -0.5399802674
O  O107  1  0.85240000  0.85240000  0.29900000  1.0 -0.5484507468
O  O108  1  0.88670000  0.88670000  0.32760000  1.0 -0.5484507468
O  O109  1  0.46359000  0.46359000  0.20450000  1.0 -0.4965465093
O  O110  1  0.46410000  0.46410000  0.26300000  1.0 -0.5399802674
O  O111  1  0.35240000  0.35240000  0.29900000  1.0 -0.5484507468
O  O112  1  0.38670000  0.38670000  0.32760000  1.0 -0.5484507468
O  O113  1  0.03641000  0.53641000  0.70450000  1.0 -0.4965465093
O  O114  1  0.03590000  0.53590000  0.76300000  1.0 -0.5399802674
O  O115  1  0.14760000  0.64760000  0.79900000  1.0 -0.5484507468
O  O116  1  0.11330000  0.61330000  0.82760000  1.0 -0.5484507468
O  O117  1  0.03641000  0.03641000  0.20450000  1.0 -0.4965465093
O  O118  1  0.03590000  0.03590000  0.26300000  1.0 -0.5399802674
O  O119  1  0.14760000  0.14760000  0.29900000  1.0 -0.5484507468
O  O120  1  0.11330000  0.11330000  0.32760000  1.0 -0.5484507468
O  O121  1  0.29550000  0.03641000  0.46359000  1.0 -0.4965465093
O  O122  1  0.23700000  0.03590000  0.46410000  1.0 -0.5399802674
O  O123  1  0.20100000  0.14760000  0.35240000  1.0 -0.5484507468
O  O124  1  0.17240000  0.11330000  0.38670000  1.0 -0.5484507468
O  O125  1  0.79550000  0.03641000  0.96359000  1.0 -0.4965465093
O  O126  1  0.73700000  0.03590000  0.96410000  1.0 -0.5399802674
O  O127  1  0.70100000  0.14760000  0.85240000  1.0 -0.5484507468
O  O128  1  0.67240000  0.11330000  0.88670000  1.0 -0.5484507468
O  O129  1  0.29550000  0.96359000  0.53641000  1.0 -0.4965465093
O  O130  1  0.23700000  0.96410000  0.53590000  1.0 -0.5399802674
O  O131  1  0.20100000  0.85240000  0.64760000  1.0 -0.5484507468
O  O132  1  0.17240000  0.88670000  0.61330000  1.0 -0.5484507468
O  O133  1  0.29550000  0.46359000  0.03641000  1.0 -0.4965465093
O  O134  1  0.23700000  0.46410000  0.03590000  1.0 -0.5399802674
O  O135  1  0.20100000  0.35240000  0.14760000  1.0 -0.5484507468
O  O136  1  0.17240000  0.38670000  0.11330000  1.0 -0.5484507468
O  O137  1  0.79550000  0.96359000  0.03641000  1.0 -0.4965465093
O  O138  1  0.73700000  0.96410000  0.03590000  1.0 -0.5399802674
O  O139  1  0.70100000  0.85240000  0.14760000  1.0 -0.5484507468
O  O140  1  0.67240000  0.88670000  0.11330000  1.0 -0.5484507468
O  O141  1  0.70450000  0.96359000  0.46359000  1.0 -0.4965465093
O  O142  1  0.76300000  0.96410000  0.46410000  1.0 -0.5399802674
O  O143  1  0.79900000  0.85240000  0.35240000  1.0 -0.5484507468
O  O144  1  0.82760000  0.88670000  0.38670000  1.0 -0.5484507468
O  O145  1  0.20450000  0.96359000  0.96359000  1.0 -0.4965465093
O  O146  1  0.26300000  0.96410000  0.96410000  1.0 -0.5399802674
O  O147  1  0.29900000  0.85240000  0.85240000  1.0 -0.5484507468
O  O148  1  0.32760000  0.88670000  0.88670000  1.0 -0.5484507468
O  O149  1  0.20450000  0.46359000  0.46359000  1.0 -0.4965465093
O  O150  1  0.26300000  0.46410000  0.46410000  1.0 -0.5399802674
O  O151  1  0.29900000  0.35240000  0.35240000  1.0 -0.5484507468
O  O152  1  0.32760000  0.38670000  0.38670000  1.0 -0.5484507468
O  O153  1  0.70450000  0.03641000  0.53641000  1.0 -0.4965465093
O  O154  1  0.76300000  0.03590000  0.53590000  1.0 -0.5399802674
O  O155  1  0.79900000  0.14760000  0.64760000  1.0 -0.5484507468
O  O156  1  0.82760000  0.11330000  0.61330000  1.0 -0.5484507468
O  O157  1  0.20450000  0.03641000  0.03641000  1.0 -0.4965465093
O  O158  1  0.26300000  0.03590000  0.03590000  1.0 -0.5399802674
O  O159  1  0.29900000  0.14760000  0.14760000  1.0 -0.5484507468
O  O160  1  0.32760000  0.11330000  0.11330000  1.0 -0.5484507468
O  O161  1  0.46359000  0.29550000  0.03641000  1.0 -0.4965465093
O  O162  1  0.46410000  0.23700000  0.03590000  1.0 -0.5399802674
O  O163  1  0.35240000  0.20100000  0.14760000  1.0 -0.5484507468
O  O164  1  0.38670000  0.17240000  0.11330000  1.0 -0.5484507468
O  O165  1  0.46359000  0.79550000  0.53641000  1.0 -0.4965465093
O  O166  1  0.46410000  0.73700000  0.53590000  1.0 -0.5399802674
O  O167  1  0.35240000  0.70100000  0.64760000  1.0 -0.5484507468
O  O168  1  0.38670000  0.67240000  0.61330000  1.0 -0.5484507468
O  O169  1  0.53641000  0.29550000  0.96359000  1.0 -0.4965465093
O  O170  1  0.53590000  0.23700000  0.96410000  1.0 -0.5399802674
O  O171  1  0.64760000  0.20100000  0.85240000  1.0 -0.5484507468
O  O172  1  0.61330000  0.17240000  0.88670000  1.0 -0.5484507468
O  O173  1  0.53641000  0.79550000  0.46359000  1.0 -0.4965465093
O  O174  1  0.53590000  0.73700000  0.46410000  1.0 -0.5399802674
O  O175  1  0.64760000  0.70100000  0.35240000  1.0 -0.5484507468
O  O176  1  0.61330000  0.67240000  0.38670000  1.0 -0.5484507468
O  O177  1  0.03641000  0.29550000  0.46359000  1.0 -0.4965465093
O  O178  1  0.03590000  0.23700000  0.46410000  1.0 -0.5399802674
O  O179  1  0.14760000  0.20100000  0.35240000  1.0 -0.5484507468
O  O180  1  0.11330000  0.17240000  0.38670000  1.0 -0.5484507468
O  O181  1  0.46359000  0.70450000  0.96359000  1.0 -0.4965465093
O  O182  1  0.46410000  0.76300000  0.96410000  1.0 -0.5399802674
O  O183  1  0.35240000  0.79900000  0.85240000  1.0 -0.5484507468
O  O184  1  0.38670000  0.82760000  0.88670000  1.0 -0.5484507468
O  O185  1  0.46359000  0.20450000  0.46359000  1.0 -0.4965465093
O  O186  1  0.46410000  0.26300000  0.46410000  1.0 -0.5399802674
O  O187  1  0.35240000  0.29900000  0.35240000  1.0 -0.5484507468
O  O188  1  0.38670000  0.32760000  0.38670000  1.0 -0.5484507468
O  O189  1  0.53641000  0.70450000  0.03641000  1.0 -0.4965465093
O  O190  1  0.53590000  0.76300000  0.03590000  1.0 -0.5399802674
O  O191  1  0.64760000  0.79900000  0.14760000  1.0 -0.5484507468
O  O192  1  0.61330000  0.82760000  0.11330000  1.0 -0.5484507468
O  O193  1  0.53641000  0.20450000  0.53641000  1.0 -0.4965465093
O  O194  1  0.53590000  0.26300000  0.53590000  1.0 -0.5399802674
O  O195  1  0.64760000  0.29900000  0.64760000  1.0 -0.5484507468
O  O196  1  0.61330000  0.32760000  0.61330000  1.0 -0.5484507468
O  O197  1  0.03641000  0.20450000  0.03641000  1.0 -0.4965465093
O  O198  1  0.03590000  0.26300000  0.03590000  1.0 -0.5399802674
O  O199  1  0.14760000  0.29900000  0.14760000  1.0 -0.5484507468
O  O200  1  0.11330000  0.32760000  0.11330000  1.0 -0.5484507468
O  O201  1  0.46359000  0.03641000  0.70450000  1.0 -0.4965465093
O  O202  1  0.46410000  0.03590000  0.76300000  1.0 -0.5399802674
O  O203  1  0.35240000  0.14760000  0.79900000  1.0 -0.5484507468
O  O204  1  0.38670000  0.11330000  0.82760000  1.0 -0.5484507468
O  O205  1  0.46359000  0.53641000  0.20450000  1.0 -0.4965465093
O  O206  1  0.46410000  0.53590000  0.26300000  1.0 -0.5399802674
O  O207  1  0.35240000  0.64760000  0.29900000  1.0 -0.5484507468
O  O208  1  0.38670000  0.61330000  0.32760000  1.0 -0.5484507468
O  O209  1  0.53641000  0.96359000  0.70450000  1.0 -0.4965465093
O  O210  1  0.53590000  0.96410000  0.76300000  1.0 -0.5399802674
O  O211  1  0.64760000  0.85240000  0.79900000  1.0 -0.5484507468
O  O212  1  0.61330000  0.88670000  0.82760000  1.0 -0.5484507468
O  O213  1  0.53641000  0.46359000  0.20450000  1.0 -0.4965465093
O  O214  1  0.53590000  0.46410000  0.26300000  1.0 -0.5399802674
O  O215  1  0.64760000  0.35240000  0.29900000  1.0 -0.5484507468
O  O216  1  0.61330000  0.38670000  0.32760000  1.0 -0.5484507468
O  O217  1  0.03641000  0.46359000  0.70450000  1.0 -0.4965465093
O  O218  1  0.03590000  0.46410000  0.76300000  1.0 -0.5399802674
O  O219  1  0.14760000  0.35240000  0.79900000  1.0 -0.5484507468
O  O220  1  0.11330000  0.38670000  0.82760000  1.0 -0.5484507468
O  O221  1  0.46359000  0.96359000  0.29550000  1.0 -0.4965465093
O  O222  1  0.46410000  0.96410000  0.23700000  1.0 -0.5399802674
O  O223  1  0.35240000  0.85240000  0.20100000  1.0 -0.5484507468
O  O224  1  0.38670000  0.88670000  0.17240000  1.0 -0.5484507468
O  O225  1  0.46359000  0.46359000  0.79550000  1.0 -0.4965465093
O  O226  1  0.46410000  0.46410000  0.73700000  1.0 -0.5399802674
O  O227  1  0.35240000  0.35240000  0.70100000  1.0 -0.5484507468
O  O228  1  0.38670000  0.38670000  0.67240000  1.0 -0.5484507468
O  O229  1  0.53641000  0.03641000  0.29550000  1.0 -0.4965465093
O  O230  1  0.53590000  0.03590000  0.23700000  1.0 -0.5399802674
O  O231  1  0.64760000  0.14760000  0.20100000  1.0 -0.5484507468
O  O232  1  0.61330000  0.11330000  0.17240000  1.0 -0.5484507468
O  O233  1  0.53641000  0.53641000  0.79550000  1.0 -0.4965465093
O  O234  1  0.53590000  0.53590000  0.73700000  1.0 -0.5399802674
O  O235  1  0.64760000  0.64760000  0.70100000  1.0 -0.5484507468
O  O236  1  0.61330000  0.61330000  0.67240000  1.0 -0.5484507468
O  O237  1  0.03641000  0.03641000  0.79550000  1.0 -0.4965465093
O  O238  1  0.03590000  0.03590000  0.73700000  1.0 -0.5399802674
O  O239  1  0.14760000  0.14760000  0.70100000  1.0 -0.5484507468
O  O240  1  0.11330000  0.11330000  0.67240000  1.0 -0.5484507468
O  O241  1  0.03641000  0.29550000  0.53641000  1.0 -0.4965465093
O  O242  1  0.03590000  0.23700000  0.53590000  1.0 -0.5399802674
O  O243  1  0.14760000  0.20100000  0.64760000  1.0 -0.5484507468
O  O244  1  0.11330000  0.17240000  0.61330000  1.0 -0.5484507468
O  O245  1  0.03641000  0.79550000  0.03641000  1.0 -0.4965465093
O  O246  1  0.03590000  0.73700000  0.03590000  1.0 -0.5399802674
O  O247  1  0.14760000  0.70100000  0.14760000  1.0 -0.5484507468
O  O248  1  0.11330000  0.67240000  0.11330000  1.0 -0.5484507468
O  O249  1  0.96359000  0.29550000  0.46359000  1.0 -0.4965465093
O  O250  1  0.96410000  0.23700000  0.46410000  1.0 -0.5399802674
O  O251  1  0.85240000  0.20100000  0.35240000  1.0 -0.5484507468
O  O252  1  0.88670000  0.17240000  0.38670000  1.0 -0.5484507468
O  O253  1  0.96359000  0.79550000  0.96359000  1.0 -0.4965465093
O  O254  1  0.96410000  0.73700000  0.96410000  1.0 -0.5399802674
O  O255  1  0.85240000  0.70100000  0.85240000  1.0 -0.5484507468
O  O256  1  0.88670000  0.67240000  0.88670000  1.0 -0.5484507468
O  O257  1  0.46359000  0.79550000  0.46359000  1.0 -0.4965465093
O  O258  1  0.46410000  0.73700000  0.46410000  1.0 -0.5399802674
O  O259  1  0.35240000  0.70100000  0.35240000  1.0 -0.5484507468
O  O260  1  0.38670000  0.67240000  0.38670000  1.0 -0.5484507468
O  O261  1  0.96359000  0.70450000  0.53641000  1.0 -0.4965465093
O  O262  1  0.96410000  0.76300000  0.53590000  1.0 -0.5399802674
O  O263  1  0.85240000  0.79900000  0.64760000  1.0 -0.5484507468
O  O264  1  0.88670000  0.82760000  0.61330000  1.0 -0.5484507468
O  O265  1  0.96359000  0.20450000  0.03641000  1.0 -0.4965465093
O  O266  1  0.96410000  0.26300000  0.03590000  1.0 -0.5399802674
O  O267  1  0.85240000  0.29900000  0.14760000  1.0 -0.5484507468
O  O268  1  0.88670000  0.32760000  0.11330000  1.0 -0.5484507468
O  O269  1  0.46359000  0.70450000  0.03641000  1.0 -0.4965465093
O  O270  1  0.46410000  0.76300000  0.03590000  1.0 -0.5399802674
O  O271  1  0.35240000  0.79900000  0.14760000  1.0 -0.5484507468
O  O272  1  0.38670000  0.82760000  0.11330000  1.0 -0.5484507468
O  O273  1  0.03641000  0.70450000  0.46359000  1.0 -0.4965465093
O  O274  1  0.03590000  0.76300000  0.46410000  1.0 -0.5399802674
O  O275  1  0.14760000  0.79900000  0.35240000  1.0 -0.5484507468
O  O276  1  0.11330000  0.82760000  0.38670000  1.0 -0.5484507468
O  O277  1  0.03641000  0.20450000  0.96359000  1.0 -0.4965465093
O  O278  1  0.03590000  0.26300000  0.96410000  1.0 -0.5399802674
O  O279  1  0.14760000  0.29900000  0.85240000  1.0 -0.5484507468
O  O280  1  0.11330000  0.32760000  0.88670000  1.0 -0.5484507468
O  O281  1  0.29550000  0.46359000  0.96359000  1.0 -0.4965465093
O  O282  1  0.23700000  0.46410000  0.96410000  1.0 -0.5399802674
O  O283  1  0.20100000  0.35240000  0.85240000  1.0 -0.5484507468
O  O284  1  0.17240000  0.38670000  0.88670000  1.0 -0.5484507468
O  O285  1  0.79550000  0.46359000  0.46359000  1.0 -0.4965465093
O  O286  1  0.73700000  0.46410000  0.46410000  1.0 -0.5399802674
O  O287  1  0.70100000  0.35240000  0.35240000  1.0 -0.5484507468
O  O288  1  0.67240000  0.38670000  0.38670000  1.0 -0.5484507468
O  O289  1  0.29550000  0.53641000  0.03641000  1.0 -0.4965465093
O  O290  1  0.23700000  0.53590000  0.03590000  1.0 -0.5399802674
O  O291  1  0.20100000  0.64760000  0.14760000  1.0 -0.5484507468
O  O292  1  0.17240000  0.61330000  0.11330000  1.0 -0.5484507468
O  O293  1  0.79550000  0.53641000  0.53641000  1.0 -0.4965465093
O  O294  1  0.73700000  0.53590000  0.53590000  1.0 -0.5399802674
O  O295  1  0.70100000  0.64760000  0.64760000  1.0 -0.5484507468
O  O296  1  0.67240000  0.61330000  0.61330000  1.0 -0.5484507468
O  O297  1  0.79550000  0.03641000  0.03641000  1.0 -0.4965465093
O  O298  1  0.73700000  0.03590000  0.03590000  1.0 -0.5399802674
O  O299  1  0.70100000  0.14760000  0.14760000  1.0 -0.5484507468
O  O300  1  0.67240000  0.11330000  0.11330000  1.0 -0.5484507468
O  O301  1  0.70450000  0.46359000  0.03641000  1.0 -0.4965465093
O  O302  1  0.76300000  0.46410000  0.03590000  1.0 -0.5399802674
O  O303  1  0.79900000  0.35240000  0.14760000  1.0 -0.5484507468
O  O304  1  0.82760000  0.38670000  0.11330000  1.0 -0.5484507468
O  O305  1  0.20450000  0.46359000  0.53641000  1.0 -0.4965465093
O  O306  1  0.26300000  0.46410000  0.53590000  1.0 -0.5399802674
O  O307  1  0.29900000  0.35240000  0.64760000  1.0 -0.5484507468
O  O308  1  0.32760000  0.38670000  0.61330000  1.0 -0.5484507468
O  O309  1  0.70450000  0.53641000  0.96359000  1.0 -0.4965465093
O  O310  1  0.76300000  0.53590000  0.96410000  1.0 -0.5399802674
O  O311  1  0.79900000  0.64760000  0.85240000  1.0 -0.5484507468
O  O312  1  0.82760000  0.61330000  0.88670000  1.0 -0.5484507468
O  O313  1  0.70450000  0.03641000  0.46359000  1.0 -0.4965465093
O  O314  1  0.76300000  0.03590000  0.46410000  1.0 -0.5399802674
O  O315  1  0.79900000  0.14760000  0.35240000  1.0 -0.5484507468
O  O316  1  0.82760000  0.11330000  0.38670000  1.0 -0.5484507468
O  O317  1  0.20450000  0.53641000  0.46359000  1.0 -0.4965465093
O  O318  1  0.26300000  0.53590000  0.46410000  1.0 -0.5399802674
O  O319  1  0.29900000  0.64760000  0.35240000  1.0 -0.5484507468
O  O320  1  0.32760000  0.61330000  0.38670000  1.0 -0.5484507468
O  O321  1  0.96359000  0.53641000  0.70450000  1.0 -0.4965465093
O  O322  1  0.96410000  0.53590000  0.76300000  1.0 -0.5399802674
O  O323  1  0.85240000  0.64760000  0.79900000  1.0 -0.5484507468
O  O324  1  0.88670000  0.61330000  0.82760000  1.0 -0.5484507468
O  O325  1  0.96359000  0.03641000  0.20450000  1.0 -0.4965465093
O  O326  1  0.96410000  0.03590000  0.26300000  1.0 -0.5399802674
O  O327  1  0.85240000  0.14760000  0.29900000  1.0 -0.5484507468
O  O328  1  0.88670000  0.11330000  0.32760000  1.0 -0.5484507468
O  O329  1  0.03641000  0.96359000  0.20450000  1.0 -0.4965465093
O  O330  1  0.03590000  0.96410000  0.26300000  1.0 -0.5399802674
O  O331  1  0.14760000  0.85240000  0.29900000  1.0 -0.5484507468
O  O332  1  0.11330000  0.88670000  0.32760000  1.0 -0.5484507468
O  O333  1  0.03641000  0.53641000  0.29550000  1.0 -0.4965465093
O  O334  1  0.03590000  0.53590000  0.23700000  1.0 -0.5399802674
O  O335  1  0.14760000  0.64760000  0.20100000  1.0 -0.5484507468
O  O336  1  0.11330000  0.61330000  0.17240000  1.0 -0.5484507468
O  O337  1  0.96359000  0.46359000  0.29550000  1.0 -0.4965465093
O  O338  1  0.96410000  0.46410000  0.23700000  1.0 -0.5399802674
O  O339  1  0.85240000  0.35240000  0.20100000  1.0 -0.5484507468
O  O340  1  0.88670000  0.38670000  0.17240000  1.0 -0.5484507468
O  O341  1  0.96359000  0.96359000  0.79550000  1.0 -0.4965465093
O  O342  1  0.96410000  0.96410000  0.73700000  1.0 -0.5399802674
O  O343  1  0.85240000  0.85240000  0.70100000  1.0 -0.5484507468
O  O344  1  0.88670000  0.88670000  0.67240000  1.0 -0.5484507468
O  O345  1  0.70450000  0.96359000  0.53641000  1.0 -0.4965465093
O  O346  1  0.76300000  0.96410000  0.53590000  1.0 -0.5399802674
O  O347  1  0.79900000  0.85240000  0.64760000  1.0 -0.5484507468
O  O348  1  0.82760000  0.88670000  0.61330000  1.0 -0.5484507468
O  O349  1  0.20450000  0.96359000  0.03641000  1.0 -0.4965465093
O  O350  1  0.26300000  0.96410000  0.03590000  1.0 -0.5399802674
O  O351  1  0.29900000  0.85240000  0.14760000  1.0 -0.5484507468
O  O352  1  0.32760000  0.88670000  0.11330000  1.0 -0.5484507468
O  O353  1  0.20450000  0.03641000  0.96359000  1.0 -0.4965465093
O  O354  1  0.26300000  0.03590000  0.96410000  1.0 -0.5399802674
O  O355  1  0.29900000  0.14760000  0.85240000  1.0 -0.5484507468
O  O356  1  0.32760000  0.11330000  0.88670000  1.0 -0.5484507468
O  O357  1  0.29550000  0.03641000  0.53641000  1.0 -0.4965465093
O  O358  1  0.23700000  0.03590000  0.53590000  1.0 -0.5399802674
O  O359  1  0.20100000  0.14760000  0.64760000  1.0 -0.5484507468
O  O360  1  0.17240000  0.11330000  0.61330000  1.0 -0.5484507468
O  O361  1  0.29550000  0.96359000  0.46359000  1.0 -0.4965465093
O  O362  1  0.23700000  0.96410000  0.46410000  1.0 -0.5399802674
O  O363  1  0.20100000  0.85240000  0.35240000  1.0 -0.5484507468
O  O364  1  0.17240000  0.88670000  0.38670000  1.0 -0.5484507468
O  O365  1  0.79550000  0.96359000  0.96359000  1.0 -0.4965465093
O  O366  1  0.73700000  0.96410000  0.96410000  1.0 -0.5399802674
O  O367  1  0.70100000  0.85240000  0.85240000  1.0 -0.5484507468
O  O368  1  0.67240000  0.88670000  0.88670000  1.0 -0.5484507468
O  O369  1  0.53641000  0.70450000  0.96359000  1.0 -0.4965465093
O  O370  1  0.53590000  0.76300000  0.96410000  1.0 -0.5399802674
O  O371  1  0.64760000  0.79900000  0.85240000  1.0 -0.5484507468
O  O372  1  0.61330000  0.82760000  0.88670000  1.0 -0.5484507468
O  O373  1  0.53641000  0.20450000  0.46359000  1.0 -0.4965465093
O  O374  1  0.53590000  0.26300000  0.46410000  1.0 -0.5399802674
O  O375  1  0.64760000  0.29900000  0.35240000  1.0 -0.5484507468
O  O376  1  0.61330000  0.32760000  0.38670000  1.0 -0.5484507468
O  O377  1  0.46359000  0.20450000  0.53641000  1.0 -0.4965465093
O  O378  1  0.46410000  0.26300000  0.53590000  1.0 -0.5399802674
O  O379  1  0.35240000  0.29900000  0.64760000  1.0 -0.5484507468
O  O380  1  0.38670000  0.32760000  0.61330000  1.0 -0.5484507468
O  O381  1  0.53641000  0.29550000  0.03641000  1.0 -0.4965465093
O  O382  1  0.53590000  0.23700000  0.03590000  1.0 -0.5399802674
O  O383  1  0.64760000  0.20100000  0.14760000  1.0 -0.5484507468
O  O384  1  0.61330000  0.17240000  0.11330000  1.0 -0.5484507468
O  O385  1  0.53641000  0.79550000  0.53641000  1.0 -0.4965465093
O  O386  1  0.53590000  0.73700000  0.53590000  1.0 -0.5399802674
O  O387  1  0.64760000  0.70100000  0.64760000  1.0 -0.5484507468
O  O388  1  0.61330000  0.67240000  0.61330000  1.0 -0.5484507468
O  O389  1  0.46359000  0.29550000  0.96359000  1.0 -0.4965465093
O  O390  1  0.46410000  0.23700000  0.96410000  1.0 -0.5399802674
O  O391  1  0.35240000  0.20100000  0.85240000  1.0 -0.5484507468
O  O392  1  0.38670000  0.17240000  0.88670000  1.0 -0.5484507468
O  O393  1  0.53641000  0.96359000  0.29550000  1.0 -0.4965465093
O  O394  1  0.53590000  0.96410000  0.23700000  1.0 -0.5399802674
O  O395  1  0.64760000  0.85240000  0.20100000  1.0 -0.5484507468
O  O396  1  0.61330000  0.88670000  0.17240000  1.0 -0.5484507468
O  O397  1  0.53641000  0.46359000  0.79550000  1.0 -0.4965465093
O  O398  1  0.53590000  0.46410000  0.73700000  1.0 -0.5399802674
O  O399  1  0.64760000  0.35240000  0.70100000  1.0 -0.5484507468
O  O400  1  0.61330000  0.38670000  0.67240000  1.0 -0.5484507468
O  O401  1  0.46359000  0.53641000  0.79550000  1.0 -0.4965465093
O  O402  1  0.46410000  0.53590000  0.73700000  1.0 -0.5399802674
O  O403  1  0.35240000  0.64760000  0.70100000  1.0 -0.5484507468
O  O404  1  0.38670000  0.61330000  0.67240000  1.0 -0.5484507468
O  O405  1  0.53641000  0.03641000  0.70450000  1.0 -0.4965465093
O  O406  1  0.53590000  0.03590000  0.76300000  1.0 -0.5399802674
O  O407  1  0.64760000  0.14760000  0.79900000  1.0 -0.5484507468
O  O408  1  0.61330000  0.11330000  0.82760000  1.0 -0.5484507468
O  O409  1  0.53641000  0.53641000  0.20450000  1.0 -0.4965465093
O  O410  1  0.53590000  0.53590000  0.26300000  1.0 -0.5399802674
O  O411  1  0.64760000  0.64760000  0.29900000  1.0 -0.5484507468
O  O412  1  0.61330000  0.61330000  0.32760000  1.0 -0.5484507468
O  O413  1  0.46359000  0.96359000  0.70450000  1.0 -0.4965465093
O  O414  1  0.46410000  0.96410000  0.76300000  1.0 -0.5399802674
O  O415  1  0.35240000  0.85240000  0.79900000  1.0 -0.5484507468
O  O416  1  0.38670000  0.88670000  0.82760000  1.0 -0.5484507468
O  O417  1  0.96359000  0.70450000  0.46359000  1.0 -0.4965465093
O  O418  1  0.96410000  0.76300000  0.46410000  1.0 -0.5399802674
O  O419  1  0.85240000  0.79900000  0.35240000  1.0 -0.5484507468
O  O420  1  0.88670000  0.82760000  0.38670000  1.0 -0.5484507468
O  O421  1  0.96359000  0.20450000  0.96359000  1.0 -0.4965465093
O  O422  1  0.96410000  0.26300000  0.96410000  1.0 -0.5399802674
O  O423  1  0.85240000  0.29900000  0.85240000  1.0 -0.5484507468
O  O424  1  0.88670000  0.32760000  0.88670000  1.0 -0.5484507468
O  O425  1  0.03641000  0.70450000  0.53641000  1.0 -0.4965465093
O  O426  1  0.03590000  0.76300000  0.53590000  1.0 -0.5399802674
O  O427  1  0.14760000  0.79900000  0.64760000  1.0 -0.5484507468
O  O428  1  0.11330000  0.82760000  0.61330000  1.0 -0.5484507468
O  O429  1  0.03641000  0.79550000  0.96359000  1.0 -0.4965465093
O  O430  1  0.03590000  0.73700000  0.96410000  1.0 -0.5399802674
O  O431  1  0.14760000  0.70100000  0.85240000  1.0 -0.5484507468
O  O432  1  0.11330000  0.67240000  0.88670000  1.0 -0.5484507468
O  O433  1  0.96359000  0.29550000  0.53641000  1.0 -0.4965465093
O  O434  1  0.96410000  0.23700000  0.53590000  1.0 -0.5399802674
O  O435  1  0.85240000  0.20100000  0.64760000  1.0 -0.5484507468
O  O436  1  0.88670000  0.17240000  0.61330000  1.0 -0.5484507468
O  O437  1  0.96359000  0.79550000  0.03641000  1.0 -0.4965465093
O  O438  1  0.96410000  0.73700000  0.03590000  1.0 -0.5399802674
O  O439  1  0.85240000  0.70100000  0.14760000  1.0 -0.5484507468
O  O440  1  0.88670000  0.67240000  0.11330000  1.0 -0.5484507468
O  O441  1  0.70450000  0.53641000  0.03641000  1.0 -0.4965465093
O  O442  1  0.76300000  0.53590000  0.03590000  1.0 -0.5399802674
O  O443  1  0.79900000  0.64760000  0.14760000  1.0 -0.5484507468
O  O444  1  0.82760000  0.61330000  0.11330000  1.0 -0.5484507468
O  O445  1  0.20450000  0.53641000  0.53641000  1.0 -0.4965465093
O  O446  1  0.26300000  0.53590000  0.53590000  1.0 -0.5399802674
O  O447  1  0.29900000  0.64760000  0.64760000  1.0 -0.5484507468
O  O448  1  0.32760000  0.61330000  0.61330000  1.0 -0.5484507468
O  O449  1  0.70450000  0.46359000  0.96359000  1.0 -0.4965465093
O  O450  1  0.76300000  0.46410000  0.96410000  1.0 -0.5399802674
O  O451  1  0.79900000  0.35240000  0.85240000  1.0 -0.5484507468
O  O452  1  0.82760000  0.38670000  0.88670000  1.0 -0.5484507468
O  O453  1  0.29550000  0.53641000  0.96359000  1.0 -0.4965465093
O  O454  1  0.23700000  0.53590000  0.96410000  1.0 -0.5399802674
O  O455  1  0.20100000  0.64760000  0.85240000  1.0 -0.5484507468
O  O456  1  0.17240000  0.61330000  0.88670000  1.0 -0.5484507468
O  O457  1  0.79550000  0.53641000  0.46359000  1.0 -0.4965465093
O  O458  1  0.73700000  0.53590000  0.46410000  1.0 -0.5399802674
O  O459  1  0.70100000  0.64760000  0.35240000  1.0 -0.5484507468
O  O460  1  0.67240000  0.61330000  0.38670000  1.0 -0.5484507468
O  O461  1  0.79550000  0.46359000  0.53641000  1.0 -0.4965465093
O  O462  1  0.73700000  0.46410000  0.53590000  1.0 -0.5399802674
O  O463  1  0.70100000  0.35240000  0.64760000  1.0 -0.5484507468
O  O464  1  0.67240000  0.38670000  0.61330000  1.0 -0.5484507468
O  O465  1  0.16190000  0.28289000  0.21711000  1.0 -0.0356240147
O  O466  1  0.66190000  0.28289000  0.71711000  1.0 -0.0337858005
O  O467  1  0.83810000  0.71711000  0.21711000  1.0 -0.0337858005
O  O468  1  0.33810000  0.71711000  0.71711000  1.0 -0.0356240147
O  O469  1  0.33810000  0.21711000  0.21711000  1.0 -0.0356240147
O  O470  1  0.83810000  0.28289000  0.78289000  1.0 -0.0337858005
O  O471  1  0.33810000  0.28289000  0.28289000  1.0 -0.0356240147
O  O472  1  0.16190000  0.71711000  0.78289000  1.0 -0.0356240147
O  O473  1  0.16190000  0.21711000  0.28289000  1.0 -0.0356240147
O  O474  1  0.66190000  0.71711000  0.28289000  1.0 -0.0337858005
O  O475  1  0.21711000  0.16190000  0.28289000  1.0 -0.0356240147
O  O476  1  0.21711000  0.66190000  0.78289000  1.0 -0.0356240147
O  O477  1  0.21711000  0.83810000  0.71711000  1.0 -0.0356240147
O  O478  1  0.21711000  0.33810000  0.21711000  1.0 -0.0356240147
O  O479  1  0.78289000  0.83810000  0.28289000  1.0 -0.0337858005
O  O480  1  0.78289000  0.33810000  0.78289000  1.0 -0.0337858005
O  O481  1  0.28289000  0.33810000  0.28289000  1.0 -0.0356240147
O  O482  1  0.78289000  0.16190000  0.71711000  1.0 -0.0337858005
O  O483  1  0.78289000  0.66190000  0.21711000  1.0 -0.0337858005
O  O484  1  0.28289000  0.16190000  0.21711000  1.0 -0.0356240147
O  O485  1  0.28289000  0.21711000  0.16190000  1.0 -0.0356240147
O  O486  1  0.28289000  0.71711000  0.66190000  1.0 -0.0356240147
O  O487  1  0.71711000  0.21711000  0.83810000  1.0 -0.0356240147
O  O488  1  0.71711000  0.71711000  0.33810000  1.0 -0.0337858005
O  O489  1  0.21711000  0.21711000  0.33810000  1.0 -0.0356240147
O  O490  1  0.28289000  0.78289000  0.83810000  1.0 -0.0356240147
O  O491  1  0.28289000  0.28289000  0.33810000  1.0 -0.0356240147
O  O492  1  0.71711000  0.78289000  0.16190000  1.0 -0.0337858005
O  O493  1  0.71711000  0.28289000  0.66190000  1.0 -0.0337858005
O  O494  1  0.21711000  0.28289000  0.16190000  1.0 -0.0356240147
O  O495  1  0.28289000  0.16190000  0.78289000  1.0 -0.0356240147
O  O496  1  0.28289000  0.66190000  0.28289000  1.0 -0.0356240147
O  O497  1  0.71711000  0.83810000  0.78289000  1.0 -0.0337858005
O  O498  1  0.71711000  0.33810000  0.28289000  1.0 -0.0337858005
O  O499  1  0.21711000  0.83810000  0.28289000  1.0 -0.0356240147
O  O500  1  0.28289000  0.83810000  0.21711000  1.0 -0.0356240147
O  O501  1  0.28289000  0.33810000  0.71711000  1.0 -0.0356240147
O  O502  1  0.71711000  0.16190000  0.21711000  1.0 -0.0356240147
O  O503  1  0.71711000  0.66190000  0.71711000  1.0 -0.0337858005
O  O504  1  0.21711000  0.66190000  0.21711000  1.0 -0.0356240147
O  O505  1  0.16190000  0.21711000  0.71711000  1.0 -0.0356240147
O  O506  1  0.66190000  0.21711000  0.21711000  1.0 -0.0356240147
O  O507  1  0.83810000  0.21711000  0.28289000  1.0 -0.0356240147
O  O508  1  0.33810000  0.21711000  0.78289000  1.0 -0.0356240147
O  O509  1  0.83810000  0.78289000  0.71711000  1.0 -0.0337858005
O  O510  1  0.83810000  0.28289000  0.21711000  1.0 -0.0337858005
O  O511  1  0.33810000  0.78289000  0.21711000  1.0 -0.0356240147
O  O512  1  0.16190000  0.78289000  0.28289000  1.0 -0.0356240147
O  O513  1  0.66190000  0.78289000  0.78289000  1.0 -0.0337858005
O  O514  1  0.66190000  0.28289000  0.28289000  1.0 -0.0337858005
O  O515  1  0.21711000  0.28289000  0.83810000  1.0 -0.0356240147
O  O516  1  0.21711000  0.78289000  0.33810000  1.0 -0.0356240147
O  O517  1  0.21711000  0.71711000  0.16190000  1.0 -0.0356240147
O  O518  1  0.21711000  0.21711000  0.66190000  1.0 -0.0356240147
O  O519  1  0.78289000  0.28289000  0.16190000  1.0 -0.0337858005
O  O520  1  0.78289000  0.78289000  0.66190000  1.0 -0.0337858005
O  O521  1  0.28289000  0.28289000  0.66190000  1.0 -0.0356240147
O  O522  1  0.78289000  0.71711000  0.83810000  1.0 -0.0337858005
O  O523  1  0.78289000  0.21711000  0.33810000  1.0 -0.0337858005
O  O524  1  0.28289000  0.21711000  0.83810000  1.0 -0.0356240147
O  O525  1  0.83810000  0.71711000  0.78289000  1.0 -0.0337858005
O  O526  1  0.33810000  0.71711000  0.28289000  1.0 -0.0356240147
O  O527  1  0.16190000  0.28289000  0.78289000  1.0 -0.0356240147
O  O528  1  0.16190000  0.71711000  0.21711000  1.0 -0.0356240147
O  O529  1  0.66190000  0.71711000  0.71711000  1.0 -0.0337858005
O  O530  1  0.33810000  0.28289000  0.71711000  1.0 -0.0356240147
O  O531  1  0.78289000  0.83810000  0.71711000  1.0 -0.0337858005
O  O532  1  0.78289000  0.33810000  0.21711000  1.0 -0.0337858005
O  O533  1  0.78289000  0.16190000  0.28289000  1.0 -0.0337858005
O  O534  1  0.78289000  0.66190000  0.78289000  1.0 -0.0337858005
O  O535  1  0.21711000  0.16190000  0.71711000  1.0 -0.0356240147
O  O536  1  0.21711000  0.33810000  0.78289000  1.0 -0.0356240147
O  O537  1  0.71711000  0.78289000  0.83810000  1.0 -0.0337858005
O  O538  1  0.71711000  0.28289000  0.33810000  1.0 -0.0337858005
O  O539  1  0.28289000  0.78289000  0.16190000  1.0 -0.0356240147
O  O540  1  0.71711000  0.21711000  0.16190000  1.0 -0.0356240147
O  O541  1  0.71711000  0.71711000  0.66190000  1.0 -0.0337858005
O  O542  1  0.28289000  0.71711000  0.33810000  1.0 -0.0356240147
O  O543  1  0.71711000  0.83810000  0.21711000  1.0 -0.0337858005
O  O544  1  0.71711000  0.33810000  0.71711000  1.0 -0.0337858005
O  O545  1  0.28289000  0.66190000  0.71711000  1.0 -0.0356240147
O  O546  1  0.71711000  0.16190000  0.78289000  1.0 -0.0356240147
O  O547  1  0.71711000  0.66190000  0.28289000  1.0 -0.0337858005
O  O548  1  0.28289000  0.83810000  0.78289000  1.0 -0.0356240147
O  O549  1  0.83810000  0.78289000  0.28289000  1.0 -0.0337858005
O  O550  1  0.33810000  0.78289000  0.78289000  1.0 -0.0356240147
O  O551  1  0.16190000  0.78289000  0.71711000  1.0 -0.0356240147
O  O552  1  0.66190000  0.78289000  0.21711000  1.0 -0.0337858005
O  O553  1  0.66190000  0.21711000  0.78289000  1.0 -0.0356240147
O  O554  1  0.83810000  0.21711000  0.71711000  1.0 -0.0356240147
O  O555  1  0.78289000  0.71711000  0.16190000  1.0 -0.0337858005
O  O556  1  0.78289000  0.21711000  0.66190000  1.0 -0.0337858005
O  O557  1  0.78289000  0.28289000  0.83810000  1.0 -0.0337858005
O  O558  1  0.78289000  0.78289000  0.33810000  1.0 -0.0337858005
O  O559  1  0.21711000  0.71711000  0.83810000  1.0 -0.0356240147
O  O560  1  0.21711000  0.78289000  0.66190000  1.0 -0.0356240147
O  O561  1  0.28620000  0.67670000  0.21380000  1.0 -0.2503568109
O  O562  1  0.32330000  0.71380000  0.21380000  1.0 -0.2503568109
O  O563  1  0.28620000  0.71380000  0.17670000  1.0 -0.2503568109
O  O564  1  0.28620000  0.17670000  0.71380000  1.0 -0.2503568109
O  O565  1  0.32330000  0.21380000  0.71380000  1.0 -0.2503568109
O  O566  1  0.28620000  0.21380000  0.67670000  1.0 -0.2503568109
O  O567  1  0.78620000  0.67670000  0.71380000  1.0 -0.2503568109
O  O568  1  0.82330000  0.71380000  0.71380000  1.0 -0.2503568109
O  O569  1  0.78620000  0.71380000  0.67670000  1.0 -0.2503568109
O  O570  1  0.78620000  0.17670000  0.21380000  1.0 -0.2503568109
O  O571  1  0.82330000  0.21380000  0.21380000  1.0 -0.2503568109
O  O572  1  0.78620000  0.21380000  0.17670000  1.0 -0.2503568109
O  O573  1  0.71380000  0.32330000  0.21380000  1.0 -0.2503568109
O  O574  1  0.67670000  0.28620000  0.21380000  1.0 -0.2503568109
O  O575  1  0.71380000  0.28620000  0.17670000  1.0 -0.2503568109
O  O576  1  0.71380000  0.82330000  0.71380000  1.0 -0.2503568109
O  O577  1  0.67670000  0.78620000  0.71380000  1.0 -0.2503568109
O  O578  1  0.71380000  0.78620000  0.67670000  1.0 -0.2503568109
O  O579  1  0.21380000  0.32330000  0.71380000  1.0 -0.2503568109
O  O580  1  0.17670000  0.28620000  0.71380000  1.0 -0.2503568109
O  O581  1  0.21380000  0.28620000  0.67670000  1.0 -0.2503568109
O  O582  1  0.21380000  0.82330000  0.21380000  1.0 -0.2503568109
O  O583  1  0.17670000  0.78620000  0.21380000  1.0 -0.2503568109
O  O584  1  0.21380000  0.78620000  0.17670000  1.0 -0.2503568109
O  O585  1  0.28620000  0.32330000  0.78620000  1.0 -0.2503568109
O  O586  1  0.32330000  0.28620000  0.78620000  1.0 -0.2503568109
O  O587  1  0.28620000  0.28620000  0.82330000  1.0 -0.2503568109
O  O588  1  0.28620000  0.82330000  0.28620000  1.0 -0.2503568109
O  O589  1  0.32330000  0.78620000  0.28620000  1.0 -0.2503568109
O  O590  1  0.28620000  0.78620000  0.32330000  1.0 -0.2503568109
O  O591  1  0.78620000  0.32330000  0.28620000  1.0 -0.2503568109
O  O592  1  0.82330000  0.28620000  0.28620000  1.0 -0.2503568109
O  O593  1  0.78620000  0.28620000  0.32330000  1.0 -0.2503568109
O  O594  1  0.78620000  0.82330000  0.78620000  1.0 -0.2503568109
O  O595  1  0.82330000  0.78620000  0.78620000  1.0 -0.2503568109
O  O596  1  0.78620000  0.78620000  0.82330000  1.0 -0.2503568109
O  O597  1  0.71380000  0.67670000  0.78620000  1.0 -0.2503568109
O  O598  1  0.67670000  0.71380000  0.78620000  1.0 -0.2503568109
O  O599  1  0.71380000  0.71380000  0.82330000  1.0 -0.2503568109
O  O600  1  0.71380000  0.17670000  0.28620000  1.0 -0.2503568109
O  O601  1  0.67670000  0.21380000  0.28620000  1.0 -0.2503568109
O  O602  1  0.71380000  0.21380000  0.32330000  1.0 -0.2503568109
O  O603  1  0.21380000  0.67670000  0.28620000  1.0 -0.2503568109
O  O604  1  0.17670000  0.71380000  0.28620000  1.0 -0.2503568109
O  O605  1  0.21380000  0.71380000  0.32330000  1.0 -0.2503568109
O  O606  1  0.21380000  0.17670000  0.78620000  1.0 -0.2503568109
O  O607  1  0.17670000  0.21380000  0.78620000  1.0 -0.2503568109
O  O608  1  0.21380000  0.21380000  0.82330000  1.0 -0.2503568109
O  O609  1  0.67670000  0.28620000  0.78620000  1.0 -0.2503568109
O  O610  1  0.71380000  0.32330000  0.78620000  1.0 -0.2503568109
O  O611  1  0.71380000  0.28620000  0.82330000  1.0 -0.2503568109
O  O612  1  0.67670000  0.78620000  0.28620000  1.0 -0.2503568109
O  O613  1  0.71380000  0.82330000  0.28620000  1.0 -0.2503568109
O  O614  1  0.71380000  0.78620000  0.32330000  1.0 -0.2503568109
O  O615  1  0.17670000  0.28620000  0.28620000  1.0 -0.2503568109
O  O616  1  0.21380000  0.32330000  0.28620000  1.0 -0.2503568109
O  O617  1  0.21380000  0.28620000  0.32330000  1.0 -0.2503568109
O  O618  1  0.17670000  0.78620000  0.78620000  1.0 -0.2503568109
O  O619  1  0.21380000  0.82330000  0.78620000  1.0 -0.2503568109
O  O620  1  0.21380000  0.78620000  0.82330000  1.0 -0.2503568109
O  O621  1  0.32330000  0.71380000  0.78620000  1.0 -0.2503568109
O  O622  1  0.28620000  0.67670000  0.78620000  1.0 -0.2503568109
O  O623  1  0.28620000  0.71380000  0.82330000  1.0 -0.2503568109
O  O624  1  0.32330000  0.21380000  0.28620000  1.0 -0.2503568109
O  O625  1  0.28620000  0.17670000  0.28620000  1.0 -0.2503568109
O  O626  1  0.28620000  0.21380000  0.32330000  1.0 -0.2503568109
O  O627  1  0.82330000  0.71380000  0.28620000  1.0 -0.2503568109
O  O628  1  0.78620000  0.67670000  0.28620000  1.0 -0.2503568109
O  O629  1  0.78620000  0.71380000  0.32330000  1.0 -0.2503568109
O  O630  1  0.82330000  0.21380000  0.78620000  1.0 -0.2503568109
O  O631  1  0.78620000  0.17670000  0.78620000  1.0 -0.2503568109
O  O632  1  0.78620000  0.21380000  0.82330000  1.0 -0.2503568109
O  O633  1  0.32330000  0.28620000  0.21380000  1.0 -0.2503568109
O  O634  1  0.28620000  0.32330000  0.21380000  1.0 -0.2503568109
O  O635  1  0.28620000  0.28620000  0.17670000  1.0 -0.2503568109
O  O636  1  0.32330000  0.78620000  0.71380000  1.0 -0.2503568109
O  O637  1  0.28620000  0.82330000  0.71380000  1.0 -0.2503568109
O  O638  1  0.28620000  0.78620000  0.67670000  1.0 -0.2503568109
O  O639  1  0.82330000  0.28620000  0.71380000  1.0 -0.2503568109
O  O640  1  0.78620000  0.32330000  0.71380000  1.0 -0.2503568109
O  O641  1  0.78620000  0.28620000  0.67670000  1.0 -0.2503568109
O  O642  1  0.82330000  0.78620000  0.21380000  1.0 -0.2503568109
O  O643  1  0.78620000  0.82330000  0.21380000  1.0 -0.2503568109
O  O644  1  0.78620000  0.78620000  0.17670000  1.0 -0.2503568109
O  O645  1  0.67670000  0.71380000  0.21380000  1.0 -0.2503568109
O  O646  1  0.71380000  0.67670000  0.21380000  1.0 -0.2503568109
O  O647  1  0.71380000  0.71380000  0.17670000  1.0 -0.2503568109
O  O648  1  0.67670000  0.21380000  0.71380000  1.0 -0.2503568109
O  O649  1  0.71380000  0.17670000  0.71380000  1.0 -0.2503568109
O  O650  1  0.71380000  0.21380000  0.67670000  1.0 -0.2503568109
O  O651  1  0.17670000  0.71380000  0.71380000  1.0 -0.2503568109
O  O652  1  0.21380000  0.67670000  0.71380000  1.0 -0.2503568109
O  O653  1  0.21380000  0.71380000  0.67670000  1.0 -0.2503568109
O  O654  1  0.17670000  0.21380000  0.21380000  1.0 -0.2503568109
O  O655  1  0.21380000  0.17670000  0.21380000  1.0 -0.2503568109
O  O656  1  0.21380000  0.21380000  0.17670000  1.0 -0.2503568109
