# DDEC6 charges by PACMAN v1.1 (https://github.com/mtap-research/PACMAN-charge/)
data_c7ta00437k2_FSR_pacman
_symmetry_space_group_name_H-M   'P 1'
_cell_length_a   18.68200000
_cell_length_b   18.68200000
_cell_length_c   18.20400000
_cell_angle_alpha   90.00000000
_cell_angle_beta   90.00000000
_cell_angle_gamma   90.00000000
_symmetry_Int_Tables_number   1
_chemical_formula_structural   Ti8C90.4N10.08O50
_chemical_formula_sum   'Ti8 C90.4 N10.08 O50'
_cell_volume   6353.50772530
_cell_formula_units_Z   1
loop_
 _symmetry_equiv_pos_site_id
 _symmetry_equiv_pos_as_xyz
  1  'x, y, z'
loop_
 _atom_site_type_symbol
 _atom_site_label
 _atom_site_symmetry_multiplicity
 _atom_site_fract_x
 _atom_site_fract_y
 _atom_site_fract_z
 _atom_site_occupancy
 _atom_site_charge
Ti  Ti1  1  0.20830000  0.07400000  0.50000000  0.5 1.8390806934
Ti  Ti2  1  0.70830000  0.57400000  0.00000000  0.5 1.8390806934
Ti  Ti3  1  0.79170000  0.92600000  0.50000000  0.5 1.8390806934
Ti  Ti4  1  0.29170000  0.42600000  0.00000000  0.5 1.8390806934
Ti  Ti5  1  0.92600000  0.20830000  0.50000000  0.5 1.8390806934
Ti  Ti6  1  0.42600000  0.70830000  0.00000000  0.5 1.8390806934
Ti  Ti7  1  0.07400000  0.79170000  0.50000000  0.5 1.8390806934
Ti  Ti8  1  0.57400000  0.29170000  0.00000000  0.5 1.8390806934
Ti  Ti9  1  0.79170000  0.07400000  0.50000000  0.5 1.8390806934
Ti  Ti10  1  0.29170000  0.57400000  0.00000000  0.5 1.8390806934
Ti  Ti11  1  0.20830000  0.92600000  0.50000000  0.5 1.8390806934
Ti  Ti12  1  0.70830000  0.42600000  0.00000000  0.5 1.8390806934
Ti  Ti13  1  0.07400000  0.20830000  0.50000000  0.5 1.8390806934
Ti  Ti14  1  0.57400000  0.70830000  0.00000000  0.5 1.8390806934
Ti  Ti15  1  0.92600000  0.79170000  0.50000000  0.5 1.8390806934
Ti  Ti16  1  0.42600000  0.29170000  0.00000000  0.5 1.8390806934
C  C1  1  0.19291000  0.28122000  0.28426000  0.13 0.0428881685
C  C2  1  0.30217000  0.93329000  0.69222000  0.13 0.085870637
C  C3  1  0.58820000  0.82561000  0.43721000  0.13 0.0490796599
C  C4  1  0.37916000  0.88802000  0.85220000  0.13 0.066084197
C  C5  1  0.31342000  0.06390000  0.86465000  0.13 -0.0330385588
C  C6  1  0.25565000  0.01497000  0.64698000  0.13 0.0490796599
C  C7  1  0.33560000  0.18912000  0.59104000  0.13 0.0978594145
C  C8  1  0.75712000  0.23074000  0.77128000  0.13 0.0104828381
C  C9  1  0.20446000  0.47491000  0.60749000  0.13 -0.0196780506
C  C10  1  0.27116000  0.64652000  0.39613000  0.13 -0.0196780506
C  C11  1  0.28758000  0.56509000  0.40627000  0.13 0.1338685718
C  C12  1  0.16070000  0.51362000  0.34431000  0.13 -0.0196780506
C  C13  1  0.09583000  0.48902000  0.36810000  0.13 -0.0722047326
C  C14  1  0.70362000  0.47390000  0.79381000  0.13 0.0104828381
C  C15  1  0.70127000  0.45018000  0.74503000  0.13 -0.00142759
C  C16  1  0.69291000  0.78122000  0.78426000  0.13 0.0428881685
C  C17  1  0.80217000  0.43329000  0.19222000  0.13 0.085870637
C  C18  1  0.08820000  0.32561000  0.93721000  0.13 0.0428881685
C  C19  1  0.87916000  0.38802000  0.35220000  0.13 0.066084197
C  C20  1  0.81342000  0.56390000  0.36465000  0.13 -0.0330385588
C  C21  1  0.75565000  0.51497000  0.14698000  0.13 0.0490796599
C  C22  1  0.83560000  0.68912000  0.09104000  0.13 0.0978594145
C  C23  1  0.25712000  0.73074000  0.27128000  0.13 0.0104828381
C  C24  1  0.70446000  0.97491000  0.10749000  0.13 -0.0196780506
C  C25  1  0.77116000  0.14652000  0.89613000  0.13 -0.0196780506
C  C26  1  0.78758000  0.06509000  0.90627000  0.13 0.1364080096
C  C27  1  0.66070000  0.01362000  0.84431000  0.13 -0.0196780506
C  C28  1  0.59583000  0.98902000  0.86810000  0.13 -0.0722047326
C  C29  1  0.20362000  0.97390000  0.29381000  0.13 0.0104828381
C  C30  1  0.20127000  0.95018000  0.24503000  0.13 -0.00142759
C  C31  1  0.80709000  0.71878000  0.28426000  0.13 0.0428881685
C  C32  1  0.69783000  0.06671000  0.69222000  0.13 0.085870637
C  C33  1  0.41180000  0.17439000  0.43721000  0.13 0.0490796599
C  C34  1  0.62084000  0.11198000  0.85220000  0.13 0.066084197
C  C35  1  0.68658000  0.93610000  0.86465000  0.13 -0.0330385588
C  C36  1  0.74435000  0.98503000  0.64698000  0.13 0.0490796599
C  C37  1  0.66440000  0.81088000  0.59104000  0.13 0.0978594145
C  C38  1  0.24288000  0.76926000  0.77128000  0.13 0.0104828381
C  C39  1  0.79554000  0.52509000  0.60749000  0.13 -0.0196780506
C  C40  1  0.72884000  0.35348000  0.39613000  0.13 -0.0196780506
C  C41  1  0.71242000  0.43491000  0.40627000  0.13 0.1364080096
C  C42  1  0.83930000  0.48638000  0.34431000  0.13 -0.0196780506
C  C43  1  0.90417000  0.51098000  0.36810000  0.13 -0.0722047326
C  C44  1  0.29638000  0.52610000  0.79381000  0.13 0.0104828381
C  C45  1  0.29873000  0.54982000  0.74503000  0.13 -0.00142759
C  C46  1  0.30709000  0.21878000  0.78426000  0.13 0.0428881685
C  C47  1  0.19783000  0.56671000  0.19222000  0.13 0.085870637
C  C48  1  0.91180000  0.67439000  0.93721000  0.13 0.0428881685
C  C49  1  0.12084000  0.61198000  0.35220000  0.13 0.066084197
C  C50  1  0.18658000  0.43610000  0.36465000  0.13 -0.0330385588
C  C51  1  0.24435000  0.48503000  0.14698000  0.13 0.0490796599
C  C52  1  0.16440000  0.31088000  0.09104000  0.13 0.0978594145
C  C53  1  0.74288000  0.26926000  0.27128000  0.13 0.0104828381
C  C54  1  0.29554000  0.02509000  0.10749000  0.13 -0.0196780506
C  C55  1  0.22884000  0.85348000  0.89613000  0.13 -0.0196780506
C  C56  1  0.21242000  0.93491000  0.90627000  0.13 0.1364080096
C  C57  1  0.33930000  0.98638000  0.84431000  0.13 -0.0196780506
C  C58  1  0.40417000  0.01098000  0.86810000  0.13 -0.0722047326
C  C59  1  0.79638000  0.02610000  0.29381000  0.13 0.0104828381
C  C60  1  0.79873000  0.04982000  0.24503000  0.13 -0.00142759
C  C61  1  0.71878000  0.19291000  0.28426000  0.13 0.0428881685
C  C62  1  0.06671000  0.30217000  0.69222000  0.13 0.085870637
C  C63  1  0.17439000  0.58820000  0.43721000  0.13 0.0490796599
C  C64  1  0.11198000  0.37916000  0.85220000  0.13 0.066084197
C  C65  1  0.93610000  0.31342000  0.86465000  0.13 -0.0330385588
C  C66  1  0.98503000  0.25565000  0.64698000  0.13 0.0490796599
C  C67  1  0.81088000  0.33560000  0.59104000  0.13 0.0978594145
C  C68  1  0.76926000  0.75712000  0.77128000  0.13 0.0104828381
C  C69  1  0.52509000  0.20446000  0.60749000  0.13 -0.0196780506
C  C70  1  0.35348000  0.27116000  0.39613000  0.13 -0.0196780506
C  C71  1  0.43491000  0.28758000  0.40627000  0.13 0.1364080096
C  C72  1  0.48638000  0.16070000  0.34431000  0.13 -0.0196780506
C  C73  1  0.51098000  0.09583000  0.36810000  0.13 -0.0722047326
C  C74  1  0.52610000  0.70362000  0.79381000  0.13 0.0104828381
C  C75  1  0.54982000  0.70127000  0.74503000  0.13 -0.00142759
C  C76  1  0.21878000  0.69291000  0.78426000  0.13 0.0428881685
C  C77  1  0.56671000  0.80217000  0.19222000  0.13 0.085870637
C  C78  1  0.67439000  0.08820000  0.93721000  0.13 0.0428881685
C  C79  1  0.61198000  0.87916000  0.35220000  0.13 0.066084197
C  C80  1  0.43610000  0.81342000  0.36465000  0.13 -0.0330385588
C  C81  1  0.48503000  0.75565000  0.14698000  0.13 0.0490796599
C  C82  1  0.31088000  0.83560000  0.09104000  0.13 0.0978594145
C  C83  1  0.26926000  0.25712000  0.27128000  0.13 0.0104828381
C  C84  1  0.02509000  0.70446000  0.10749000  0.13 -0.0196780506
C  C85  1  0.85348000  0.77116000  0.89613000  0.13 -0.0196780506
C  C86  1  0.93491000  0.78758000  0.90627000  0.13 0.1364080096
C  C87  1  0.98638000  0.66070000  0.84431000  0.13 -0.0196780506
C  C88  1  0.01098000  0.59583000  0.86810000  0.13 -0.0722047326
C  C89  1  0.02610000  0.20362000  0.29381000  0.13 0.0104828381
C  C90  1  0.04982000  0.20127000  0.24503000  0.13 -0.00142759
C  C91  1  0.28122000  0.80709000  0.28426000  0.13 0.0428881685
C  C92  1  0.93329000  0.69783000  0.69222000  0.13 0.085870637
C  C93  1  0.82561000  0.41180000  0.43721000  0.13 0.0490796599
C  C94  1  0.88802000  0.62084000  0.85220000  0.13 0.066084197
C  C95  1  0.06390000  0.68658000  0.86465000  0.13 -0.0330385588
C  C96  1  0.01497000  0.74435000  0.64698000  0.13 0.0490796599
C  C97  1  0.18912000  0.66440000  0.59104000  0.13 0.0978594145
C  C98  1  0.23074000  0.24288000  0.77128000  0.13 0.0104828381
C  C99  1  0.47491000  0.79554000  0.60749000  0.13 -0.0196780506
C  C100  1  0.64652000  0.72884000  0.39613000  0.13 -0.0196780506
C  C101  1  0.56509000  0.71242000  0.40627000  0.13 0.1338685718
C  C102  1  0.51362000  0.83930000  0.34431000  0.13 -0.0196780506
C  C103  1  0.48902000  0.90417000  0.36810000  0.13 -0.0722047326
C  C104  1  0.47390000  0.29638000  0.79381000  0.13 0.0104828381
C  C105  1  0.45018000  0.29873000  0.74503000  0.13 -0.00142759
C  C106  1  0.78122000  0.30709000  0.78426000  0.13 0.0428881685
C  C107  1  0.43329000  0.19783000  0.19222000  0.13 0.085870637
C  C108  1  0.32561000  0.91180000  0.93721000  0.13 0.0428881685
C  C109  1  0.38802000  0.12084000  0.35220000  0.13 0.066084197
C  C110  1  0.56390000  0.18658000  0.36465000  0.13 -0.0330385588
C  C111  1  0.51497000  0.24435000  0.14698000  0.13 0.0490796599
C  C112  1  0.68912000  0.16440000  0.09104000  0.13 0.0978594145
C  C113  1  0.73074000  0.74288000  0.27128000  0.13 0.0104828381
C  C114  1  0.97491000  0.29554000  0.10749000  0.13 -0.0196780506
C  C115  1  0.14652000  0.22884000  0.89613000  0.13 -0.0196780506
C  C116  1  0.06509000  0.21242000  0.90627000  0.13 0.1364080096
C  C117  1  0.01362000  0.33930000  0.84431000  0.13 -0.0196780506
C  C118  1  0.98902000  0.40417000  0.86810000  0.13 -0.0722047326
C  C119  1  0.97390000  0.79638000  0.29381000  0.13 0.0104828381
C  C120  1  0.95018000  0.79873000  0.24503000  0.13 -0.00142759
C  C121  1  0.80709000  0.28122000  0.71574000  0.13 0.0428881685
C  C122  1  0.69783000  0.93329000  0.30778000  0.13 0.085870637
C  C123  1  0.41180000  0.82561000  0.56279000  0.13 0.0428881685
C  C124  1  0.62084000  0.88802000  0.14780000  0.13 0.066084197
C  C125  1  0.68658000  0.06390000  0.13535000  0.13 -0.0330385588
C  C126  1  0.74435000  0.01497000  0.35302000  0.13 0.0490796599
C  C127  1  0.66440000  0.18912000  0.40896000  0.13 0.0978594145
C  C128  1  0.24288000  0.23074000  0.22872000  0.13 0.0104828381
C  C129  1  0.79554000  0.47491000  0.39251000  0.13 -0.0196780506
C  C130  1  0.72884000  0.64652000  0.60387000  0.13 -0.0196780506
C  C131  1  0.71242000  0.56509000  0.59373000  0.13 0.1364080096
C  C132  1  0.83930000  0.51362000  0.65569000  0.13 -0.0196780506
C  C133  1  0.90417000  0.48902000  0.63190000  0.13 -0.0722047326
C  C134  1  0.29638000  0.47390000  0.20619000  0.13 0.0104828381
C  C135  1  0.29873000  0.45018000  0.25497000  0.13 -0.00142759
C  C136  1  0.30709000  0.78122000  0.21574000  0.13 0.0428881685
C  C137  1  0.19783000  0.43329000  0.80778000  0.13 0.085870637
C  C138  1  0.91180000  0.32561000  0.06279000  0.13 0.0490796599
C  C139  1  0.12084000  0.38802000  0.64780000  0.13 0.066084197
C  C140  1  0.18658000  0.56390000  0.63535000  0.13 -0.0330385588
C  C141  1  0.24435000  0.51497000  0.85302000  0.13 0.0490796599
C  C142  1  0.16440000  0.68912000  0.90896000  0.13 0.0978594145
C  C143  1  0.74288000  0.73074000  0.72872000  0.13 0.0104828381
C  C144  1  0.29554000  0.97491000  0.89251000  0.13 -0.0196780506
C  C145  1  0.22884000  0.14652000  0.10387000  0.13 -0.0196780506
C  C146  1  0.21242000  0.06509000  0.09373000  0.13 0.1364080096
C  C147  1  0.33930000  0.01362000  0.15569000  0.13 -0.0196780506
C  C148  1  0.40417000  0.98902000  0.13190000  0.13 -0.0722047326
C  C149  1  0.79638000  0.97390000  0.70619000  0.13 0.0104828381
C  C150  1  0.79873000  0.95018000  0.75497000  0.13 -0.00142759
C  C151  1  0.19291000  0.71878000  0.71574000  0.13 0.0428881685
C  C152  1  0.30217000  0.06671000  0.30778000  0.13 0.085870637
C  C153  1  0.58820000  0.17439000  0.56279000  0.13 0.0490796599
C  C154  1  0.37916000  0.11198000  0.14780000  0.13 0.066084197
C  C155  1  0.31342000  0.93610000  0.13535000  0.13 -0.0330385588
C  C156  1  0.25565000  0.98503000  0.35302000  0.13 0.0490796599
C  C157  1  0.33560000  0.81088000  0.40896000  0.13 0.0978594145
C  C158  1  0.75712000  0.76926000  0.22872000  0.13 0.0104828381
C  C159  1  0.20446000  0.52509000  0.39251000  0.13 -0.0196780506
C  C160  1  0.27116000  0.35348000  0.60387000  0.13 -0.0196780506
C  C161  1  0.28758000  0.43491000  0.59373000  0.13 0.1364080096
C  C162  1  0.16070000  0.48638000  0.65569000  0.13 -0.0196780506
C  C163  1  0.09583000  0.51098000  0.63190000  0.13 -0.0722047326
C  C164  1  0.70362000  0.52610000  0.20619000  0.13 0.0104828381
C  C165  1  0.70127000  0.54982000  0.25497000  0.13 -0.00142759
C  C166  1  0.69291000  0.21878000  0.21574000  0.13 0.0428881685
C  C167  1  0.80217000  0.56671000  0.80778000  0.13 0.085870637
C  C168  1  0.08820000  0.67439000  0.06279000  0.13 0.0490796599
C  C169  1  0.87916000  0.61198000  0.64780000  0.13 0.066084197
C  C170  1  0.81342000  0.43610000  0.63535000  0.13 -0.0330385588
C  C171  1  0.75565000  0.48503000  0.85302000  0.13 0.0490796599
C  C172  1  0.83560000  0.31088000  0.90896000  0.13 0.0978594145
C  C173  1  0.25712000  0.26926000  0.72872000  0.13 0.0104828381
C  C174  1  0.70446000  0.02509000  0.89251000  0.13 -0.0196780506
C  C175  1  0.77116000  0.85348000  0.10387000  0.13 -0.0196780506
C  C176  1  0.78758000  0.93491000  0.09373000  0.13 0.1338685718
C  C177  1  0.66070000  0.98638000  0.15569000  0.13 -0.0196780506
C  C178  1  0.59583000  0.01098000  0.13190000  0.13 -0.0722047326
C  C179  1  0.20362000  0.02610000  0.70619000  0.13 0.0104828381
C  C180  1  0.20127000  0.04982000  0.75497000  0.13 -0.00142759
C  C181  1  0.28122000  0.19291000  0.71574000  0.13 0.0428881685
C  C182  1  0.93329000  0.30217000  0.30778000  0.13 0.085870637
C  C183  1  0.82561000  0.58820000  0.56279000  0.13 0.0490796599
C  C184  1  0.88802000  0.37916000  0.14780000  0.13 0.066084197
C  C185  1  0.06390000  0.31342000  0.13535000  0.13 -0.0330385588
C  C186  1  0.01497000  0.25565000  0.35302000  0.13 0.0490796599
C  C187  1  0.18912000  0.33560000  0.40896000  0.13 0.0978594145
C  C188  1  0.23074000  0.75712000  0.22872000  0.13 0.0104828381
C  C189  1  0.47491000  0.20446000  0.39251000  0.13 -0.0196780506
C  C190  1  0.64652000  0.27116000  0.60387000  0.13 -0.0196780506
C  C191  1  0.56509000  0.28758000  0.59373000  0.13 0.1364080096
C  C192  1  0.51362000  0.16070000  0.65569000  0.13 -0.0196780506
C  C193  1  0.48902000  0.09583000  0.63190000  0.13 -0.0722047326
C  C194  1  0.47390000  0.70362000  0.20619000  0.13 0.0104828381
C  C195  1  0.45018000  0.70127000  0.25497000  0.13 -0.00142759
C  C196  1  0.78122000  0.69291000  0.21574000  0.13 0.0428881685
C  C197  1  0.43329000  0.80217000  0.80778000  0.13 0.085870637
C  C198  1  0.32561000  0.08820000  0.06279000  0.13 0.0490796599
C  C199  1  0.38802000  0.87916000  0.64780000  0.13 0.066084197
C  C200  1  0.56390000  0.81342000  0.63535000  0.13 -0.0330385588
C  C201  1  0.51497000  0.75565000  0.85302000  0.13 0.0490796599
C  C202  1  0.68912000  0.83560000  0.90896000  0.13 0.0978594145
C  C203  1  0.73074000  0.25712000  0.72872000  0.13 0.0104828381
C  C204  1  0.97491000  0.70446000  0.89251000  0.13 -0.0196780506
C  C205  1  0.14652000  0.77116000  0.10387000  0.13 -0.0196780506
C  C206  1  0.06509000  0.78758000  0.09373000  0.13 0.1338685718
C  C207  1  0.01362000  0.66070000  0.15569000  0.13 -0.0196780506
C  C208  1  0.98902000  0.59583000  0.13190000  0.13 -0.0722047326
C  C209  1  0.97390000  0.20362000  0.70619000  0.13 0.0104828381
C  C210  1  0.95018000  0.20127000  0.75497000  0.13 -0.00142759
C  C211  1  0.71878000  0.80709000  0.71574000  0.13 0.0428881685
C  C212  1  0.06671000  0.69783000  0.30778000  0.13 0.085870637
C  C213  1  0.17439000  0.41180000  0.56279000  0.13 0.0490796599
C  C214  1  0.11198000  0.62084000  0.14780000  0.13 0.066084197
C  C215  1  0.93610000  0.68658000  0.13535000  0.13 -0.0330385588
C  C216  1  0.98503000  0.74435000  0.35302000  0.13 0.0490796599
C  C217  1  0.81088000  0.66440000  0.40896000  0.13 0.0978594145
C  C218  1  0.76926000  0.24288000  0.22872000  0.13 0.0104828381
C  C219  1  0.52509000  0.79554000  0.39251000  0.13 -0.0196780506
C  C220  1  0.35348000  0.72884000  0.60387000  0.13 -0.0196780506
C  C221  1  0.43491000  0.71242000  0.59373000  0.13 0.1364080096
C  C222  1  0.48638000  0.83930000  0.65569000  0.13 -0.0196780506
C  C223  1  0.51098000  0.90417000  0.63190000  0.13 -0.0722047326
C  C224  1  0.52610000  0.29638000  0.20619000  0.13 0.0104828381
C  C225  1  0.54982000  0.29873000  0.25497000  0.13 -0.00142759
C  C226  1  0.21878000  0.30709000  0.21574000  0.13 0.0428881685
C  C227  1  0.56671000  0.19783000  0.80778000  0.13 0.085870637
C  C228  1  0.67439000  0.91180000  0.06279000  0.13 0.0490796599
C  C229  1  0.61198000  0.12084000  0.64780000  0.13 0.066084197
C  C230  1  0.43610000  0.18658000  0.63535000  0.13 -0.0330385588
C  C231  1  0.48503000  0.24435000  0.85302000  0.13 0.0490796599
C  C232  1  0.31088000  0.16440000  0.90896000  0.13 0.0978594145
C  C233  1  0.26926000  0.74288000  0.72872000  0.13 0.0104828381
C  C234  1  0.02509000  0.29554000  0.89251000  0.13 -0.0196780506
C  C235  1  0.85348000  0.22884000  0.10387000  0.13 -0.0196780506
C  C236  1  0.93491000  0.21242000  0.09373000  0.13 0.1364080096
C  C237  1  0.98638000  0.33930000  0.15569000  0.13 -0.0196780506
C  C238  1  0.01098000  0.40417000  0.13190000  0.13 -0.0722047326
C  C239  1  0.02610000  0.79638000  0.70619000  0.13 0.0104828381
C  C240  1  0.04982000  0.79873000  0.75497000  0.13 -0.00142759
C  C241  1  0.80709000  0.71878000  0.71574000  0.13 0.0428881685
C  C242  1  0.69783000  0.06671000  0.30778000  0.13 0.085870637
C  C243  1  0.41180000  0.17439000  0.56279000  0.13 0.0490796599
C  C244  1  0.62084000  0.11198000  0.14780000  0.13 0.066084197
C  C245  1  0.68658000  0.93610000  0.13535000  0.13 -0.0330385588
C  C246  1  0.74435000  0.98503000  0.35302000  0.13 0.0490796599
C  C247  1  0.66440000  0.81088000  0.40896000  0.13 0.0978594145
C  C248  1  0.24288000  0.76926000  0.22872000  0.13 0.0104828381
C  C249  1  0.79554000  0.52509000  0.39251000  0.13 -0.0196780506
C  C250  1  0.72884000  0.35348000  0.60387000  0.13 -0.0196780506
C  C251  1  0.71242000  0.43491000  0.59373000  0.13 0.1364080096
C  C252  1  0.83930000  0.48638000  0.65569000  0.13 -0.0196780506
C  C253  1  0.90417000  0.51098000  0.63190000  0.13 -0.0722047326
C  C254  1  0.29638000  0.52610000  0.20619000  0.13 0.0104828381
C  C255  1  0.29873000  0.54982000  0.25497000  0.13 -0.00142759
C  C256  1  0.30709000  0.21878000  0.21574000  0.13 0.0428881685
C  C257  1  0.19783000  0.56671000  0.80778000  0.13 0.085870637
C  C258  1  0.91180000  0.67439000  0.06279000  0.13 0.0490796599
C  C259  1  0.12084000  0.61198000  0.64780000  0.13 0.066084197
C  C260  1  0.18658000  0.43610000  0.63535000  0.13 -0.0330385588
C  C261  1  0.24435000  0.48503000  0.85302000  0.13 0.0490796599
C  C262  1  0.16440000  0.31088000  0.90896000  0.13 0.0978594145
C  C263  1  0.74288000  0.26926000  0.72872000  0.13 0.0104828381
C  C264  1  0.29554000  0.02509000  0.89251000  0.13 -0.0196780506
C  C265  1  0.22884000  0.85348000  0.10387000  0.13 -0.0196780506
C  C266  1  0.21242000  0.93491000  0.09373000  0.13 0.1338685718
C  C267  1  0.33930000  0.98638000  0.15569000  0.13 -0.0196780506
C  C268  1  0.40417000  0.01098000  0.13190000  0.13 -0.0722047326
C  C269  1  0.79638000  0.02610000  0.70619000  0.13 0.0104828381
C  C270  1  0.79873000  0.04982000  0.75497000  0.13 -0.00142759
C  C271  1  0.19291000  0.28122000  0.71574000  0.13 0.0428881685
C  C272  1  0.30217000  0.93329000  0.30778000  0.13 0.085870637
C  C273  1  0.58820000  0.82561000  0.56279000  0.13 0.0428881685
C  C274  1  0.37916000  0.88802000  0.14780000  0.13 0.066084197
C  C275  1  0.31342000  0.06390000  0.13535000  0.13 -0.0330385588
C  C276  1  0.25565000  0.01497000  0.35302000  0.13 0.0490796599
C  C277  1  0.33560000  0.18912000  0.40896000  0.13 0.0978594145
C  C278  1  0.75712000  0.23074000  0.22872000  0.13 0.0104828381
C  C279  1  0.20446000  0.47491000  0.39251000  0.13 -0.0196780506
C  C280  1  0.27116000  0.64652000  0.60387000  0.13 -0.0196780506
C  C281  1  0.28758000  0.56509000  0.59373000  0.13 0.1364080096
C  C282  1  0.16070000  0.51362000  0.65569000  0.13 -0.0196780506
C  C283  1  0.09583000  0.48902000  0.63190000  0.13 -0.0722047326
C  C284  1  0.70362000  0.47390000  0.20619000  0.13 0.0104828381
C  C285  1  0.70127000  0.45018000  0.25497000  0.13 -0.00142759
C  C286  1  0.69291000  0.78122000  0.21574000  0.13 0.0428881685
C  C287  1  0.80217000  0.43329000  0.80778000  0.13 0.085870637
C  C288  1  0.08820000  0.32561000  0.06279000  0.13 0.0490796599
C  C289  1  0.87916000  0.38802000  0.64780000  0.13 0.066084197
C  C290  1  0.81342000  0.56390000  0.63535000  0.13 -0.0330385588
C  C291  1  0.75565000  0.51497000  0.85302000  0.13 0.0490796599
C  C292  1  0.83560000  0.68912000  0.90896000  0.13 0.0978594145
C  C293  1  0.25712000  0.73074000  0.72872000  0.13 0.0104828381
C  C294  1  0.70446000  0.97491000  0.89251000  0.13 -0.0196780506
C  C295  1  0.77116000  0.14652000  0.10387000  0.13 -0.0196780506
C  C296  1  0.78758000  0.06509000  0.09373000  0.13 0.1364080096
C  C297  1  0.66070000  0.01362000  0.15569000  0.13 -0.0196780506
C  C298  1  0.59583000  0.98902000  0.13190000  0.13 -0.0722047326
C  C299  1  0.20362000  0.97390000  0.70619000  0.13 0.0104828381
C  C300  1  0.20127000  0.95018000  0.75497000  0.13 -0.00142759
C  C301  1  0.28122000  0.80709000  0.71574000  0.13 0.0428881685
C  C302  1  0.93329000  0.69783000  0.30778000  0.13 0.085870637
C  C303  1  0.82561000  0.41180000  0.56279000  0.13 0.0490796599
C  C304  1  0.88802000  0.62084000  0.14780000  0.13 0.066084197
C  C305  1  0.06390000  0.68658000  0.13535000  0.13 -0.0330385588
C  C306  1  0.01497000  0.74435000  0.35302000  0.13 0.0490796599
C  C307  1  0.18912000  0.66440000  0.40896000  0.13 0.0978594145
C  C308  1  0.23074000  0.24288000  0.22872000  0.13 0.0104828381
C  C309  1  0.47491000  0.79554000  0.39251000  0.13 -0.0196780506
C  C310  1  0.64652000  0.72884000  0.60387000  0.13 -0.0196780506
C  C311  1  0.56509000  0.71242000  0.59373000  0.13 0.1364080096
C  C312  1  0.51362000  0.83930000  0.65569000  0.13 -0.0196780506
C  C313  1  0.48902000  0.90417000  0.63190000  0.13 -0.0722047326
C  C314  1  0.47390000  0.29638000  0.20619000  0.13 0.0104828381
C  C315  1  0.45018000  0.29873000  0.25497000  0.13 -0.00142759
C  C316  1  0.78122000  0.30709000  0.21574000  0.13 0.0428881685
C  C317  1  0.43329000  0.19783000  0.80778000  0.13 0.085870637
C  C318  1  0.32561000  0.91180000  0.06279000  0.13 0.0490796599
C  C319  1  0.38802000  0.12084000  0.64780000  0.13 0.066084197
C  C320  1  0.56390000  0.18658000  0.63535000  0.13 -0.0330385588
C  C321  1  0.51497000  0.24435000  0.85302000  0.13 0.0490796599
C  C322  1  0.68912000  0.16440000  0.90896000  0.13 0.0978594145
C  C323  1  0.73074000  0.74288000  0.72872000  0.13 0.0104828381
C  C324  1  0.97491000  0.29554000  0.89251000  0.13 -0.0196780506
C  C325  1  0.14652000  0.22884000  0.10387000  0.13 -0.0196780506
C  C326  1  0.06509000  0.21242000  0.09373000  0.13 0.1364080096
C  C327  1  0.01362000  0.33930000  0.15569000  0.13 -0.0196780506
C  C328  1  0.98902000  0.40417000  0.13190000  0.13 -0.0722047326
C  C329  1  0.97390000  0.79638000  0.70619000  0.13 0.0104828381
C  C330  1  0.95018000  0.79873000  0.75497000  0.13 -0.00142759
C  C331  1  0.71878000  0.19291000  0.71574000  0.13 0.0428881685
C  C332  1  0.06671000  0.30217000  0.30778000  0.13 0.085870637
C  C333  1  0.17439000  0.58820000  0.56279000  0.13 0.0490796599
C  C334  1  0.11198000  0.37916000  0.14780000  0.13 0.066084197
C  C335  1  0.93610000  0.31342000  0.13535000  0.13 -0.0330385588
C  C336  1  0.98503000  0.25565000  0.35302000  0.13 0.0490796599
C  C337  1  0.81088000  0.33560000  0.40896000  0.13 0.0978594145
C  C338  1  0.76926000  0.75712000  0.22872000  0.13 0.0104828381
C  C339  1  0.52509000  0.20446000  0.39251000  0.13 -0.0196780506
C  C340  1  0.35348000  0.27116000  0.60387000  0.13 -0.0196780506
C  C341  1  0.43491000  0.28758000  0.59373000  0.13 0.1364080096
C  C342  1  0.48638000  0.16070000  0.65569000  0.13 -0.0196780506
C  C343  1  0.51098000  0.09583000  0.63190000  0.13 -0.0722047326
C  C344  1  0.52610000  0.70362000  0.20619000  0.13 0.0104828381
C  C345  1  0.54982000  0.70127000  0.25497000  0.13 -0.00142759
C  C346  1  0.21878000  0.69291000  0.21574000  0.13 0.0428881685
C  C347  1  0.56671000  0.80217000  0.80778000  0.13 0.085870637
C  C348  1  0.67439000  0.08820000  0.06279000  0.13 0.0490796599
C  C349  1  0.61198000  0.87916000  0.64780000  0.13 0.066084197
C  C350  1  0.43610000  0.81342000  0.63535000  0.13 -0.0330385588
C  C351  1  0.48503000  0.75565000  0.85302000  0.13 0.0490796599
C  C352  1  0.31088000  0.83560000  0.90896000  0.13 0.0978594145
C  C353  1  0.26926000  0.25712000  0.72872000  0.13 0.0104828381
C  C354  1  0.02509000  0.70446000  0.89251000  0.13 -0.0196780506
C  C355  1  0.85348000  0.77116000  0.10387000  0.13 -0.0196780506
C  C356  1  0.93491000  0.78758000  0.09373000  0.13 0.1338685718
C  C357  1  0.98638000  0.66070000  0.15569000  0.13 -0.0196780506
C  C358  1  0.01098000  0.59583000  0.13190000  0.13 -0.0722047326
C  C359  1  0.02610000  0.20362000  0.70619000  0.13 0.0104828381
C  C360  1  0.04982000  0.20127000  0.75497000  0.13 -0.00142759
C  C361  1  0.19291000  0.71878000  0.28426000  0.13 0.0428881685
C  C362  1  0.30217000  0.06671000  0.69222000  0.13 0.085870637
C  C363  1  0.58820000  0.17439000  0.43721000  0.13 0.0490796599
C  C364  1  0.37916000  0.11198000  0.85220000  0.13 0.066084197
C  C365  1  0.31342000  0.93610000  0.86465000  0.13 -0.0330385588
C  C366  1  0.25565000  0.98503000  0.64698000  0.13 0.0490796599
C  C367  1  0.33560000  0.81088000  0.59104000  0.13 0.0978594145
C  C368  1  0.75712000  0.76926000  0.77128000  0.13 0.0104828381
C  C369  1  0.20446000  0.52509000  0.60749000  0.13 -0.0196780506
C  C370  1  0.27116000  0.35348000  0.39613000  0.13 -0.0196780506
C  C371  1  0.28758000  0.43491000  0.40627000  0.13 0.1364080096
C  C372  1  0.16070000  0.48638000  0.34431000  0.13 -0.0196780506
C  C373  1  0.09583000  0.51098000  0.36810000  0.13 -0.0722047326
C  C374  1  0.70362000  0.52610000  0.79381000  0.13 0.0104828381
C  C375  1  0.70127000  0.54982000  0.74503000  0.13 -0.00142759
C  C376  1  0.69291000  0.21878000  0.78426000  0.13 0.0428881685
C  C377  1  0.80217000  0.56671000  0.19222000  0.13 0.085870637
C  C378  1  0.08820000  0.67439000  0.93721000  0.13 0.0428881685
C  C379  1  0.87916000  0.61198000  0.35220000  0.13 0.066084197
C  C380  1  0.81342000  0.43610000  0.36465000  0.13 -0.0330385588
C  C381  1  0.75565000  0.48503000  0.14698000  0.13 0.0490796599
C  C382  1  0.83560000  0.31088000  0.09104000  0.13 0.0978594145
C  C383  1  0.25712000  0.26926000  0.27128000  0.13 0.0104828381
C  C384  1  0.70446000  0.02509000  0.10749000  0.13 -0.0196780506
C  C385  1  0.77116000  0.85348000  0.89613000  0.13 -0.0196780506
C  C386  1  0.78758000  0.93491000  0.90627000  0.13 0.1364080096
C  C387  1  0.66070000  0.98638000  0.84431000  0.13 -0.0196780506
C  C388  1  0.59583000  0.01098000  0.86810000  0.13 -0.0722047326
C  C389  1  0.20362000  0.02610000  0.29381000  0.13 0.0104828381
C  C390  1  0.20127000  0.04982000  0.24503000  0.13 -0.00142759
C  C391  1  0.80709000  0.28122000  0.28426000  0.13 0.0428881685
C  C392  1  0.69783000  0.93329000  0.69222000  0.13 0.085870637
C  C393  1  0.41180000  0.82561000  0.43721000  0.13 0.0490796599
C  C394  1  0.62084000  0.88802000  0.85220000  0.13 0.066084197
C  C395  1  0.68658000  0.06390000  0.86465000  0.13 -0.0330385588
C  C396  1  0.74435000  0.01497000  0.64698000  0.13 0.0490796599
C  C397  1  0.66440000  0.18912000  0.59104000  0.13 0.0978594145
C  C398  1  0.24288000  0.23074000  0.77128000  0.13 0.0104828381
C  C399  1  0.79554000  0.47491000  0.60749000  0.13 -0.0196780506
C  C400  1  0.72884000  0.64652000  0.39613000  0.13 -0.0196780506
C  C401  1  0.71242000  0.56509000  0.40627000  0.13 0.1364080096
C  C402  1  0.83930000  0.51362000  0.34431000  0.13 -0.0196780506
C  C403  1  0.90417000  0.48902000  0.36810000  0.13 -0.0722047326
C  C404  1  0.29638000  0.47390000  0.79381000  0.13 0.0104828381
C  C405  1  0.29873000  0.45018000  0.74503000  0.13 -0.00142759
C  C406  1  0.30709000  0.78122000  0.78426000  0.13 0.0428881685
C  C407  1  0.19783000  0.43329000  0.19222000  0.13 0.085870637
C  C408  1  0.91180000  0.32561000  0.93721000  0.13 0.0428881685
C  C409  1  0.12084000  0.38802000  0.35220000  0.13 0.066084197
C  C410  1  0.18658000  0.56390000  0.36465000  0.13 -0.0330385588
C  C411  1  0.24435000  0.51497000  0.14698000  0.13 0.0490796599
C  C412  1  0.16440000  0.68912000  0.09104000  0.13 0.0978594145
C  C413  1  0.74288000  0.73074000  0.27128000  0.13 0.0104828381
C  C414  1  0.29554000  0.97491000  0.10749000  0.13 -0.0196780506
C  C415  1  0.22884000  0.14652000  0.89613000  0.13 -0.0196780506
C  C416  1  0.21242000  0.06509000  0.90627000  0.13 0.1364080096
C  C417  1  0.33930000  0.01362000  0.84431000  0.13 -0.0196780506
C  C418  1  0.40417000  0.98902000  0.86810000  0.13 -0.0722047326
C  C419  1  0.79638000  0.97390000  0.29381000  0.13 0.0104828381
C  C420  1  0.79873000  0.95018000  0.24503000  0.13 -0.00142759
C  C421  1  0.71878000  0.80709000  0.28426000  0.13 0.0428881685
C  C422  1  0.06671000  0.69783000  0.69222000  0.13 0.085870637
C  C423  1  0.17439000  0.41180000  0.43721000  0.13 0.0490796599
C  C424  1  0.11198000  0.62084000  0.85220000  0.13 0.066084197
C  C425  1  0.93610000  0.68658000  0.86465000  0.13 -0.0330385588
C  C426  1  0.98503000  0.74435000  0.64698000  0.13 0.0490796599
C  C427  1  0.81088000  0.66440000  0.59104000  0.13 0.0978594145
C  C428  1  0.76926000  0.24288000  0.77128000  0.13 0.0104828381
C  C429  1  0.52509000  0.79554000  0.60749000  0.13 -0.0196780506
C  C430  1  0.35348000  0.72884000  0.39613000  0.13 -0.0196780506
C  C431  1  0.43491000  0.71242000  0.40627000  0.13 0.1338685718
C  C432  1  0.48638000  0.83930000  0.34431000  0.13 -0.0196780506
C  C433  1  0.51098000  0.90417000  0.36810000  0.13 -0.0722047326
C  C434  1  0.52610000  0.29638000  0.79381000  0.13 0.0104828381
C  C435  1  0.54982000  0.29873000  0.74503000  0.13 -0.00142759
C  C436  1  0.21878000  0.30709000  0.78426000  0.13 0.0428881685
C  C437  1  0.56671000  0.19783000  0.19222000  0.13 0.085870637
C  C438  1  0.67439000  0.91180000  0.93721000  0.13 0.0428881685
C  C439  1  0.61198000  0.12084000  0.35220000  0.13 0.066084197
C  C440  1  0.43610000  0.18658000  0.36465000  0.13 -0.0330385588
C  C441  1  0.48503000  0.24435000  0.14698000  0.13 0.0490796599
C  C442  1  0.31088000  0.16440000  0.09104000  0.13 0.0978594145
C  C443  1  0.26926000  0.74288000  0.27128000  0.13 0.0104828381
C  C444  1  0.02509000  0.29554000  0.10749000  0.13 -0.0196780506
C  C445  1  0.85348000  0.22884000  0.89613000  0.13 -0.0196780506
C  C446  1  0.93491000  0.21242000  0.90627000  0.13 0.1364080096
C  C447  1  0.98638000  0.33930000  0.84431000  0.13 -0.0196780506
C  C448  1  0.01098000  0.40417000  0.86810000  0.13 -0.0722047326
C  C449  1  0.02610000  0.79638000  0.29381000  0.13 0.0104828381
C  C450  1  0.04982000  0.79873000  0.24503000  0.13 -0.00142759
C  C451  1  0.28122000  0.19291000  0.28426000  0.13 0.0428881685
C  C452  1  0.93329000  0.30217000  0.69222000  0.13 0.085870637
C  C453  1  0.82561000  0.58820000  0.43721000  0.13 0.0490796599
C  C454  1  0.88802000  0.37916000  0.85220000  0.13 0.066084197
C  C455  1  0.06390000  0.31342000  0.86465000  0.13 -0.0330385588
C  C456  1  0.01497000  0.25565000  0.64698000  0.13 0.0490796599
C  C457  1  0.18912000  0.33560000  0.59104000  0.13 0.0978594145
C  C458  1  0.23074000  0.75712000  0.77128000  0.13 0.0104828381
C  C459  1  0.47491000  0.20446000  0.60749000  0.13 -0.0196780506
C  C460  1  0.64652000  0.27116000  0.39613000  0.13 -0.0196780506
C  C461  1  0.56509000  0.28758000  0.40627000  0.13 0.1364080096
C  C462  1  0.51362000  0.16070000  0.34431000  0.13 -0.0196780506
C  C463  1  0.48902000  0.09583000  0.36810000  0.13 -0.0722047326
C  C464  1  0.47390000  0.70362000  0.79381000  0.13 0.0104828381
C  C465  1  0.45018000  0.70127000  0.74503000  0.13 -0.00142759
C  C466  1  0.78122000  0.69291000  0.78426000  0.13 0.0428881685
C  C467  1  0.43329000  0.80217000  0.19222000  0.13 0.085870637
C  C468  1  0.32561000  0.08820000  0.93721000  0.13 0.0428881685
C  C469  1  0.38802000  0.87916000  0.35220000  0.13 0.066084197
C  C470  1  0.56390000  0.81342000  0.36465000  0.13 -0.0330385588
C  C471  1  0.51497000  0.75565000  0.14698000  0.13 0.0490796599
C  C472  1  0.68912000  0.83560000  0.09104000  0.13 0.0978594145
C  C473  1  0.73074000  0.25712000  0.27128000  0.13 0.0104828381
C  C474  1  0.97491000  0.70446000  0.10749000  0.13 -0.0196780506
C  C475  1  0.14652000  0.77116000  0.89613000  0.13 -0.0196780506
C  C476  1  0.06509000  0.78758000  0.90627000  0.13 0.1364080096
C  C477  1  0.01362000  0.66070000  0.84431000  0.13 -0.0196780506
C  C478  1  0.98902000  0.59583000  0.86810000  0.13 -0.0722047326
C  C479  1  0.97390000  0.20362000  0.29381000  0.13 0.0104828381
C  C480  1  0.95018000  0.20127000  0.24503000  0.13 -0.00142759
C  C497  1  0.35070000  0.00000000  0.50000000  0.25 0.479557315
C  C498  1  0.42650000  0.00000000  0.50000000  0.25 -0.1743807682
C  C499  1  0.85070000  0.50000000  0.00000000  0.25 0.479557315
C  C500  1  0.92650000  0.50000000  0.00000000  0.25 -0.1743807682
C  C501  1  0.64930000  0.00000000  0.50000000  0.25 0.479557315
C  C502  1  0.57350000  0.00000000  0.50000000  0.25 -0.1743807682
C  C503  1  0.14930000  0.50000000  0.00000000  0.25 0.479557315
C  C504  1  0.07350000  0.50000000  0.00000000  0.25 -0.1743807682
C  C505  1  0.00000000  0.35070000  0.50000000  0.25 0.479557315
C  C506  1  0.00000000  0.42650000  0.50000000  0.25 -0.1743807682
C  C507  1  0.50000000  0.85070000  0.00000000  0.25 0.479557315
C  C508  1  0.50000000  0.92650000  0.00000000  0.25 -0.1743807682
C  C509  1  0.00000000  0.64930000  0.50000000  0.25 0.479557315
C  C510  1  0.00000000  0.57350000  0.50000000  0.25 -0.1743807682
C  C511  1  0.50000000  0.14930000  0.00000000  0.25 0.479557315
C  C512  1  0.50000000  0.07350000  0.00000000  0.25 -0.1743807682
C  C481  1  0.46333000  0.06514000  0.50000000  0.5 0.1364080096
C  C482  1  0.96333000  0.56514000  0.00000000  0.5 0.1364080096
C  C483  1  0.53667000  0.93486000  0.50000000  0.5 0.1364080096
C  C484  1  0.03667000  0.43486000  0.00000000  0.5 0.1364080096
C  C485  1  0.93486000  0.46333000  0.50000000  0.5 0.1364080096
C  C486  1  0.43486000  0.96333000  0.00000000  0.5 0.1364080096
C  C487  1  0.06514000  0.53667000  0.50000000  0.5 0.1364080096
C  C488  1  0.56514000  0.03667000  0.00000000  0.5 0.1364080096
C  C489  1  0.53667000  0.06514000  0.50000000  0.5 0.1364080096
C  C490  1  0.03667000  0.56514000  0.00000000  0.5 0.1364080096
C  C491  1  0.46333000  0.93486000  0.50000000  0.5 0.1364080096
C  C492  1  0.96333000  0.43486000  0.00000000  0.5 0.1364080096
C  C493  1  0.06514000  0.46333000  0.50000000  0.5 0.1364080096
C  C494  1  0.56514000  0.96333000  0.00000000  0.5 0.1364080096
C  C495  1  0.93486000  0.53667000  0.50000000  0.5 0.1364080096
C  C496  1  0.43486000  0.03667000  0.00000000  0.5 0.1364080096
C  C513  1  0.19400000  0.19400000  0.40230000  0.5 0.4716265762
C  C514  1  0.22250000  0.22250000  0.32090000  0.5 -0.0196780506
C  C515  1  0.69400000  0.69400000  0.90230000  0.5 0.4716265762
C  C516  1  0.72250000  0.72250000  0.82090000  0.5 -0.0196780506
C  C517  1  0.80600000  0.80600000  0.40230000  0.5 0.4716265762
C  C518  1  0.77750000  0.77750000  0.32090000  0.5 -0.0196780506
C  C519  1  0.30600000  0.30600000  0.90230000  0.5 0.4716265762
C  C520  1  0.27750000  0.27750000  0.82090000  0.5 -0.0196780506
C  C521  1  0.80600000  0.19400000  0.40230000  0.5 0.4716265762
C  C522  1  0.77750000  0.22250000  0.32090000  0.5 -0.0196780506
C  C523  1  0.30600000  0.69400000  0.90230000  0.5 0.4716265762
C  C524  1  0.27750000  0.72250000  0.82090000  0.5 -0.0196780506
C  C525  1  0.19400000  0.80600000  0.40230000  0.5 0.4716265762
C  C526  1  0.22250000  0.77750000  0.32090000  0.5 -0.0196780506
C  C527  1  0.69400000  0.30600000  0.90230000  0.5 0.4716265762
C  C528  1  0.72250000  0.27750000  0.82090000  0.5 -0.0196780506
C  C529  1  0.80600000  0.19400000  0.59770000  0.5 0.4716265762
C  C530  1  0.77750000  0.22250000  0.67910000  0.5 -0.0196780506
C  C531  1  0.30600000  0.69400000  0.09770000  0.5 0.4716265762
C  C532  1  0.27750000  0.72250000  0.17910000  0.5 -0.0196780506
C  C533  1  0.19400000  0.80600000  0.59770000  0.5 0.4716265762
C  C534  1  0.22250000  0.77750000  0.67910000  0.5 -0.0196780506
C  C535  1  0.69400000  0.30600000  0.09770000  0.5 0.4716265762
C  C536  1  0.72250000  0.27750000  0.17910000  0.5 -0.0196780506
C  C537  1  0.19400000  0.19400000  0.59770000  0.5 0.4716265762
C  C538  1  0.22250000  0.22250000  0.67910000  0.5 -0.0196780506
C  C539  1  0.69400000  0.69400000  0.09770000  0.5 0.4716265762
C  C540  1  0.72250000  0.72250000  0.17910000  0.5 -0.0196780506
C  C541  1  0.80600000  0.80600000  0.59770000  0.5 0.4716265762
C  C542  1  0.77750000  0.77750000  0.67910000  0.5 -0.0196780506
C  C543  1  0.30600000  0.30600000  0.09770000  0.5 0.4716265762
C  C544  1  0.27750000  0.27750000  0.17910000  0.5 -0.0196780506
N  N33  1  0.42348000  0.12294000  0.50000000  0.13 -0.1605958415
N  N34  1  0.92348000  0.62294000  0.00000000  0.13 -0.1605958415
N  N35  1  0.57652000  0.87706000  0.50000000  0.13 -0.1605958415
N  N36  1  0.07652000  0.37706000  0.00000000  0.13 -0.1605958415
N  N37  1  0.87706000  0.42348000  0.50000000  0.13 -0.1605958415
N  N38  1  0.37706000  0.92348000  0.00000000  0.13 -0.1605958415
N  N39  1  0.12294000  0.57652000  0.50000000  0.13 -0.1605958415
N  N40  1  0.62294000  0.07652000  0.00000000  0.13 -0.1605958415
N  N41  1  0.57652000  0.12294000  0.50000000  0.13 -0.1605958415
N  N42  1  0.07652000  0.62294000  0.00000000  0.13 -0.1605958415
N  N43  1  0.42348000  0.87706000  0.50000000  0.13 -0.1605958415
N  N44  1  0.92348000  0.37706000  0.00000000  0.13 -0.1605958415
N  N45  1  0.12294000  0.42348000  0.50000000  0.13 -0.1605958415
N  N46  1  0.62294000  0.92348000  0.00000000  0.13 -0.1605958415
N  N47  1  0.87706000  0.57652000  0.50000000  0.13 -0.1605958415
N  N48  1  0.37706000  0.07652000  0.00000000  0.13 -0.1605958415
N  N1  1  0.13742000  0.31587000  0.31910000  0.25 -0.1743807682
N  N2  1  0.63742000  0.81587000  0.81910000  0.25 -0.1754378581
N  N3  1  0.86258000  0.68413000  0.31910000  0.25 -0.1743807682
N  N4  1  0.36258000  0.18413000  0.81910000  0.25 -0.1743807682
N  N5  1  0.68413000  0.13742000  0.31910000  0.25 -0.1743807682
N  N6  1  0.18413000  0.63742000  0.81910000  0.25 -0.1754378581
N  N7  1  0.31587000  0.86258000  0.31910000  0.25 -0.1743807682
N  N8  1  0.81587000  0.36258000  0.81910000  0.25 -0.1743807682
N  N9  1  0.86258000  0.31587000  0.68090000  0.25 -0.1743807682
N  N10  1  0.36258000  0.81587000  0.18090000  0.25 -0.1743807682
N  N11  1  0.13742000  0.68413000  0.68090000  0.25 -0.1743807682
N  N12  1  0.63742000  0.18413000  0.18090000  0.25 -0.1743807682
N  N13  1  0.31587000  0.13742000  0.68090000  0.25 -0.1743807682
N  N14  1  0.81587000  0.63742000  0.18090000  0.25 -0.1743807682
N  N15  1  0.68413000  0.86258000  0.68090000  0.25 -0.1743807682
N  N16  1  0.18413000  0.36258000  0.18090000  0.25 -0.1743807682
N  N17  1  0.86258000  0.68413000  0.68090000  0.25 -0.1743807682
N  N18  1  0.36258000  0.18413000  0.18090000  0.25 -0.1743807682
N  N19  1  0.13742000  0.31587000  0.68090000  0.25 -0.1743807682
N  N20  1  0.63742000  0.81587000  0.18090000  0.25 -0.1743807682
N  N21  1  0.31587000  0.86258000  0.68090000  0.25 -0.1743807682
N  N22  1  0.81587000  0.36258000  0.18090000  0.25 -0.1743807682
N  N23  1  0.68413000  0.13742000  0.68090000  0.25 -0.1743807682
N  N24  1  0.18413000  0.63742000  0.18090000  0.25 -0.1743807682
N  N25  1  0.13742000  0.68413000  0.31910000  0.25 -0.1743807682
N  N26  1  0.63742000  0.18413000  0.81910000  0.25 -0.1743807682
N  N27  1  0.86258000  0.31587000  0.31910000  0.25 -0.1743807682
N  N28  1  0.36258000  0.81587000  0.81910000  0.25 -0.1743807682
N  N29  1  0.68413000  0.86258000  0.31910000  0.25 -0.1743807682
N  N30  1  0.18413000  0.36258000  0.81910000  0.25 -0.1743807682
N  N31  1  0.31587000  0.13742000  0.31910000  0.25 -0.1743807682
N  N32  1  0.81587000  0.63742000  0.81910000  0.25 -0.1743807682
O  O1  1  0.22590000  0.14420000  0.42680000  1.0 -0.5123054532
O  O2  1  0.72590000  0.64420000  0.92680000  1.0 -0.5123054532
O  O3  1  0.77410000  0.85580000  0.42680000  1.0 -0.5123054532
O  O4  1  0.27410000  0.35580000  0.92680000  1.0 -0.5123054532
O  O5  1  0.85580000  0.22590000  0.42680000  1.0 -0.5123054532
O  O6  1  0.35580000  0.72590000  0.92680000  1.0 -0.5123054532
O  O7  1  0.14420000  0.77410000  0.42680000  1.0 -0.5123054532
O  O8  1  0.64420000  0.27410000  0.92680000  1.0 -0.5123054532
O  O9  1  0.77410000  0.14420000  0.57320000  1.0 -0.5123054532
O  O10  1  0.27410000  0.64420000  0.07320000  1.0 -0.5123054532
O  O11  1  0.22590000  0.85580000  0.57320000  1.0 -0.5123054532
O  O12  1  0.72590000  0.35580000  0.07320000  1.0 -0.5123054532
O  O13  1  0.14420000  0.22590000  0.57320000  1.0 -0.5123054532
O  O14  1  0.64420000  0.72590000  0.07320000  1.0 -0.5123054532
O  O15  1  0.85580000  0.77410000  0.57320000  1.0 -0.5123054532
O  O16  1  0.35580000  0.27410000  0.07320000  1.0 -0.5123054532
O  O17  1  0.77410000  0.85580000  0.57320000  1.0 -0.5123054532
O  O18  1  0.27410000  0.35580000  0.07320000  1.0 -0.5123054532
O  O19  1  0.22590000  0.14420000  0.57320000  1.0 -0.5123054532
O  O20  1  0.72590000  0.64420000  0.07320000  1.0 -0.5123054532
O  O21  1  0.14420000  0.77410000  0.57320000  1.0 -0.5123054532
O  O22  1  0.64420000  0.27410000  0.07320000  1.0 -0.5123054532
O  O23  1  0.85580000  0.22590000  0.57320000  1.0 -0.5123054532
O  O24  1  0.35580000  0.72590000  0.07320000  1.0 -0.5123054532
O  O25  1  0.22590000  0.85580000  0.42680000  1.0 -0.5123054532
O  O26  1  0.72590000  0.35580000  0.92680000  1.0 -0.5123054532
O  O27  1  0.77410000  0.14420000  0.42680000  1.0 -0.5123054532
O  O28  1  0.27410000  0.64420000  0.92680000  1.0 -0.5123054532
O  O29  1  0.85580000  0.77410000  0.42680000  1.0 -0.5123054532
O  O30  1  0.35580000  0.27410000  0.92680000  1.0 -0.5123054532
O  O31  1  0.14420000  0.22590000  0.42680000  1.0 -0.5123054532
O  O32  1  0.64420000  0.72590000  0.92680000  1.0 -0.5123054532
O  O65  1  0.10740000  0.10740000  0.50000000  0.25 -0.921376949
O  O66  1  0.60740000  0.60740000  0.00000000  0.25 -0.9250117892
O  O67  1  0.89260000  0.89260000  0.50000000  0.25 -0.921376949
O  O68  1  0.39260000  0.39260000  0.00000000  0.25 -0.9250117892
O  O69  1  0.89260000  0.10740000  0.50000000  0.25 -0.921376949
O  O70  1  0.39260000  0.60740000  0.00000000  0.25 -0.9250117892
O  O71  1  0.10740000  0.89260000  0.50000000  0.25 -0.921376949
O  O72  1  0.60740000  0.39260000  0.00000000  0.25 -0.9250117892
O  O33  1  0.31110000  0.05800000  0.50000000  0.5 -0.5980680974
O  O34  1  0.81110000  0.55800000  0.00000000  0.5 -0.5980680974
O  O35  1  0.68890000  0.94200000  0.50000000  0.5 -0.5980680974
O  O36  1  0.18890000  0.44200000  0.00000000  0.5 -0.5980680974
O  O37  1  0.94200000  0.31110000  0.50000000  0.5 -0.5980680974
O  O38  1  0.44200000  0.81110000  0.00000000  0.5 -0.5980680974
O  O39  1  0.05800000  0.68890000  0.50000000  0.5 -0.5980680974
O  O40  1  0.55800000  0.18890000  0.00000000  0.5 -0.5980680974
O  O41  1  0.68890000  0.05800000  0.50000000  0.5 -0.5980680974
O  O42  1  0.18890000  0.55800000  0.00000000  0.5 -0.5980680974
O  O43  1  0.31110000  0.94200000  0.50000000  0.5 -0.5980680974
O  O44  1  0.81110000  0.44200000  0.00000000  0.5 -0.5980680974
O  O45  1  0.05800000  0.31110000  0.50000000  0.5 -0.5980680974
O  O46  1  0.55800000  0.81110000  0.00000000  0.5 -0.5980680974
O  O47  1  0.94200000  0.68890000  0.50000000  0.5 -0.5980680974
O  O48  1  0.44200000  0.18890000  0.00000000  0.5 -0.5980680974
O  O49  1  0.18190000  0.00000000  0.42650000  0.5 -0.7463398928
O  O50  1  0.68190000  0.50000000  0.92650000  0.5 -0.7463398928
O  O51  1  0.81810000  0.00000000  0.42650000  0.5 -0.7463398928
O  O52  1  0.31810000  0.50000000  0.92650000  0.5 -0.7463398928
O  O53  1  0.00000000  0.18190000  0.42650000  0.5 -0.7463398928
O  O54  1  0.50000000  0.68190000  0.92650000  0.5 -0.7463398928
O  O55  1  0.00000000  0.81810000  0.42650000  0.5 -0.7463398928
O  O56  1  0.50000000  0.31810000  0.92650000  0.5 -0.7463398928
O  O57  1  0.81810000  0.00000000  0.57350000  0.5 -0.7463398928
O  O58  1  0.31810000  0.50000000  0.07350000  0.5 -0.7463398928
O  O59  1  0.18190000  0.00000000  0.57350000  0.5 -0.7463398928
O  O60  1  0.68190000  0.50000000  0.07350000  0.5 -0.7463398928
O  O61  1  0.00000000  0.18190000  0.57350000  0.5 -0.7463398928
O  O62  1  0.50000000  0.68190000  0.07350000  0.5 -0.7463398928
O  O63  1  0.00000000  0.81810000  0.57350000  0.5 -0.7463398928
O  O64  1  0.50000000  0.31810000  0.07350000  0.5 -0.7463398928
