# DDEC6 charges by PACMAN v1.1 (https://github.com/mtap-research/PACMAN-charge/)
data_oc7b00169_si_002_7_FSR_pacman
_symmetry_space_group_name_H-M   'P 1'
_cell_length_a   19.07000000
_cell_length_b   19.07000000
_cell_length_c   36.40900000
_cell_angle_alpha   90.00000000
_cell_angle_beta   90.00000000
_cell_angle_gamma   90.00000000
_symmetry_Int_Tables_number   1
_chemical_formula_structural   AlH9C14O5
_chemical_formula_sum   'Al16 H144 C224 O80'
_cell_volume   13240.67534410
_cell_formula_units_Z   16
loop_
 _symmetry_equiv_pos_site_id
 _symmetry_equiv_pos_as_xyz
  1  'x, y, z'
loop_
 _atom_site_type_symbol
 _atom_site_label
 _atom_site_symmetry_multiplicity
 _atom_site_fract_x
 _atom_site_fract_y
 _atom_site_fract_z
 _atom_site_occupancy
 _atom_site_charge
Al  Al1  1  0.66529000  0.33471000  0.50000000  1.0 1.622709741
Al  Al2  1  0.16529000  0.16529000  0.00000000  1.0 1.622709741
Al  Al3  1  0.33471000  0.66529000  0.50000000  1.0 1.622709741
Al  Al4  1  0.83471000  0.83471000  0.00000000  1.0 1.622709741
Al  Al5  1  0.61778000  0.38823000  0.41744000  1.0 1.6501959948
Al  Al6  1  0.11177000  0.11778000  0.91744000  1.0 1.6501959948
Al  Al7  1  0.38222000  0.61177000  0.41744000  1.0 1.6501959948
Al  Al8  1  0.88823000  0.88222000  0.91744000  1.0 1.6501959948
Al  Al9  1  0.11778000  0.11177000  0.08256000  1.0 1.6501959948
Al  Al10  1  0.88222000  0.88823000  0.08256000  1.0 1.6501959948
Al  Al11  1  0.38823000  0.61778000  0.58256000  1.0 1.6501959948
Al  Al12  1  0.61177000  0.38222000  0.58256000  1.0 1.6501959948
Al  Al13  1  0.50000000  0.50000000  0.38505000  1.0 1.6501959948
Al  Al14  1  0.00000000  0.00000000  0.88505000  1.0 1.6501959948
Al  Al15  1  0.00000000  0.00000000  0.11495000  1.0 1.6501959948
Al  Al16  1  0.50000000  0.50000000  0.61495000  1.0 1.6565236348
H  H1  1  0.57600000  0.50060000  0.43870000  1.0 0.4262960154
H  H2  1  0.99940000  0.07600000  0.93870000  1.0 0.4262960154
H  H3  1  0.42400000  0.49940000  0.43870000  1.0 0.4262960154
H  H4  1  0.00060000  0.92400000  0.93870000  1.0 0.4262960154
H  H5  1  0.07600000  0.99940000  0.06130000  1.0 0.4262960154
H  H6  1  0.92400000  0.00060000  0.06130000  1.0 0.4262960154
H  H7  1  0.50060000  0.57600000  0.56130000  1.0 0.4262960154
H  H8  1  0.49940000  0.42400000  0.56130000  1.0 0.4262960154
H  H9  1  0.55450000  0.36640000  0.47350000  1.0 0.4237876731
H  H10  1  0.13360000  0.05450000  0.97350000  1.0 0.4237876731
H  H11  1  0.44550000  0.63360000  0.47350000  1.0 0.4237876731
H  H12  1  0.86640000  0.94550000  0.97350000  1.0 0.4237876731
H  H13  1  0.05450000  0.13360000  0.02650000  1.0 0.4237876731
H  H14  1  0.94550000  0.86640000  0.02650000  1.0 0.4237876731
H  H15  1  0.36640000  0.55450000  0.52650000  1.0 0.4237876731
H  H16  1  0.63360000  0.44550000  0.52650000  1.0 0.4237876731
H  H17  1  0.76520000  0.62910000  0.16710000  1.0 0.119583233
H  H18  1  0.87090000  0.26520000  0.66710000  1.0 0.119583233
H  H19  1  0.23480000  0.37090000  0.16710000  1.0 0.119583233
H  H20  1  0.12910000  0.73480000  0.66710000  1.0 0.119583233
H  H21  1  0.26520000  0.87090000  0.33290000  1.0 0.119583233
H  H22  1  0.73480000  0.12910000  0.33290000  1.0 0.119583233
H  H23  1  0.62910000  0.76520000  0.83290000  1.0 0.119583233
H  H24  1  0.37090000  0.23480000  0.83290000  1.0 0.119583233
H  H25  1  0.77290000  0.63730000  0.03870000  1.0 0.131695469
H  H26  1  0.86270000  0.27290000  0.53870000  1.0 0.131695469
H  H27  1  0.22710000  0.36270000  0.03870000  1.0 0.131695469
H  H28  1  0.13730000  0.72710000  0.53870000  1.0 0.131695469
H  H29  1  0.27290000  0.86270000  0.46130000  1.0 0.131695469
H  H30  1  0.72710000  0.13730000  0.46130000  1.0 0.131695469
H  H31  1  0.63730000  0.77290000  0.96130000  1.0 0.131695469
H  H32  1  0.36270000  0.22710000  0.96130000  1.0 0.131695469
H  H33  1  0.76480000  0.73530000  0.13500000  1.0 0.1364092949
H  H34  1  0.76470000  0.26480000  0.63500000  1.0 0.1364092949
H  H35  1  0.23520000  0.26470000  0.13500000  1.0 0.1364092949
H  H36  1  0.23530000  0.73520000  0.63500000  1.0 0.1364092949
H  H37  1  0.26480000  0.76470000  0.36500000  1.0 0.1364092949
H  H38  1  0.73520000  0.23530000  0.36500000  1.0 0.1364092949
H  H39  1  0.73530000  0.76480000  0.86500000  1.0 0.1364092949
H  H40  1  0.26470000  0.23520000  0.86500000  1.0 0.1364092949
H  H41  1  0.77200000  0.52070000  0.07000000  1.0 0.119583233
H  H42  1  0.97930000  0.27200000  0.57000000  1.0 0.119583233
H  H43  1  0.22800000  0.47930000  0.07000000  1.0 0.119583233
H  H44  1  0.02070000  0.72800000  0.57000000  1.0 0.119583233
H  H45  1  0.27200000  0.97930000  0.43000000  1.0 0.119583233
H  H46  1  0.72800000  0.02070000  0.43000000  1.0 0.119583233
H  H47  1  0.52070000  0.77200000  0.93000000  1.0 0.119583233
H  H48  1  0.47930000  0.22800000  0.93000000  1.0 0.119583233
H  H49  1  0.56330000  0.49440000  0.27980000  1.0 0.119583233
H  H50  1  0.00560000  0.06330000  0.77980000  1.0 0.119583233
H  H51  1  0.43670000  0.50560000  0.27980000  1.0 0.119583233
H  H52  1  0.99440000  0.93670000  0.77980000  1.0 0.119583233
H  H53  1  0.06330000  0.00560000  0.22020000  1.0 0.119583233
H  H54  1  0.93670000  0.99440000  0.22020000  1.0 0.119583233
H  H55  1  0.49440000  0.56330000  0.72020000  1.0 0.119583233
H  H56  1  0.50560000  0.43670000  0.72020000  1.0 0.119583233
H  H57  1  0.85550000  0.15250000  0.14420000  1.0 0.1364092949
H  H58  1  0.34750000  0.35550000  0.64420000  1.0 0.1364092949
H  H59  1  0.14450000  0.84750000  0.14420000  1.0 0.1364092949
H  H60  1  0.65250000  0.64450000  0.64420000  1.0 0.1364092949
H  H61  1  0.35550000  0.34750000  0.35580000  1.0 0.1364092949
H  H62  1  0.64450000  0.65250000  0.35580000  1.0 0.1364092949
H  H63  1  0.15250000  0.85550000  0.85580000  1.0 0.1364092949
H  H64  1  0.84750000  0.14450000  0.85580000  1.0 0.1364092949
H  H65  1  0.98580000  0.28600000  0.09340000  1.0 0.119583233
H  H66  1  0.21400000  0.48580000  0.59340000  1.0 0.119583233
H  H67  1  0.01420000  0.71400000  0.09340000  1.0 0.119583233
H  H68  1  0.78600000  0.51420000  0.59340000  1.0 0.119583233
H  H69  1  0.48580000  0.21400000  0.40660000  1.0 0.119583233
H  H70  1  0.51420000  0.78600000  0.40660000  1.0 0.119583233
H  H71  1  0.28600000  0.98580000  0.90660000  1.0 0.119583233
H  H72  1  0.71400000  0.01420000  0.90660000  1.0 0.119583233
H  H73  1  0.61910000  0.49440000  0.22500000  1.0 0.119583233
H  H74  1  0.00560000  0.11910000  0.72500000  1.0 0.119583233
H  H75  1  0.38090000  0.50560000  0.22500000  1.0 0.119583233
H  H76  1  0.99440000  0.88090000  0.72500000  1.0 0.119583233
H  H77  1  0.11910000  0.00560000  0.27500000  1.0 0.119583233
H  H78  1  0.88090000  0.99440000  0.27500000  1.0 0.119583233
H  H79  1  0.49440000  0.61910000  0.77500000  1.0 0.119583233
H  H80  1  0.50560000  0.38090000  0.77500000  1.0 0.119583233
H  H81  1  0.69180000  0.53180000  0.18050000  1.0 0.1118429133
H  H82  1  0.96820000  0.19180000  0.68050000  1.0 0.1118429133
H  H83  1  0.30820000  0.46820000  0.18050000  1.0 0.1118429133
H  H84  1  0.03180000  0.80820000  0.68050000  1.0 0.1118429133
H  H85  1  0.19180000  0.96820000  0.31950000  1.0 0.1118429133
H  H86  1  0.80820000  0.03180000  0.31950000  1.0 0.1118429133
H  H87  1  0.53180000  0.69180000  0.81950000  1.0 0.1118429133
H  H88  1  0.46820000  0.30820000  0.81950000  1.0 0.1118429133
H  H89  1  0.91120000  0.38000000  0.11330000  1.0 0.1118429133
H  H90  1  0.12000000  0.41120000  0.61330000  1.0 0.1118429133
H  H91  1  0.08880000  0.62000000  0.11330000  1.0 0.1118429133
H  H92  1  0.88000000  0.58880000  0.61330000  1.0 0.1118429133
H  H93  1  0.41120000  0.12000000  0.38670000  1.0 0.1118429133
H  H94  1  0.58880000  0.88000000  0.38670000  1.0 0.1118429133
H  H95  1  0.38000000  0.91120000  0.88670000  1.0 0.1118429133
H  H96  1  0.62000000  0.08880000  0.88670000  1.0 0.1118429133
H  H97  1  0.78450000  0.24310000  0.15910000  1.0 0.1118429133
H  H98  1  0.25690000  0.28450000  0.65910000  1.0 0.1118429133
H  H99  1  0.21550000  0.75690000  0.15910000  1.0 0.1118429133
H  H100  1  0.74310000  0.71550000  0.65910000  1.0 0.1118429133
H  H101  1  0.28450000  0.25690000  0.34090000  1.0 0.1118429133
H  H102  1  0.71550000  0.74310000  0.34090000  1.0 0.1118429133
H  H103  1  0.24310000  0.78450000  0.84090000  1.0 0.1118429133
H  H104  1  0.75690000  0.21550000  0.84090000  1.0 0.1118429133
H  H105  1  0.76800000  0.33600000  0.19790000  1.0 0.1118429133
H  H106  1  0.16400000  0.26800000  0.69790000  1.0 0.1118429133
H  H107  1  0.23200000  0.66400000  0.19790000  1.0 0.1118429133
H  H108  1  0.83600000  0.73200000  0.69790000  1.0 0.1118429133
H  H109  1  0.26800000  0.16400000  0.30210000  1.0 0.1118429133
H  H110  1  0.73200000  0.83600000  0.30210000  1.0 0.1118429133
H  H111  1  0.33600000  0.76800000  0.80210000  1.0 0.1118429133
H  H112  1  0.66400000  0.23200000  0.80210000  1.0 0.1118429133
H  H113  1  0.77930000  0.47400000  0.45750000  1.0 0.0524235974
H  H114  1  0.02600000  0.27930000  0.95750000  1.0 0.0524235974
H  H115  1  0.22070000  0.52600000  0.45750000  1.0 0.0524235974
H  H116  1  0.97400000  0.72070000  0.95750000  1.0 0.0524235974
H  H117  1  0.27930000  0.02600000  0.04250000  1.0 0.0524235974
H  H118  1  0.72070000  0.97400000  0.04250000  1.0 0.0524235974
H  H119  1  0.47400000  0.77930000  0.54250000  1.0 0.0524235974
H  H120  1  0.52600000  0.22070000  0.54250000  1.0 0.0524235974
H  H121  1  0.72610000  0.37220000  0.31870000  1.0 0.119583233
H  H122  1  0.12780000  0.22610000  0.81870000  1.0 0.119583233
H  H123  1  0.27390000  0.62780000  0.31870000  1.0 0.119583233
H  H124  1  0.87220000  0.77390000  0.81870000  1.0 0.119583233
H  H125  1  0.22610000  0.12780000  0.18130000  1.0 0.119583233
H  H126  1  0.77390000  0.87220000  0.18130000  1.0 0.119583233
H  H127  1  0.37220000  0.72610000  0.68130000  1.0 0.119583233
H  H128  1  0.62780000  0.27390000  0.68130000  1.0 0.119583233
H  H129  1  0.76480000  0.36490000  0.25550000  1.0 0.1118429133
H  H130  1  0.13510000  0.26480000  0.75550000  1.0 0.1118429133
H  H131  1  0.23520000  0.63510000  0.25550000  1.0 0.1118429133
H  H132  1  0.86490000  0.73520000  0.75550000  1.0 0.1118429133
H  H133  1  0.26480000  0.13510000  0.24450000  1.0 0.1118429133
H  H134  1  0.73520000  0.86490000  0.24450000  1.0 0.1118429133
H  H135  1  0.36490000  0.76480000  0.74450000  1.0 0.1118429133
H  H136  1  0.63510000  0.23520000  0.74450000  1.0 0.1118429133
H  H137  1  0.81600000  0.44350000  0.10790000  1.0 0.1118429133
H  H138  1  0.05650000  0.31600000  0.60790000  1.0 0.1118429133
H  H139  1  0.18400000  0.55650000  0.10790000  1.0 0.1118429133
H  H140  1  0.94350000  0.68400000  0.60790000  1.0 0.1118429133
H  H141  1  0.31600000  0.05650000  0.39210000  1.0 0.1118429133
H  H142  1  0.68400000  0.94350000  0.39210000  1.0 0.1118429133
H  H143  1  0.44350000  0.81600000  0.89210000  1.0 0.1118429133
H  H144  1  0.55650000  0.18400000  0.89210000  1.0 0.1118429133
C  C1  1  0.61070000  0.43540000  0.34030000  1.0 0.5390273827
C  C2  1  0.06460000  0.11070000  0.84030000  1.0 0.5390273827
C  C3  1  0.38930000  0.56460000  0.34030000  1.0 0.5390273827
C  C4  1  0.93540000  0.88930000  0.84030000  1.0 0.5390273827
C  C5  1  0.11070000  0.06460000  0.15970000  1.0 0.5390273827
C  C6  1  0.88930000  0.93540000  0.15970000  1.0 0.5390273827
C  C7  1  0.43540000  0.61070000  0.65970000  1.0 0.5390273827
C  C8  1  0.56460000  0.38930000  0.65970000  1.0 0.5390273827
C  C9  1  0.76390000  0.63110000  0.14160000  1.0 -0.166399884
C  C10  1  0.86890000  0.26390000  0.64160000  1.0 -0.166399884
C  C11  1  0.23610000  0.36890000  0.14160000  1.0 -0.166399884
C  C12  1  0.13110000  0.73610000  0.64160000  1.0 -0.166399884
C  C13  1  0.26390000  0.86890000  0.35840000  1.0 -0.166399884
C  C14  1  0.73610000  0.13110000  0.35840000  1.0 -0.166399884
C  C15  1  0.63110000  0.76390000  0.85840000  1.0 -0.166399884
C  C16  1  0.36890000  0.23610000  0.85840000  1.0 -0.166399884
C  C17  1  0.77290000  0.63320000  0.06410000  1.0 -0.0825581387
C  C18  1  0.86680000  0.27290000  0.56410000  1.0 -0.0825581387
C  C19  1  0.22710000  0.36680000  0.06410000  1.0 -0.0825581387
C  C20  1  0.13320000  0.72710000  0.56410000  1.0 -0.0825581387
C  C21  1  0.27290000  0.86680000  0.43590000  1.0 -0.0825581387
C  C22  1  0.72710000  0.13320000  0.43590000  1.0 -0.0825581387
C  C23  1  0.63320000  0.77290000  0.93590000  1.0 -0.0825581387
C  C24  1  0.36680000  0.22710000  0.93590000  1.0 -0.0825581387
C  C25  1  0.97630000  0.14860000  0.10999000  1.0 0.6231937307
C  C26  1  0.35140000  0.47630000  0.60999000  1.0 0.6231937307
C  C27  1  0.02370000  0.85140000  0.10999000  1.0 0.6231937307
C  C28  1  0.64860000  0.52370000  0.60999000  1.0 0.6231937307
C  C29  1  0.47630000  0.35140000  0.39001000  1.0 0.6231937307
C  C30  1  0.52370000  0.64860000  0.39001000  1.0 0.6231937307
C  C31  1  0.14860000  0.97630000  0.89001000  1.0 0.6231937307
C  C32  1  0.85140000  0.02370000  0.89001000  1.0 0.6231937307
C  C33  1  0.76830000  0.69260000  0.12270000  1.0 -0.0825581387
C  C34  1  0.80740000  0.26830000  0.62270000  1.0 -0.0825581387
C  C35  1  0.23170000  0.30740000  0.12270000  1.0 -0.0825581387
C  C36  1  0.19260000  0.73170000  0.62270000  1.0 -0.0825581387
C  C37  1  0.26830000  0.80740000  0.37730000  1.0 -0.0825581387
C  C38  1  0.73170000  0.19260000  0.37730000  1.0 -0.0825581387
C  C39  1  0.69260000  0.76830000  0.87730000  1.0 -0.0825581387
C  C40  1  0.30740000  0.23170000  0.87730000  1.0 -0.0825581387
C  C41  1  0.76770000  0.56290000  0.08260000  1.0 -0.1520906659
C  C42  1  0.93710000  0.26770000  0.58260000  1.0 -0.1520906659
C  C43  1  0.23230000  0.43710000  0.08260000  1.0 -0.1520906659
C  C44  1  0.06290000  0.73230000  0.58260000  1.0 -0.1520906659
C  C45  1  0.26770000  0.93710000  0.41740000  1.0 -0.1520906659
C  C46  1  0.73230000  0.06290000  0.41740000  1.0 -0.1520906659
C  C47  1  0.56290000  0.76770000  0.91740000  1.0 -0.1520906659
C  C48  1  0.43710000  0.23230000  0.91740000  1.0 -0.1520906659
C  C49  1  0.77790000  0.69090000  0.08630000  1.0 -0.0273755532
C  C50  1  0.80910000  0.27790000  0.58630000  1.0 -0.0273755532
C  C51  1  0.22210000  0.30910000  0.08630000  1.0 -0.0273755532
C  C52  1  0.19090000  0.72210000  0.58630000  1.0 -0.0273755532
C  C53  1  0.27790000  0.80910000  0.41370000  1.0 -0.0273755532
C  C54  1  0.72210000  0.19090000  0.41370000  1.0 -0.0273755532
C  C55  1  0.69090000  0.77790000  0.91370000  1.0 -0.0273755532
C  C56  1  0.30910000  0.22210000  0.91370000  1.0 -0.0273755532
C  C57  1  0.79900000  0.76220000  0.06420000  1.0 0.61320432
C  C58  1  0.73780000  0.29900000  0.56420000  1.0 0.61320432
C  C59  1  0.20100000  0.23780000  0.06420000  1.0 0.61320432
C  C60  1  0.26220000  0.70100000  0.56420000  1.0 0.61320432
C  C61  1  0.29900000  0.73780000  0.43580000  1.0 0.61320432
C  C62  1  0.70100000  0.26220000  0.43580000  1.0 0.61320432
C  C63  1  0.76220000  0.79900000  0.93580000  1.0 0.61320432
C  C64  1  0.23780000  0.20100000  0.93580000  1.0 0.61320432
C  C65  1  0.92960000  0.20770000  0.11955000  1.0 -0.0622116466
C  C66  1  0.29230000  0.42960000  0.61955000  1.0 -0.0622116466
C  C67  1  0.07040000  0.79230000  0.11955000  1.0 -0.0622116466
C  C68  1  0.70770000  0.57040000  0.61955000  1.0 -0.0622116466
C  C69  1  0.42960000  0.29230000  0.38045000  1.0 -0.0622116466
C  C70  1  0.57040000  0.70770000  0.38045000  1.0 -0.0622116466
C  C71  1  0.20770000  0.92960000  0.88045000  1.0 -0.0622116466
C  C72  1  0.79230000  0.07040000  0.88045000  1.0 -0.0622116466
C  C73  1  0.60520000  0.47020000  0.27670000  1.0 -0.0502982595
C  C74  1  0.02980000  0.10520000  0.77670000  1.0 -0.0502982595
C  C75  1  0.39480000  0.52980000  0.27670000  1.0 -0.0502982595
C  C76  1  0.97020000  0.89480000  0.77670000  1.0 -0.0502982595
C  C77  1  0.10520000  0.02980000  0.22330000  1.0 -0.0502982595
C  C78  1  0.89480000  0.97020000  0.22330000  1.0 -0.0502982595
C  C79  1  0.47020000  0.60520000  0.72330000  1.0 -0.0502982595
C  C80  1  0.52980000  0.39480000  0.72330000  1.0 -0.0502982595
C  C81  1  0.75660000  0.56600000  0.11770000  1.0 0.0893158513
C  C82  1  0.93400000  0.25660000  0.61770000  1.0 0.0893158513
C  C83  1  0.24340000  0.43400000  0.11770000  1.0 0.0893158513
C  C84  1  0.06600000  0.74340000  0.61770000  1.0 0.0893158513
C  C85  1  0.25660000  0.93400000  0.38230000  1.0 0.0893158513
C  C86  1  0.74340000  0.06600000  0.38230000  1.0 0.0893158513
C  C87  1  0.56600000  0.75660000  0.88230000  1.0 0.0893158513
C  C88  1  0.43400000  0.24340000  0.88230000  1.0 0.0893158513
C  C89  1  0.86830000  0.19770000  0.13730000  1.0 -0.0825581387
C  C90  1  0.30230000  0.36830000  0.63730000  1.0 -0.0825581387
C  C91  1  0.13170000  0.80230000  0.13730000  1.0 -0.0825581387
C  C92  1  0.69770000  0.63170000  0.63730000  1.0 -0.0825581387
C  C93  1  0.36830000  0.30230000  0.36270000  1.0 -0.0825581387
C  C94  1  0.63170000  0.69770000  0.36270000  1.0 -0.0825581387
C  C95  1  0.19770000  0.86830000  0.86270000  1.0 -0.0825581387
C  C96  1  0.80230000  0.13170000  0.86270000  1.0 -0.0825581387
C  C97  1  0.64190000  0.43170000  0.30870000  1.0 -0.126108148
C  C98  1  0.06830000  0.14190000  0.80870000  1.0 -0.126108148
C  C99  1  0.35810000  0.56830000  0.30870000  1.0 -0.126108148
C  C100  1  0.93170000  0.85810000  0.80870000  1.0 -0.126108148
C  C101  1  0.14190000  0.06830000  0.19130000  1.0 -0.126108148
C  C102  1  0.85810000  0.93170000  0.19130000  1.0 -0.126108148
C  C103  1  0.43170000  0.64190000  0.69130000  1.0 -0.126108148
C  C104  1  0.56830000  0.35810000  0.69130000  1.0 -0.126108148
C  C105  1  0.94610000  0.27720000  0.10750000  1.0 -0.0825581387
C  C106  1  0.22280000  0.44610000  0.60750000  1.0 -0.0825581387
C  C107  1  0.05390000  0.72280000  0.10750000  1.0 -0.0825581387
C  C108  1  0.77720000  0.55390000  0.60750000  1.0 -0.0825581387
C  C109  1  0.44610000  0.22280000  0.39250000  1.0 -0.0825581387
C  C110  1  0.55390000  0.77720000  0.39250000  1.0 -0.0825581387
C  C111  1  0.27720000  0.94610000  0.89250000  1.0 -0.0825581387
C  C112  1  0.72280000  0.05390000  0.89250000  1.0 -0.0825581387
C  C113  1  0.83690000  0.31930000  0.13381000  1.0 0.0813872762
C  C114  1  0.18070000  0.33690000  0.63381000  1.0 0.0813872762
C  C115  1  0.16310000  0.68070000  0.13381000  1.0 0.0813872762
C  C116  1  0.81930000  0.66310000  0.63381000  1.0 0.0813872762
C  C117  1  0.33690000  0.18070000  0.36619000  1.0 0.0813872762
C  C118  1  0.66310000  0.81930000  0.36619000  1.0 0.0813872762
C  C119  1  0.31930000  0.83690000  0.86619000  1.0 0.0813872762
C  C120  1  0.68070000  0.16310000  0.86619000  1.0 0.0813872762
C  C121  1  0.63870000  0.46640000  0.24330000  1.0 -0.1374261704
C  C122  1  0.03360000  0.13870000  0.74330000  1.0 -0.1374261704
C  C123  1  0.36130000  0.53360000  0.24330000  1.0 -0.1374261704
C  C124  1  0.96640000  0.86130000  0.74330000  1.0 -0.1374261704
C  C125  1  0.13870000  0.03360000  0.25670000  1.0 -0.1374261704
C  C126  1  0.86130000  0.96640000  0.25670000  1.0 -0.1374261704
C  C127  1  0.46640000  0.63870000  0.75670000  1.0 -0.1374261704
C  C128  1  0.53360000  0.36130000  0.75670000  1.0 -0.1374261704
C  C129  1  0.71890000  0.49420000  0.17253000  1.0 -0.2014944226
C  C130  1  0.00580000  0.21890000  0.67253000  1.0 -0.2014944226
C  C131  1  0.28110000  0.50580000  0.17253000  1.0 -0.2014944226
C  C132  1  0.99420000  0.78110000  0.67253000  1.0 -0.2014944226
C  C133  1  0.21890000  0.00580000  0.32747000  1.0 -0.2014944226
C  C134  1  0.78110000  0.99420000  0.32747000  1.0 -0.2014944226
C  C135  1  0.49420000  0.71890000  0.82747000  1.0 -0.2014944226
C  C136  1  0.50580000  0.28110000  0.82747000  1.0 -0.2014944226
C  C137  1  0.89860000  0.33360000  0.11780000  1.0 -0.1520906659
C  C138  1  0.16640000  0.39860000  0.61780000  1.0 -0.1520906659
C  C139  1  0.10140000  0.66640000  0.11780000  1.0 -0.1550048393
C  C140  1  0.83360000  0.60140000  0.61780000  1.0 -0.1520906659
C  C141  1  0.39860000  0.16640000  0.38220000  1.0 -0.1520906659
C  C142  1  0.60140000  0.83360000  0.38220000  1.0 -0.1520906659
C  C143  1  0.33360000  0.89860000  0.88220000  1.0 -0.1520906659
C  C144  1  0.66640000  0.10140000  0.88220000  1.0 -0.1520906659
C  C145  1  0.79830000  0.37980000  0.15180000  1.0 0.0813872762
C  C146  1  0.12020000  0.29830000  0.65180000  1.0 0.0813872762
C  C147  1  0.20170000  0.62020000  0.15180000  1.0 0.0813872762
C  C148  1  0.87980000  0.70170000  0.65180000  1.0 0.0813872762
C  C149  1  0.29830000  0.12020000  0.34820000  1.0 0.0813872762
C  C150  1  0.70170000  0.87980000  0.34820000  1.0 0.0813872762
C  C151  1  0.37980000  0.79830000  0.84820000  1.0 0.0813872762
C  C152  1  0.62020000  0.20170000  0.84820000  1.0 0.0813872762
C  C153  1  0.82450000  0.25200000  0.14526000  1.0 -0.1520906659
C  C154  1  0.24800000  0.32450000  0.64526000  1.0 -0.1520906659
C  C155  1  0.17550000  0.74800000  0.14526000  1.0 -0.1520906659
C  C156  1  0.75200000  0.67550000  0.64526000  1.0 -0.1520906659
C  C157  1  0.32450000  0.24800000  0.35474000  1.0 -0.1520906659
C  C158  1  0.67550000  0.75200000  0.35474000  1.0 -0.1520906659
C  C159  1  0.25200000  0.82450000  0.85474000  1.0 -0.1520906659
C  C160  1  0.74800000  0.17550000  0.85474000  1.0 -0.1520906659
C  C161  1  0.75130000  0.49600000  0.14140000  1.0 0.0813872762
C  C162  1  0.00400000  0.25130000  0.64140000  1.0 0.0813872762
C  C163  1  0.24870000  0.50400000  0.14140000  1.0 0.0813872762
C  C164  1  0.99600000  0.74870000  0.64140000  1.0 0.0813872762
C  C165  1  0.25130000  0.00400000  0.35860000  1.0 0.0813872762
C  C166  1  0.74870000  0.99600000  0.35860000  1.0 0.0813872762
C  C167  1  0.49600000  0.75130000  0.85860000  1.0 0.0813872762
C  C168  1  0.50400000  0.24870000  0.85860000  1.0 0.0813872762
C  C169  1  0.76500000  0.37610000  0.18350000  1.0 -0.1878010902
C  C170  1  0.12390000  0.26500000  0.68350000  1.0 -0.1878010902
C  C171  1  0.23500000  0.62390000  0.18350000  1.0 -0.1878010902
C  C172  1  0.87610000  0.73500000  0.68350000  1.0 -0.1878010902
C  C173  1  0.26500000  0.12390000  0.31650000  1.0 -0.1878010902
C  C174  1  0.73500000  0.87610000  0.31650000  1.0 -0.1878010902
C  C175  1  0.37610000  0.76500000  0.81650000  1.0 -0.1844701422
C  C176  1  0.62390000  0.23500000  0.81650000  1.0 -0.1844701422
C  C177  1  0.74300000  0.44150000  0.45670000  1.0 0.5143947329
C  C178  1  0.05850000  0.24300000  0.95670000  1.0 0.5143947329
C  C179  1  0.25700000  0.55850000  0.45670000  1.0 0.5143947329
C  C180  1  0.94150000  0.75700000  0.95670000  1.0 0.5156769651
C  C181  1  0.24300000  0.05850000  0.04330000  1.0 0.5143947329
C  C182  1  0.75700000  0.94150000  0.04330000  1.0 0.5143947329
C  C183  1  0.44150000  0.74300000  0.54330000  1.0 0.5143947329
C  C184  1  0.55850000  0.25700000  0.54330000  1.0 0.5143947329
C  C185  1  0.69100000  0.43170000  0.23320000  1.0 0.0692109337
C  C186  1  0.06830000  0.19100000  0.73320000  1.0 0.0692109337
C  C187  1  0.30900000  0.56830000  0.23320000  1.0 0.0692109337
C  C188  1  0.93170000  0.80900000  0.73320000  1.0 0.0692109337
C  C189  1  0.19100000  0.06830000  0.26680000  1.0 0.0692109337
C  C190  1  0.80900000  0.93170000  0.26680000  1.0 0.0692109337
C  C191  1  0.43170000  0.69100000  0.76680000  1.0 0.0692109337
C  C192  1  0.56830000  0.30900000  0.76680000  1.0 0.0692109337
C  C193  1  0.72650000  0.43160000  0.19450000  1.0 0.063003585
C  C194  1  0.06840000  0.22650000  0.69450000  1.0 0.063003585
C  C195  1  0.27350000  0.56840000  0.19450000  1.0 0.063003585
C  C196  1  0.93160000  0.77350000  0.69450000  1.0 0.0692109337
C  C197  1  0.22650000  0.06840000  0.30550000  1.0 0.063003585
C  C198  1  0.77350000  0.93160000  0.30550000  1.0 0.063003585
C  C199  1  0.43160000  0.72650000  0.80550000  1.0 0.0692109337
C  C200  1  0.56840000  0.27350000  0.80550000  1.0 0.0692109337
C  C201  1  0.70120000  0.39520000  0.30030000  1.0 -0.0502982595
C  C202  1  0.10480000  0.20120000  0.80030000  1.0 -0.0502982595
C  C203  1  0.29880000  0.60480000  0.30030000  1.0 -0.0502982595
C  C204  1  0.89520000  0.79880000  0.80030000  1.0 -0.0502982595
C  C205  1  0.20120000  0.10480000  0.19970000  1.0 -0.0502982595
C  C206  1  0.79880000  0.89520000  0.19970000  1.0 -0.0502982595
C  C207  1  0.39520000  0.70120000  0.69970000  1.0 -0.0502982595
C  C208  1  0.60480000  0.29880000  0.69970000  1.0 -0.0502982595
C  C209  1  0.72610000  0.39240000  0.26150000  1.0 -0.1878010902
C  C210  1  0.10760000  0.22610000  0.76150000  1.0 -0.1878010902
C  C211  1  0.27390000  0.60760000  0.26150000  1.0 -0.1878010902
C  C212  1  0.89240000  0.77390000  0.76150000  1.0 -0.1878010902
C  C213  1  0.22610000  0.10760000  0.23850000  1.0 -0.1878010902
C  C214  1  0.77390000  0.89240000  0.23850000  1.0 -0.1878010902
C  C215  1  0.39240000  0.72610000  0.73850000  1.0 -0.1878010902
C  C216  1  0.60760000  0.27390000  0.73850000  1.0 -0.1878010902
C  C217  1  0.79220000  0.44070000  0.13010000  1.0 -0.2237631427
C  C218  1  0.05930000  0.29220000  0.63010000  1.0 -0.2237631427
C  C219  1  0.20780000  0.55930000  0.13010000  1.0 -0.2237631427
C  C220  1  0.94070000  0.70780000  0.63010000  1.0 -0.2237631427
C  C221  1  0.29220000  0.05930000  0.36990000  1.0 -0.2237631427
C  C222  1  0.70780000  0.94070000  0.36990000  1.0 -0.2237631427
C  C223  1  0.44070000  0.79220000  0.86990000  1.0 -0.2237631427
C  C224  1  0.55930000  0.20780000  0.86990000  1.0 -0.2237631427
O  O1  1  0.56717000  0.47078000  0.41908000  1.0 -0.9941055578
O  O2  1  0.02922000  0.06717000  0.91908000  1.0 -0.9941055578
O  O3  1  0.43283000  0.52922000  0.41908000  1.0 -0.9941055578
O  O4  1  0.97078000  0.93283000  0.91908000  1.0 -0.9941055578
O  O5  1  0.06717000  0.02922000  0.08092000  1.0 -0.9941055578
O  O6  1  0.93283000  0.97078000  0.08092000  1.0 -0.9941055578
O  O7  1  0.47078000  0.56717000  0.58092000  1.0 -0.9941055578
O  O8  1  0.52922000  0.43283000  0.58092000  1.0 -0.9941055578
O  O9  1  0.64210000  0.39961000  0.36619000  1.0 -0.569852258
O  O10  1  0.10039000  0.14210000  0.86619000  1.0 -0.569852258
O  O11  1  0.35790000  0.60039000  0.36619000  1.0 -0.569852258
O  O12  1  0.89961000  0.85790000  0.86619000  1.0 -0.569852258
O  O13  1  0.14210000  0.10039000  0.13381000  1.0 -0.569852258
O  O14  1  0.85790000  0.89961000  0.13381000  1.0 -0.569852258
O  O15  1  0.39961000  0.64210000  0.63381000  1.0 -0.569852258
O  O16  1  0.60039000  0.35790000  0.63381000  1.0 -0.569852258
O  O17  1  0.60090000  0.36373000  0.46566000  1.0 -0.9999395711
O  O18  1  0.13627000  0.10090000  0.96566000  1.0 -0.9999395711
O  O19  1  0.39910000  0.63627000  0.46566000  1.0 -0.9999395711
O  O20  1  0.86373000  0.89910000  0.96566000  1.0 -0.9999395711
O  O21  1  0.10090000  0.13627000  0.03434000  1.0 -0.9999395711
O  O22  1  0.89910000  0.86373000  0.03434000  1.0 -0.9999395711
O  O23  1  0.36373000  0.60090000  0.53434000  1.0 -0.9999395711
O  O24  1  0.63627000  0.39910000  0.53434000  1.0 -0.9999395711
O  O25  1  0.55740000  0.47360000  0.34612000  1.0 -0.569852258
O  O26  1  0.02640000  0.05740000  0.84612000  1.0 -0.569852258
O  O27  1  0.44260000  0.52640000  0.34612000  1.0 -0.569852258
O  O28  1  0.97360000  0.94260000  0.84612000  1.0 -0.569852258
O  O29  1  0.05740000  0.02640000  0.15388000  1.0 -0.569852258
O  O30  1  0.94260000  0.97360000  0.15388000  1.0 -0.569852258
O  O31  1  0.47360000  0.55740000  0.65388000  1.0 -0.569852258
O  O32  1  0.52640000  0.44260000  0.65388000  1.0 -0.569852258
O  O33  1  0.82430000  0.80600000  0.08836000  1.0 -0.5781312687
O  O34  1  0.69400000  0.32430000  0.58836000  1.0 -0.5781312687
O  O35  1  0.17570000  0.19400000  0.08836000  1.0 -0.5781312687
O  O36  1  0.30600000  0.67570000  0.58836000  1.0 -0.5781312687
O  O37  1  0.32430000  0.69400000  0.41164000  1.0 -0.5781312687
O  O38  1  0.67570000  0.30600000  0.41164000  1.0 -0.5781312687
O  O39  1  0.80600000  0.82430000  0.91164000  1.0 -0.5781312687
O  O40  1  0.19400000  0.17570000  0.91164000  1.0 -0.5781312687
O  O41  1  0.73470000  0.39710000  0.48285000  1.0 -0.5573432845
O  O42  1  0.10290000  0.23470000  0.98285000  1.0 -0.5573432845
O  O43  1  0.26530000  0.60290000  0.48285000  1.0 -0.5573432845
O  O44  1  0.89710000  0.76530000  0.98285000  1.0 -0.5573432845
O  O45  1  0.23470000  0.10290000  0.01715000  1.0 -0.5573432845
O  O46  1  0.76530000  0.89710000  0.01715000  1.0 -0.5573432845
O  O47  1  0.39710000  0.73470000  0.51715000  1.0 -0.5573432845
O  O48  1  0.60290000  0.26530000  0.51715000  1.0 -0.5573432845
O  O49  1  0.04110000  0.16666000  0.09772000  1.0 -0.6498836976
O  O50  1  0.33333333  0.54110000  0.59772000  1.0 -0.6498836976
O  O51  1  0.95890000  0.83334000  0.09772000  1.0 -0.6498836976
O  O52  1  0.66666667  0.45890000  0.59772000  1.0 -0.6498836976
O  O53  1  0.54110000  0.33333333  0.40228000  1.0 -0.6498836976
O  O54  1  0.45890000  0.66666667  0.40228000  1.0 -0.6498836976
O  O55  1  0.16666000  0.04110000  0.90228000  1.0 -0.6498836976
O  O56  1  0.83334000  0.95890000  0.90228000  1.0 -0.6498836976
O  O57  1  0.95687000  0.08848000  0.11815000  1.0 -0.569852258
O  O58  1  0.41152000  0.45687000  0.61815000  1.0 -0.569852258
O  O59  1  0.04313000  0.91152000  0.11815000  1.0 -0.569852258
O  O60  1  0.58848000  0.54313000  0.61815000  1.0 -0.569852258
O  O61  1  0.45687000  0.41152000  0.38185000  1.0 -0.569852258
O  O62  1  0.54313000  0.58848000  0.38185000  1.0 -0.569852258
O  O63  1  0.08848000  0.95687000  0.88185000  1.0 -0.569852258
O  O64  1  0.91152000  0.04313000  0.88185000  1.0 -0.569852258
O  O65  1  0.80060000  0.76400000  0.03269000  1.0 -0.4569306103
O  O66  1  0.73600000  0.30060000  0.53269000  1.0 -0.4569306103
O  O67  1  0.19940000  0.23600000  0.03269000  1.0 -0.4569306103
O  O68  1  0.26400000  0.69940000  0.53269000  1.0 -0.4569306103
O  O69  1  0.30060000  0.73600000  0.46731000  1.0 -0.4569306103
O  O70  1  0.69940000  0.26400000  0.46731000  1.0 -0.4569306103
O  O71  1  0.76400000  0.80060000  0.96731000  1.0 -0.4569306103
O  O72  1  0.23600000  0.19940000  0.96731000  1.0 -0.4569306103
O  O73  1  0.69870000  0.44040000  0.42826000  1.0 -0.5881139216
O  O74  1  0.05960000  0.19870000  0.92826000  1.0 -0.5881139216
O  O75  1  0.30130000  0.55960000  0.42826000  1.0 -0.5881139216
O  O76  1  0.94040000  0.80130000  0.92826000  1.0 -0.5881139216
O  O77  1  0.19870000  0.05960000  0.07174000  1.0 -0.5881139216
O  O78  1  0.80130000  0.94040000  0.07174000  1.0 -0.5881139216
O  O79  1  0.44040000  0.69870000  0.57174000  1.0 -0.5881139216
O  O80  1  0.55960000  0.30130000  0.57174000  1.0 -0.5881139216
