# DDEC6 charges by PACMAN v1.1 (https://github.com/mtap-research/PACMAN-charge/)
data_d0dt03012k2_4_ASR_pacman
_symmetry_space_group_name_H-M   'P 1'
_cell_length_a   30.08900000
_cell_length_b   30.08900000
_cell_length_c   30.08900000
_cell_angle_alpha   90.00000000
_cell_angle_beta   90.00000000
_cell_angle_gamma   90.00000000
_symmetry_Int_Tables_number   1
_chemical_formula_structural   Zn47C335O123
_chemical_formula_sum   'Zn94 C670 O246'
_cell_volume   27241.01359497
_cell_formula_units_Z   2
loop_
 _symmetry_equiv_pos_site_id
 _symmetry_equiv_pos_as_xyz
  1  'x, y, z'
loop_
 _atom_site_type_symbol
 _atom_site_label
 _atom_site_symmetry_multiplicity
 _atom_site_fract_x
 _atom_site_fract_y
 _atom_site_fract_z
 _atom_site_occupancy
 _atom_site_charge
Zn  Zn1  1  0.83791000  0.83791000  0.66209000  1.0 0.6291964349
Zn  Zn2  1  0.83791000  0.91209000  0.58791000  1.0 0.5680119945
Zn  Zn3  1  0.41209000  0.91209000  0.16209000  1.0 0.6009258582
Zn  Zn4  1  0.41209000  0.83791000  0.08791000  1.0 0.5680119945
Zn  Zn5  1  0.83791000  0.33791000  0.16209000  1.0 0.909246301
Zn  Zn6  1  0.41209000  0.41209000  0.66209000  1.0 0.9372842341
Zn  Zn7  1  0.83791000  0.41209000  0.08791000  1.0 0.7813368394
Zn  Zn8  1  0.41209000  0.33791000  0.58791000  1.0 0.9372842341
Zn  Zn9  1  0.33791000  0.83791000  0.16209000  1.0 0.5680119945
Zn  Zn10  1  0.33791000  0.41209000  0.58791000  1.0 0.9372842341
Zn  Zn11  1  0.33791000  0.33791000  0.66209000  1.0 0.9372842341
Zn  Zn12  1  0.33791000  0.91209000  0.08791000  1.0 0.6009258582
Zn  Zn13  1  0.91209000  0.91209000  0.66209000  1.0 0.6613971417
Zn  Zn14  1  0.91209000  0.83791000  0.58791000  1.0 0.6200901025
Zn  Zn15  1  0.91209000  0.41209000  0.16209000  1.0 0.7813368394
Zn  Zn16  1  0.91209000  0.33791000  0.08791000  1.0 0.8654227211
Zn  Zn17  1  0.41209000  0.91209000  0.66209000  1.0 0.3634096139
Zn  Zn18  1  0.91209000  0.91209000  0.16209000  1.0 0.3917654782
Zn  Zn19  1  0.41209000  0.41209000  0.16209000  1.0 0.2689275547
Zn  Zn20  1  0.33791000  0.91209000  0.58791000  1.0 0.2887150003
Zn  Zn21  1  0.83791000  0.91209000  0.08791000  1.0 0.3186656072
Zn  Zn22  1  0.91209000  0.83791000  0.08791000  1.0 0.3085783227
Zn  Zn23  1  0.91209000  0.33791000  0.58791000  1.0 0.2887150003
Zn  Zn24  1  0.91209000  0.41209000  0.66209000  1.0 0.2887150003
Zn  Zn25  1  0.83808000  0.83808000  0.08808000  1.0 0.6200901025
Zn  Zn26  1  0.83808000  0.91192000  0.16192000  1.0 0.6114684893
Zn  Zn27  1  0.41192000  0.91192000  0.58808000  1.0 0.6497332805
Zn  Zn28  1  0.41192000  0.83808000  0.66192000  1.0 0.6673277571
Zn  Zn29  1  0.91192000  0.83808000  0.16192000  1.0 0.5585740401
Zn  Zn30  1  0.83808000  0.33808000  0.58808000  1.0 0.7517781609
Zn  Zn31  1  0.91192000  0.41192000  0.58808000  1.0 0.7198094322
Zn  Zn32  1  0.83808000  0.41192000  0.66192000  1.0 0.7517781609
Zn  Zn33  1  0.41192000  0.41192000  0.08808000  1.0 0.7898927881
Zn  Zn34  1  0.41192000  0.33808000  0.16192000  1.0 0.8487473084
Zn  Zn35  1  0.91192000  0.33808000  0.66192000  1.0 0.7198094322
Zn  Zn36  1  0.91192000  0.91192000  0.08808000  1.0 0.6404713876
Zn  Zn37  1  0.33808000  0.83808000  0.58808000  1.0 0.7409256353
Zn  Zn38  1  0.33808000  0.91192000  0.66192000  1.0 0.6957681729
Zn  Zn39  1  0.33808000  0.33808000  0.08808000  1.0 0.909246301
Zn  Zn40  1  0.33808000  0.41192000  0.16192000  1.0 0.7898927881
Zn  Zn41  1  0.41192000  0.91192000  0.08808000  1.0 0.3917654782
Zn  Zn42  1  0.33808000  0.91192000  0.16192000  1.0 0.3917654782
Zn  Zn43  1  0.41192000  0.83808000  0.16192000  1.0 0.280584865
Zn  Zn44  1  0.91192000  0.41192000  0.08808000  1.0 0.280584865
Zn  Zn45  1  0.91192000  0.91192000  0.58808000  1.0 0.3786097123
Zn  Zn46  1  0.83808000  0.91192000  0.66192000  1.0 0.3085783227
Zn  Zn47  1  0.91192000  0.83808000  0.66192000  1.0 0.3390203341
Zn  Zn48  1  0.16209000  0.58791000  0.91209000  1.0 0.7517781609
Zn  Zn49  1  0.08791000  0.58791000  0.83791000  1.0 0.7898927881
Zn  Zn50  1  0.08791000  0.16209000  0.41209000  1.0 0.9372842341
Zn  Zn51  1  0.16209000  0.16209000  0.33791000  1.0 0.9372842341
Zn  Zn52  1  0.66209000  0.58791000  0.41209000  1.0 0.5680119945
Zn  Zn53  1  0.66209000  0.16209000  0.83791000  1.0 0.7813368394
Zn  Zn54  1  0.58791000  0.16209000  0.91209000  1.0 0.8654227211
Zn  Zn55  1  0.58791000  0.58791000  0.33791000  1.0 0.6200901025
Zn  Zn56  1  0.16209000  0.66209000  0.83791000  1.0 0.7517781609
Zn  Zn57  1  0.08791000  0.08791000  0.33791000  1.0 0.9372842341
Zn  Zn58  1  0.16209000  0.08791000  0.41209000  1.0 0.9372842341
Zn  Zn59  1  0.08791000  0.66209000  0.91209000  1.0 0.6673277571
Zn  Zn60  1  0.66209000  0.08791000  0.91209000  1.0 0.7813368394
Zn  Zn61  1  0.66209000  0.66209000  0.33791000  1.0 0.525958295
Zn  Zn62  1  0.58791000  0.66209000  0.41209000  1.0 0.5751088216
Zn  Zn63  1  0.58791000  0.08791000  0.83791000  1.0 0.909246301
Zn  Zn64  1  0.08791000  0.58791000  0.33791000  1.0 0.370341885
Zn  Zn65  1  0.08791000  0.08791000  0.83791000  1.0 0.2608720987
Zn  Zn66  1  0.66209000  0.58791000  0.91209000  1.0 0.280584865
Zn  Zn67  1  0.66209000  0.08791000  0.41209000  1.0 0.2887150003
Zn  Zn68  1  0.08791000  0.66209000  0.41209000  1.0 0.2989710722
Zn  Zn69  1  0.58791000  0.58791000  0.83791000  1.0 0.2887150003
Zn  Zn70  1  0.58791000  0.08791000  0.33791000  1.0 0.2887150003
Zn  Zn71  1  0.08791000  0.16209000  0.91209000  1.0 0.2887150003
Zn  Zn72  1  0.16192000  0.58808000  0.33808000  1.0 0.7409256353
Zn  Zn73  1  0.08808000  0.58808000  0.41192000  1.0 0.6861222936
Zn  Zn74  1  0.08808000  0.16192000  0.83808000  1.0 0.7198094322
Zn  Zn75  1  0.16192000  0.16192000  0.91192000  1.0 0.8162762477
Zn  Zn76  1  0.16192000  0.08808000  0.83808000  1.0 0.7573329164
Zn  Zn77  1  0.58808000  0.58808000  0.91192000  1.0 0.7198094322
Zn  Zn78  1  0.08808000  0.66192000  0.33808000  1.0 0.6497332805
Zn  Zn79  1  0.08808000  0.08808000  0.91192000  1.0 0.6766732289
Zn  Zn80  1  0.16192000  0.66192000  0.41192000  1.0 0.8107977265
Zn  Zn81  1  0.58808000  0.08808000  0.41192000  1.0 0.7057121946
Zn  Zn82  1  0.66192000  0.58808000  0.83808000  1.0 0.7198094322
Zn  Zn83  1  0.58808000  0.16192000  0.33808000  1.0 0.8107977265
Zn  Zn84  1  0.66192000  0.16192000  0.41192000  1.0 0.8107977265
Zn  Zn85  1  0.66192000  0.08808000  0.33808000  1.0 0.7057121946
Zn  Zn86  1  0.58808000  0.66192000  0.83808000  1.0 0.7517781609
Zn  Zn87  1  0.66192000  0.66192000  0.91192000  1.0 0.7517781609
Zn  Zn88  1  0.08808000  0.58808000  0.91192000  1.0 0.2887150003
Zn  Zn89  1  0.08808000  0.66192000  0.83808000  1.0 0.2887150003
Zn  Zn90  1  0.66192000  0.58808000  0.33808000  1.0 0.3917654782
Zn  Zn91  1  0.66192000  0.66192000  0.41192000  1.0 0.3786097123
Zn  Zn92  1  0.58808000  0.58808000  0.41192000  1.0 0.3634096139
Zn  Zn93  1  0.58808000  0.66192000  0.33808000  1.0 0.3309912576
Zn  Zn94  1  0.66192000  0.16192000  0.91192000  1.0 0.280584865
C  C1  1  0.87500000  0.87500000  0.74010000  1.0 0.6291964349
C  C2  1  0.87500000  0.87500000  0.50990000  1.0 0.280584865
C  C3  1  0.37500000  0.87500000  0.24010000  1.0 0.2887150003
C  C4  1  0.37500000  0.87500000  0.00990000  1.0 0.2887150003
C  C5  1  0.87500000  0.25990000  0.12500000  1.0 0.6613971417
C  C6  1  0.37500000  0.49010000  0.62500000  1.0 0.6613971417
C  C7  1  0.87500000  0.49010000  0.12500000  1.0 0.280584865
C  C8  1  0.37500000  0.25990000  0.62500000  1.0 0.6613971417
C  C9  1  0.25990000  0.87500000  0.12500000  1.0 0.280584865
C  C10  1  0.49010000  0.37500000  0.62500000  1.0 0.6613971417
C  C11  1  0.49010000  0.87500000  0.12500000  1.0 0.2887150003
C  C12  1  0.25990000  0.37500000  0.62500000  1.0 0.6613971417
C  C13  1  0.87500000  0.37500000  0.24010000  1.0 0.6404713876
C  C14  1  0.87500000  0.37500000  0.00990000  1.0 0.6404713876
C  C15  1  0.37500000  0.37500000  0.74010000  1.0 0.6613971417
C  C16  1  0.37500000  0.37500000  0.50990000  1.0 0.6613971417
C  C17  1  0.87500000  0.75990000  0.62500000  1.0 0.2481506818
C  C18  1  0.37500000  0.99010000  0.12500000  1.0 0.6291964349
C  C19  1  0.87500000  0.99010000  0.62500000  1.0 0.280584865
C  C20  1  0.37500000  0.75990000  0.12500000  1.0 0.2989710722
C  C21  1  0.75990000  0.87500000  0.62500000  1.0 0.2689275547
C  C22  1  0.99010000  0.37500000  0.12500000  1.0 0.6404713876
C  C23  1  0.99010000  0.87500000  0.62500000  1.0 0.6200901025
C  C24  1  0.75990000  0.37500000  0.12500000  1.0 0.6404713876
C  C25  1  0.37500000  0.87500000  0.74010000  1.0 0.2481506818
C  C26  1  0.99010000  0.87500000  0.12500000  1.0 0.2608720987
C  C27  1  0.37500000  0.49010000  0.12500000  1.0 0.2192343108
C  C28  1  0.37500000  0.87500000  0.50990000  1.0 0.2192343108
C  C29  1  0.75990000  0.87500000  0.12500000  1.0 0.2192343108
C  C30  1  0.87500000  0.75990000  0.12500000  1.0 0.2481506818
C  C31  1  0.87500000  0.87500000  0.24010000  1.0 0.2608720987
C  C32  1  0.49010000  0.87500000  0.62500000  1.0 0.2481506818
C  C33  1  0.87500000  0.25990000  0.62500000  1.0 0.2192343108
C  C34  1  0.87500000  0.49010000  0.62500000  1.0 0.2192343108
C  C35  1  0.87500000  0.87500000  0.79790000  1.0 -0.1005296153
C  C36  1  0.87500000  0.87500000  0.45210000  1.0 -0.0901309991
C  C37  1  0.37500000  0.87500000  0.29790000  1.0 -0.1089221365
C  C38  1  0.37500000  0.87500000  0.95210000  1.0 -0.0901309991
C  C39  1  0.87500000  0.20210000  0.12500000  1.0 -0.1005296153
C  C40  1  0.37500000  0.54790000  0.62500000  1.0 -0.0901309991
C  C41  1  0.87500000  0.54790000  0.12500000  1.0 -0.0901309991
C  C42  1  0.37500000  0.20210000  0.62500000  1.0 -0.0901309991
C  C43  1  0.20210000  0.87500000  0.12500000  1.0 -0.0901309991
C  C44  1  0.54790000  0.37500000  0.62500000  1.0 -0.0901309991
C  C45  1  0.54790000  0.87500000  0.12500000  1.0 -0.1089221365
C  C46  1  0.20210000  0.37500000  0.62500000  1.0 -0.0901309991
C  C47  1  0.87500000  0.37500000  0.29790000  1.0 -0.0901309991
C  C48  1  0.87500000  0.37500000  0.95210000  1.0 -0.0901309991
C  C49  1  0.37500000  0.37500000  0.79790000  1.0 -0.0901309991
C  C50  1  0.37500000  0.37500000  0.45210000  1.0 -0.0901309991
C  C51  1  0.87500000  0.70210000  0.62500000  1.0 -0.0797041527
C  C52  1  0.37500000  0.04790000  0.12500000  1.0 -0.0901309991
C  C53  1  0.87500000  0.04790000  0.62500000  1.0 -0.1089221365
C  C54  1  0.37500000  0.70210000  0.12500000  1.0 -0.0797041527
C  C55  1  0.70210000  0.87500000  0.62500000  1.0 -0.0797041527
C  C56  1  0.04790000  0.37500000  0.12500000  1.0 -0.0901309991
C  C57  1  0.04790000  0.87500000  0.62500000  1.0 -0.0901309991
C  C58  1  0.70210000  0.37500000  0.12500000  1.0 -0.0901309991
C  C59  1  0.37500000  0.87500000  0.79790000  1.0 -0.0797041527
C  C60  1  0.04790000  0.87500000  0.12500000  1.0 -0.1005296153
C  C61  1  0.37500000  0.54790000  0.12500000  1.0 -0.0797041527
C  C62  1  0.37500000  0.87500000  0.45210000  1.0 -0.0797041527
C  C63  1  0.70210000  0.87500000  0.12500000  1.0 -0.0704581999
C  C64  1  0.87500000  0.70210000  0.12500000  1.0 -0.0704581999
C  C65  1  0.87500000  0.87500000  0.29790000  1.0 -0.0797041527
C  C66  1  0.54790000  0.87500000  0.62500000  1.0 -0.0901309991
C  C67  1  0.87500000  0.20210000  0.62500000  1.0 -0.0797041527
C  C68  1  0.87500000  0.54790000  0.62500000  1.0 -0.0704581999
C  C69  1  0.84830000  0.84830000  0.81160000  1.0 -0.0286543078
C  C70  1  0.84830000  0.90170000  0.43840000  1.0 -0.0198060522
C  C71  1  0.40170000  0.90170000  0.31160000  1.0 -0.0098580336
C  C72  1  0.40170000  0.84830000  0.93840000  1.0 -0.0198060522
C  C73  1  0.84830000  0.18840000  0.15170000  1.0 0.0107503169
C  C74  1  0.40170000  0.56160000  0.65170000  1.0 0.0107503169
C  C75  1  0.84830000  0.56160000  0.09830000  1.0 -0.0198060522
C  C76  1  0.40170000  0.18840000  0.59830000  1.0 0.0165775583
C  C77  1  0.18840000  0.84830000  0.15170000  1.0 -0.0198060522
C  C78  1  0.56160000  0.34830000  0.59830000  1.0 0.0165775583
C  C79  1  0.56160000  0.90170000  0.15170000  1.0 -0.0098580336
C  C80  1  0.18840000  0.40170000  0.59830000  1.0 0.0107503169
C  C81  1  0.84830000  0.34830000  0.31160000  1.0 0.0107503169
C  C82  1  0.84830000  0.40170000  0.93840000  1.0 -0.0098580336
C  C83  1  0.40170000  0.40170000  0.81160000  1.0 0.0107503169
C  C84  1  0.40170000  0.34830000  0.43840000  1.0 0.0107503169
C  C85  1  0.84830000  0.68840000  0.65170000  1.0 -0.0198060522
C  C86  1  0.40170000  0.06160000  0.15170000  1.0 -0.0198060522
C  C87  1  0.84830000  0.06160000  0.59830000  1.0 -0.0198060522
C  C88  1  0.40170000  0.68840000  0.09830000  1.0 -0.0098580336
C  C89  1  0.18840000  0.34830000  0.65170000  1.0 0.0107503169
C  C90  1  0.56160000  0.84830000  0.09830000  1.0 -0.0198060522
C  C91  1  0.56160000  0.40170000  0.65170000  1.0 0.0107503169
C  C92  1  0.18840000  0.90170000  0.09830000  1.0 -0.0198060522
C  C93  1  0.34830000  0.84830000  0.31160000  1.0 -0.0198060522
C  C94  1  0.34830000  0.90170000  0.93840000  1.0 -0.0098580336
C  C95  1  0.90170000  0.90170000  0.81160000  1.0 -0.0098580336
C  C96  1  0.90170000  0.84830000  0.43840000  1.0 -0.0198060522
C  C97  1  0.34830000  0.18840000  0.65170000  1.0 0.0165775583
C  C98  1  0.90170000  0.56160000  0.15170000  1.0 -0.0198060522
C  C99  1  0.34830000  0.56160000  0.59830000  1.0 0.0165775583
C  C100  1  0.90170000  0.18840000  0.09830000  1.0 0.0012669716
C  C101  1  0.68840000  0.84830000  0.65170000  1.0 -0.0198060522
C  C102  1  0.06160000  0.34830000  0.09830000  1.0 0.0012669716
C  C103  1  0.06160000  0.90170000  0.65170000  1.0 -0.0098580336
C  C104  1  0.68840000  0.40170000  0.09830000  1.0 -0.0037174041
C  C105  1  0.34830000  0.34830000  0.81160000  1.0 0.0107503169
C  C106  1  0.34830000  0.40170000  0.43840000  1.0 0.0107503169
C  C107  1  0.90170000  0.40170000  0.31160000  1.0 -0.0037174041
C  C108  1  0.90170000  0.34830000  0.93840000  1.0 0.0012669716
C  C109  1  0.34830000  0.68840000  0.15170000  1.0 -0.0098580336
C  C110  1  0.90170000  0.06160000  0.65170000  1.0 -0.0098580336
C  C111  1  0.34830000  0.06160000  0.09830000  1.0 -0.0198060522
C  C112  1  0.90170000  0.68840000  0.59830000  1.0 -0.0198060522
C  C113  1  0.68840000  0.34830000  0.15170000  1.0 0.0107503169
C  C114  1  0.06160000  0.84830000  0.59830000  1.0 -0.0286543078
C  C115  1  0.06160000  0.40170000  0.15170000  1.0 -0.0098580336
C  C116  1  0.68840000  0.90170000  0.59830000  1.0 -0.0198060522
C  C117  1  0.40170000  0.90170000  0.81160000  1.0 0.0402086308
C  C118  1  0.06160000  0.90170000  0.15170000  1.0 0.0402086308
C  C119  1  0.40170000  0.56160000  0.15170000  1.0 0.0402086308
C  C120  1  0.34830000  0.90170000  0.43840000  1.0 0.0402086308
C  C121  1  0.68840000  0.90170000  0.09830000  1.0 0.0402086308
C  C122  1  0.90170000  0.68840000  0.09830000  1.0 0.0402086308
C  C123  1  0.90170000  0.90170000  0.31160000  1.0 0.0402086308
C  C124  1  0.56160000  0.90170000  0.65170000  1.0 0.030270028
C  C125  1  0.90170000  0.18840000  0.59830000  1.0 0.0402086308
C  C126  1  0.90170000  0.56160000  0.65170000  1.0 0.0402086308
C  C127  1  0.84750000  0.84750000  0.86190000  1.0 -0.060824927
C  C128  1  0.84750000  0.90250000  0.38810000  1.0 -0.060824927
C  C129  1  0.40250000  0.90250000  0.36190000  1.0 -0.060824927
C  C130  1  0.40250000  0.84750000  0.88810000  1.0 -0.0498182274
C  C131  1  0.84750000  0.13810000  0.15250000  1.0 -0.1005296153
C  C132  1  0.40250000  0.61190000  0.65250000  1.0 -0.1309803506
C  C133  1  0.84750000  0.61190000  0.09750000  1.0 -0.060824927
C  C134  1  0.40250000  0.13810000  0.59750000  1.0 -0.1005296153
C  C135  1  0.13810000  0.84750000  0.15250000  1.0 -0.0498182274
C  C136  1  0.61190000  0.34750000  0.59750000  1.0 -0.1089221365
C  C137  1  0.61190000  0.90250000  0.15250000  1.0 -0.0704581999
C  C138  1  0.13810000  0.40250000  0.59750000  1.0 -0.1005296153
C  C139  1  0.84750000  0.34750000  0.36190000  1.0 -0.1005296153
C  C140  1  0.84750000  0.40250000  0.88810000  1.0 -0.0901309991
C  C141  1  0.40250000  0.40250000  0.86190000  1.0 -0.1005296153
C  C142  1  0.40250000  0.34750000  0.38810000  1.0 -0.1005296153
C  C143  1  0.84750000  0.63810000  0.65250000  1.0 -0.0498182274
C  C144  1  0.40250000  0.11190000  0.15250000  1.0 -0.0498182274
C  C145  1  0.84750000  0.11190000  0.59750000  1.0 -0.0498182274
C  C146  1  0.40250000  0.63810000  0.09750000  1.0 -0.0498182274
C  C147  1  0.13810000  0.34750000  0.65250000  1.0 -0.1005296153
C  C148  1  0.61190000  0.84750000  0.09750000  1.0 -0.0498182274
C  C149  1  0.61190000  0.40250000  0.65250000  1.0 -0.1309803506
C  C150  1  0.13810000  0.90250000  0.09750000  1.0 -0.0498182274
C  C151  1  0.34750000  0.84750000  0.36190000  1.0 -0.0498182274
C  C152  1  0.34750000  0.90250000  0.88810000  1.0 -0.0498182274
C  C153  1  0.90250000  0.90250000  0.86190000  1.0 -0.1005296153
C  C154  1  0.90250000  0.84750000  0.38810000  1.0 -0.0704581999
C  C155  1  0.34750000  0.13810000  0.65250000  1.0 -0.1089221365
C  C156  1  0.90250000  0.61190000  0.15250000  1.0 -0.0704581999
C  C157  1  0.34750000  0.61190000  0.59750000  1.0 -0.1089221365
C  C158  1  0.90250000  0.13810000  0.09750000  1.0 -0.1309803506
C  C159  1  0.63810000  0.84750000  0.65250000  1.0 -0.0498182274
C  C160  1  0.11190000  0.34750000  0.09750000  1.0 -0.0901309991
C  C161  1  0.11190000  0.90250000  0.65250000  1.0 -0.1005296153
C  C162  1  0.63810000  0.40250000  0.09750000  1.0 -0.1211009008
C  C163  1  0.34750000  0.34750000  0.86190000  1.0 -0.1005296153
C  C164  1  0.34750000  0.40250000  0.38810000  1.0 -0.1005296153
C  C165  1  0.90250000  0.40250000  0.36190000  1.0 -0.1309803506
C  C166  1  0.90250000  0.34750000  0.88810000  1.0 -0.1211009008
C  C167  1  0.34750000  0.63810000  0.15250000  1.0 -0.0498182274
C  C168  1  0.90250000  0.11190000  0.65250000  1.0 -0.0498182274
C  C169  1  0.34750000  0.11190000  0.09750000  1.0 -0.0498182274
C  C170  1  0.90250000  0.63810000  0.59750000  1.0 -0.060824927
C  C171  1  0.63810000  0.34750000  0.15250000  1.0 -0.1005296153
C  C172  1  0.11190000  0.84750000  0.59750000  1.0 -0.060824927
C  C173  1  0.11190000  0.40250000  0.15250000  1.0 -0.1089221365
C  C174  1  0.63810000  0.90250000  0.59750000  1.0 -0.0704581999
C  C175  1  0.40250000  0.90250000  0.86190000  1.0 -0.0098580336
C  C176  1  0.11190000  0.90250000  0.15250000  1.0 -0.0098580336
C  C177  1  0.40250000  0.61190000  0.15250000  1.0 -0.0037174041
C  C178  1  0.34750000  0.90250000  0.38810000  1.0 -0.0098580336
C  C179  1  0.63810000  0.90250000  0.09750000  1.0 -0.0098580336
C  C180  1  0.90250000  0.63810000  0.09750000  1.0 -0.0037174041
C  C181  1  0.90250000  0.90250000  0.36190000  1.0 -0.0098580336
C  C182  1  0.61190000  0.90250000  0.65250000  1.0 -0.0098580336
C  C183  1  0.90250000  0.13810000  0.59750000  1.0 -0.0037174041
C  C184  1  0.90250000  0.61190000  0.65250000  1.0 -0.0037174041
C  C185  1  0.87500000  0.87500000  0.87760000  1.0 0.0608908432
C  C186  1  0.87500000  0.87500000  0.37240000  1.0 -0.0498182274
C  C187  1  0.37500000  0.87500000  0.37760000  1.0 -0.0498182274
C  C188  1  0.37500000  0.87500000  0.87240000  1.0 -0.0498182274
C  C189  1  0.87500000  0.12240000  0.12500000  1.0 0.0700898352
C  C190  1  0.37500000  0.62760000  0.62500000  1.0 0.0764939702
C  C191  1  0.87500000  0.62760000  0.12500000  1.0 -0.0498182274
C  C192  1  0.37500000  0.12240000  0.62500000  1.0 0.0700898352
C  C193  1  0.12240000  0.87500000  0.12500000  1.0 -0.0410205348
C  C194  1  0.62760000  0.37500000  0.62500000  1.0 0.0764939702
C  C195  1  0.62760000  0.87500000  0.12500000  1.0 -0.0498182274
C  C196  1  0.12240000  0.37500000  0.62500000  1.0 0.0700898352
C  C197  1  0.87500000  0.37500000  0.37760000  1.0 0.0764939702
C  C198  1  0.87500000  0.37500000  0.87240000  1.0 0.0700898352
C  C199  1  0.37500000  0.37500000  0.87760000  1.0 0.0700898352
C  C200  1  0.37500000  0.37500000  0.37240000  1.0 0.0700898352
C  C201  1  0.87500000  0.62240000  0.62500000  1.0 -0.0498182274
C  C202  1  0.37500000  0.12760000  0.12500000  1.0 0.0608908432
C  C203  1  0.87500000  0.12760000  0.62500000  1.0 -0.0498182274
C  C204  1  0.37500000  0.62240000  0.12500000  1.0 -0.0498182274
C  C205  1  0.62240000  0.87500000  0.62500000  1.0 -0.0498182274
C  C206  1  0.12760000  0.37500000  0.12500000  1.0 0.0700898352
C  C207  1  0.12760000  0.87500000  0.62500000  1.0 0.0608908432
C  C208  1  0.62240000  0.37500000  0.12500000  1.0 0.0764939702
C  C209  1  0.37500000  0.87500000  0.87760000  1.0 -0.060824927
C  C210  1  0.12760000  0.87500000  0.12500000  1.0 -0.0498182274
C  C211  1  0.37500000  0.62760000  0.12500000  1.0 -0.060824927
C  C212  1  0.37500000  0.87500000  0.37240000  1.0 -0.060824927
C  C213  1  0.62240000  0.87500000  0.12500000  1.0 -0.060824927
C  C214  1  0.87500000  0.62240000  0.12500000  1.0 -0.060824927
C  C215  1  0.87500000  0.87500000  0.37760000  1.0 -0.060824927
C  C216  1  0.62760000  0.87500000  0.62500000  1.0 -0.060824927
C  C217  1  0.87500000  0.12240000  0.62500000  1.0 -0.060824927
C  C218  1  0.87500000  0.62760000  0.62500000  1.0 -0.060824927
C  C219  1  0.85180000  0.85180000  0.92920000  1.0 -0.0198060522
C  C220  1  0.85180000  0.89820000  0.32080000  1.0 -0.0098580336
C  C221  1  0.39820000  0.89820000  0.42920000  1.0 -0.0098580336
C  C222  1  0.39820000  0.85180000  0.82080000  1.0 -0.0198060522
C  C223  1  0.85180000  0.07080000  0.14820000  1.0 -0.0198060522
C  C224  1  0.39820000  0.67920000  0.64820000  1.0 -0.0198060522
C  C225  1  0.85180000  0.67920000  0.10180000  1.0 -0.0198060522
C  C226  1  0.39820000  0.07080000  0.60180000  1.0 -0.0098580336
C  C227  1  0.07080000  0.85180000  0.14820000  1.0 -0.0286543078
C  C228  1  0.67920000  0.35180000  0.60180000  1.0 -0.0198060522
C  C229  1  0.67920000  0.89820000  0.14820000  1.0 -0.0098580336
C  C230  1  0.07080000  0.39820000  0.60180000  1.0 -0.0198060522
C  C231  1  0.85180000  0.35180000  0.42920000  1.0 -0.0286543078
C  C232  1  0.85180000  0.39820000  0.82080000  1.0 -0.0286543078
C  C233  1  0.39820000  0.39820000  0.92920000  1.0 -0.0286543078
C  C234  1  0.39820000  0.35180000  0.32080000  1.0 -0.0198060522
C  C235  1  0.85180000  0.57080000  0.64820000  1.0 -0.0098580336
C  C236  1  0.39820000  0.17920000  0.14820000  1.0 -0.0498182274
C  C237  1  0.85180000  0.17920000  0.60180000  1.0 -0.0098580336
C  C238  1  0.39820000  0.57080000  0.10180000  1.0 -0.0098580336
C  C239  1  0.07080000  0.35180000  0.64820000  1.0 -0.0198060522
C  C240  1  0.67920000  0.85180000  0.10180000  1.0 -0.0098580336
C  C241  1  0.67920000  0.39820000  0.64820000  1.0 -0.0286543078
C  C242  1  0.07080000  0.89820000  0.10180000  1.0 -0.0098580336
C  C243  1  0.35180000  0.85180000  0.42920000  1.0 -0.0098580336
C  C244  1  0.35180000  0.89820000  0.82080000  1.0 -0.0098580336
C  C245  1  0.89820000  0.89820000  0.92920000  1.0 -0.0098580336
C  C246  1  0.89820000  0.85180000  0.32080000  1.0 -0.0198060522
C  C247  1  0.35180000  0.07080000  0.64820000  1.0 -0.0098580336
C  C248  1  0.89820000  0.67920000  0.14820000  1.0 -0.0198060522
C  C249  1  0.35180000  0.67920000  0.60180000  1.0 -0.0198060522
C  C250  1  0.89820000  0.07080000  0.10180000  1.0 -0.0098580336
C  C251  1  0.57080000  0.85180000  0.64820000  1.0 -0.0198060522
C  C252  1  0.17920000  0.35180000  0.10180000  1.0 -0.0410205348
C  C253  1  0.17920000  0.89820000  0.64820000  1.0 -0.0286543078
C  C254  1  0.57080000  0.39820000  0.10180000  1.0 -0.0410205348
C  C255  1  0.35180000  0.35180000  0.92920000  1.0 -0.0286543078
C  C256  1  0.35180000  0.39820000  0.32080000  1.0 -0.0286543078
C  C257  1  0.89820000  0.39820000  0.42920000  1.0 -0.0198060522
C  C258  1  0.89820000  0.35180000  0.82080000  1.0 -0.0198060522
C  C259  1  0.35180000  0.57080000  0.14820000  1.0 -0.0098580336
C  C260  1  0.89820000  0.17920000  0.64820000  1.0 -0.0098580336
C  C261  1  0.35180000  0.17920000  0.10180000  1.0 -0.0498182274
C  C262  1  0.89820000  0.57080000  0.60180000  1.0 -0.0098580336
C  C263  1  0.57080000  0.35180000  0.14820000  1.0 -0.0286543078
C  C264  1  0.17920000  0.85180000  0.60180000  1.0 -0.0286543078
C  C265  1  0.17920000  0.39820000  0.14820000  1.0 -0.0498182274
C  C266  1  0.57080000  0.89820000  0.60180000  1.0 -0.0098580336
C  C267  1  0.39820000  0.89820000  0.92920000  1.0 0.030270028
C  C268  1  0.17920000  0.89820000  0.14820000  1.0 0.030270028
C  C269  1  0.39820000  0.67920000  0.14820000  1.0 0.0402086308
C  C270  1  0.35180000  0.89820000  0.32080000  1.0 0.030270028
C  C271  1  0.57080000  0.89820000  0.10180000  1.0 0.030270028
C  C272  1  0.89820000  0.57080000  0.10180000  1.0 0.0402086308
C  C273  1  0.89820000  0.89820000  0.42920000  1.0 0.030270028
C  C274  1  0.67920000  0.89820000  0.64820000  1.0 0.0402086308
C  C275  1  0.89820000  0.07080000  0.60180000  1.0 0.0402086308
C  C276  1  0.89820000  0.67920000  0.64820000  1.0 0.0402086308
C  C277  1  0.87500000  0.87500000  0.96390000  1.0 -0.0901309991
C  C278  1  0.87500000  0.87500000  0.28610000  1.0 -0.0498182274
C  C279  1  0.37500000  0.87500000  0.46390000  1.0 -0.0498182274
C  C280  1  0.37500000  0.87500000  0.78610000  1.0 -0.0498182274
C  C281  1  0.87500000  0.03610000  0.12500000  1.0 -0.0901309991
C  C282  1  0.37500000  0.71390000  0.62500000  1.0 -0.0901309991
C  C283  1  0.87500000  0.71390000  0.12500000  1.0 -0.0410205348
C  C284  1  0.37500000  0.03610000  0.62500000  1.0 -0.1089221365
C  C285  1  0.03610000  0.87500000  0.12500000  1.0 -0.0498182274
C  C286  1  0.71390000  0.37500000  0.62500000  1.0 -0.0797041527
C  C287  1  0.71390000  0.87500000  0.12500000  1.0 -0.0410205348
C  C288  1  0.03610000  0.37500000  0.62500000  1.0 -0.0901309991
C  C289  1  0.87500000  0.37500000  0.46390000  1.0 -0.0797041527
C  C290  1  0.87500000  0.37500000  0.78610000  1.0 -0.0797041527
C  C291  1  0.37500000  0.37500000  0.96390000  1.0 -0.0704581999
C  C292  1  0.37500000  0.37500000  0.28610000  1.0 -0.0797041527
C  C293  1  0.87500000  0.53610000  0.62500000  1.0 -0.0410205348
C  C294  1  0.37500000  0.21390000  0.12500000  1.0 -0.060824927
C  C295  1  0.87500000  0.21390000  0.62500000  1.0 -0.0410205348
C  C296  1  0.37500000  0.53610000  0.12500000  1.0 -0.0498182274
C  C297  1  0.53610000  0.87500000  0.62500000  1.0 -0.0498182274
C  C298  1  0.21390000  0.37500000  0.12500000  1.0 -0.0704581999
C  C299  1  0.21390000  0.87500000  0.62500000  1.0 -0.0797041527
C  C300  1  0.53610000  0.37500000  0.12500000  1.0 -0.0797041527
C  C301  1  0.37500000  0.87500000  0.96390000  1.0 -0.0704581999
C  C302  1  0.21390000  0.87500000  0.12500000  1.0 -0.0704581999
C  C303  1  0.37500000  0.71390000  0.12500000  1.0 -0.0797041527
C  C304  1  0.37500000  0.87500000  0.28610000  1.0 -0.0797041527
C  C305  1  0.53610000  0.87500000  0.12500000  1.0 -0.0797041527
C  C306  1  0.87500000  0.53610000  0.12500000  1.0 -0.0797041527
C  C307  1  0.87500000  0.87500000  0.46390000  1.0 -0.0704581999
C  C308  1  0.71390000  0.87500000  0.62500000  1.0 -0.0704581999
C  C309  1  0.87500000  0.03610000  0.62500000  1.0 -0.0704581999
C  C310  1  0.87500000  0.71390000  0.62500000  1.0 -0.060824927
C  C311  1  0.87500000  0.87500000  0.01300000  1.0 0.540579227
C  C312  1  0.87500000  0.87500000  0.23700000  1.0 0.3186656072
C  C313  1  0.37500000  0.87500000  0.51300000  1.0 0.2887150003
C  C314  1  0.37500000  0.87500000  0.73700000  1.0 0.3085783227
C  C315  1  0.87500000  0.98700000  0.12500000  1.0 0.540579227
C  C316  1  0.37500000  0.76300000  0.62500000  1.0 0.540579227
C  C317  1  0.87500000  0.76300000  0.12500000  1.0 0.3085783227
C  C318  1  0.37500000  0.98700000  0.62500000  1.0 0.5483615233
C  C319  1  0.98700000  0.87500000  0.12500000  1.0 0.3186656072
C  C320  1  0.76300000  0.37500000  0.62500000  1.0 0.540579227
C  C321  1  0.76300000  0.87500000  0.12500000  1.0 0.280584865
C  C322  1  0.98700000  0.37500000  0.62500000  1.0 0.540579227
C  C323  1  0.87500000  0.37500000  0.51300000  1.0 0.540579227
C  C324  1  0.87500000  0.37500000  0.73700000  1.0 0.540579227
C  C325  1  0.37500000  0.37500000  0.01300000  1.0 0.5680119945
C  C326  1  0.37500000  0.37500000  0.23700000  1.0 0.5585740401
C  C327  1  0.87500000  0.48700000  0.62500000  1.0 0.280584865
C  C328  1  0.37500000  0.26300000  0.12500000  1.0 0.5585740401
C  C329  1  0.87500000  0.26300000  0.62500000  1.0 0.280584865
C  C330  1  0.37500000  0.48700000  0.12500000  1.0 0.2887150003
C  C331  1  0.48700000  0.87500000  0.62500000  1.0 0.3186656072
C  C332  1  0.26300000  0.37500000  0.12500000  1.0 0.5680119945
C  C333  1  0.26300000  0.87500000  0.62500000  1.0 0.540579227
C  C334  1  0.48700000  0.37500000  0.12500000  1.0 0.5585740401
C  C335  1  0.37500000  0.87500000  0.01300000  1.0 0.3390203341
C  C336  1  0.26300000  0.87500000  0.12500000  1.0 0.3390203341
C  C337  1  0.37500000  0.76300000  0.12500000  1.0 0.3513376965
C  C338  1  0.37500000  0.87500000  0.23700000  1.0 0.3390203341
C  C339  1  0.48700000  0.87500000  0.12500000  1.0 0.3390203341
C  C340  1  0.87500000  0.48700000  0.12500000  1.0 0.3390203341
C  C341  1  0.87500000  0.87500000  0.51300000  1.0 0.3309912576
C  C342  1  0.76300000  0.87500000  0.62500000  1.0 0.3309912576
C  C343  1  0.87500000  0.98700000  0.62500000  1.0 0.3390203341
C  C344  1  0.87500000  0.76300000  0.62500000  1.0 0.3085783227
C  C345  1  0.12500000  0.62500000  0.99010000  1.0 0.2481506818
C  C346  1  0.12500000  0.62500000  0.75990000  1.0 0.6291964349
C  C347  1  0.12500000  0.12500000  0.49010000  1.0 0.6613971417
C  C348  1  0.12500000  0.12500000  0.25990000  1.0 0.6613971417
C  C349  1  0.74010000  0.62500000  0.37500000  1.0 0.3390203341
C  C350  1  0.74010000  0.12500000  0.87500000  1.0 0.280584865
C  C351  1  0.50990000  0.12500000  0.87500000  1.0 0.6497332805
C  C352  1  0.50990000  0.62500000  0.37500000  1.0 0.6291964349
C  C353  1  0.12500000  0.74010000  0.87500000  1.0 0.2481506818
C  C354  1  0.12500000  0.50990000  0.87500000  1.0 0.6291964349
C  C355  1  0.62500000  0.24010000  0.87500000  1.0 0.6404713876
C  C356  1  0.12500000  0.00990000  0.37500000  1.0 0.6613971417
C  C357  1  0.12500000  0.24010000  0.37500000  1.0 0.6613971417
C  C358  1  0.62500000  0.74010000  0.37500000  1.0 0.3309912576
C  C359  1  0.62500000  0.62500000  0.49010000  1.0 0.239538814
C  C360  1  0.62500000  0.62500000  0.25990000  1.0 0.2608720987
C  C361  1  0.62500000  0.12500000  0.99010000  1.0 0.6404713876
C  C362  1  0.62500000  0.12500000  0.75990000  1.0 0.6404713876
C  C363  1  0.24010000  0.62500000  0.87500000  1.0 0.6291964349
C  C364  1  0.24010000  0.12500000  0.37500000  1.0 0.6613971417
C  C365  1  0.00990000  0.12500000  0.37500000  1.0 0.6613971417
C  C366  1  0.00990000  0.62500000  0.87500000  1.0 0.6200901025
C  C367  1  0.62500000  0.50990000  0.37500000  1.0 0.6200901025
C  C368  1  0.62500000  0.00990000  0.87500000  1.0 0.6404713876
C  C369  1  0.12500000  0.62500000  0.25990000  1.0 0.239538814
C  C370  1  0.12500000  0.00990000  0.87500000  1.0 0.2310846626
C  C371  1  0.00990000  0.62500000  0.37500000  1.0 0.3390203341
C  C372  1  0.62500000  0.62500000  0.99010000  1.0 0.2192343108
C  C373  1  0.62500000  0.00990000  0.37500000  1.0 0.3309912576
C  C374  1  0.62500000  0.62500000  0.75990000  1.0 0.2192343108
C  C375  1  0.00990000  0.12500000  0.87500000  1.0 0.2310846626
C  C376  1  0.12500000  0.62500000  0.04790000  1.0 -0.0797041527
C  C377  1  0.12500000  0.62500000  0.70210000  1.0 -0.1005296153
C  C378  1  0.12500000  0.12500000  0.54790000  1.0 -0.0901309991
C  C379  1  0.12500000  0.12500000  0.20210000  1.0 -0.0901309991
C  C380  1  0.79790000  0.62500000  0.37500000  1.0 -0.0797041527
C  C381  1  0.79790000  0.12500000  0.87500000  1.0 -0.0901309991
C  C382  1  0.45210000  0.12500000  0.87500000  1.0 -0.1005296153
C  C383  1  0.45210000  0.62500000  0.37500000  1.0 -0.1005296153
C  C384  1  0.12500000  0.79790000  0.87500000  1.0 -0.0797041527
C  C385  1  0.12500000  0.45210000  0.87500000  1.0 -0.1089221365
C  C386  1  0.62500000  0.29790000  0.87500000  1.0 -0.1005296153
C  C387  1  0.12500000  0.95210000  0.37500000  1.0 -0.0797041527
C  C388  1  0.12500000  0.29790000  0.37500000  1.0 -0.0901309991
C  C389  1  0.62500000  0.79790000  0.37500000  1.0 -0.0704581999
C  C390  1  0.62500000  0.62500000  0.54790000  1.0 -0.1089221365
C  C391  1  0.62500000  0.62500000  0.20210000  1.0 -0.1089221365
C  C392  1  0.62500000  0.12500000  0.04790000  1.0 -0.1005296153
C  C393  1  0.62500000  0.12500000  0.70210000  1.0 -0.0901309991
C  C394  1  0.29790000  0.62500000  0.87500000  1.0 -0.0901309991
C  C395  1  0.29790000  0.12500000  0.37500000  1.0 -0.0901309991
C  C396  1  0.95210000  0.12500000  0.37500000  1.0 -0.0901309991
C  C397  1  0.95210000  0.62500000  0.87500000  1.0 -0.0901309991
C  C398  1  0.62500000  0.45210000  0.37500000  1.0 -0.1005296153
C  C399  1  0.62500000  0.95210000  0.87500000  1.0 -0.0797041527
C  C400  1  0.12500000  0.62500000  0.20210000  1.0 -0.0797041527
C  C401  1  0.12500000  0.95210000  0.87500000  1.0 -0.0797041527
C  C402  1  0.95210000  0.62500000  0.37500000  1.0 -0.0704581999
C  C403  1  0.62500000  0.62500000  0.04790000  1.0 -0.0797041527
C  C404  1  0.62500000  0.95210000  0.37500000  1.0 -0.0704581999
C  C405  1  0.62500000  0.62500000  0.70210000  1.0 -0.0797041527
C  C406  1  0.95210000  0.12500000  0.87500000  1.0 -0.0901309991
C  C407  1  0.15170000  0.59830000  0.06160000  1.0 -0.0198060522
C  C408  1  0.09830000  0.59830000  0.68840000  1.0 0.0012669716
C  C409  1  0.09830000  0.15170000  0.56160000  1.0 0.0107503169
C  C410  1  0.15170000  0.15170000  0.18840000  1.0 0.0165775583
C  C411  1  0.81160000  0.59830000  0.40170000  1.0 0.0012669716
C  C412  1  0.81160000  0.15170000  0.84830000  1.0 -0.0098580336
C  C413  1  0.43840000  0.15170000  0.90170000  1.0 -0.0037174041
C  C414  1  0.43840000  0.59830000  0.34830000  1.0 -0.0037174041
C  C415  1  0.15170000  0.81160000  0.84830000  1.0 -0.0198060522
C  C416  1  0.15170000  0.43840000  0.90170000  1.0 -0.0098580336
C  C417  1  0.59830000  0.31160000  0.90170000  1.0 0.0012669716
C  C418  1  0.09830000  0.93840000  0.34830000  1.0 0.0165775583
C  C419  1  0.15170000  0.09830000  0.56160000  1.0 0.0165775583
C  C420  1  0.09830000  0.09830000  0.18840000  1.0 0.0107503169
C  C421  1  0.09830000  0.65170000  0.06160000  1.0 -0.0198060522
C  C422  1  0.15170000  0.65170000  0.68840000  1.0 -0.0037174041
C  C423  1  0.81160000  0.09830000  0.90170000  1.0 -0.0098580336
C  C424  1  0.81160000  0.65170000  0.34830000  1.0 -0.0098580336
C  C425  1  0.43840000  0.65170000  0.40170000  1.0 -0.0286543078
C  C426  1  0.43840000  0.09830000  0.84830000  1.0 0.0107503169
C  C427  1  0.15170000  0.31160000  0.34830000  1.0 0.0107503169
C  C428  1  0.15170000  0.93840000  0.40170000  1.0 0.0165775583
C  C429  1  0.59830000  0.81160000  0.40170000  1.0 0.0012669716
C  C430  1  0.09830000  0.43840000  0.84830000  1.0 0.0012669716
C  C431  1  0.65170000  0.59830000  0.56160000  1.0 -0.0198060522
C  C432  1  0.59830000  0.59830000  0.18840000  1.0 -0.0198060522
C  C433  1  0.59830000  0.15170000  0.06160000  1.0 0.0012669716
C  C434  1  0.65170000  0.15170000  0.68840000  1.0 -0.0037174041
C  C435  1  0.31160000  0.59830000  0.90170000  1.0 -0.0098580336
C  C436  1  0.31160000  0.15170000  0.34830000  1.0 0.0107503169
C  C437  1  0.93840000  0.15170000  0.40170000  1.0 0.0165775583
C  C438  1  0.93840000  0.59830000  0.84830000  1.0 -0.0037174041
C  C439  1  0.65170000  0.81160000  0.34830000  1.0 -0.0098580336
C  C440  1  0.65170000  0.43840000  0.40170000  1.0 -0.0198060522
C  C441  1  0.09830000  0.31160000  0.40170000  1.0 0.0107503169
C  C442  1  0.59830000  0.93840000  0.84830000  1.0 0.0107503169
C  C443  1  0.65170000  0.09830000  0.06160000  1.0 -0.0098580336
C  C444  1  0.59830000  0.09830000  0.68840000  1.0 0.0012669716
C  C445  1  0.59830000  0.65170000  0.56160000  1.0 -0.0198060522
C  C446  1  0.65170000  0.65170000  0.18840000  1.0 -0.0286543078
C  C447  1  0.31160000  0.09830000  0.40170000  1.0 0.0107503169
C  C448  1  0.31160000  0.65170000  0.84830000  1.0 -0.0098580336
C  C449  1  0.93840000  0.65170000  0.90170000  1.0 -0.0198060522
C  C450  1  0.93840000  0.09830000  0.34830000  1.0 0.0165775583
C  C451  1  0.65170000  0.31160000  0.84830000  1.0 -0.0098580336
C  C452  1  0.65170000  0.93840000  0.90170000  1.0 0.0012669716
C  C453  1  0.09830000  0.81160000  0.90170000  1.0 -0.0198060522
C  C454  1  0.59830000  0.43840000  0.34830000  1.0 -0.0098580336
C  C455  1  0.09830000  0.59830000  0.18840000  1.0 0.0402086308
C  C456  1  0.09830000  0.93840000  0.84830000  1.0 0.0402086308
C  C457  1  0.93840000  0.59830000  0.34830000  1.0 -0.0098580336
C  C458  1  0.65170000  0.59830000  0.06160000  1.0 0.0402086308
C  C459  1  0.65170000  0.93840000  0.40170000  1.0 -0.0098580336
C  C460  1  0.93840000  0.65170000  0.40170000  1.0 -0.0037174041
C  C461  1  0.59830000  0.59830000  0.68840000  1.0 0.0402086308
C  C462  1  0.59830000  0.93840000  0.34830000  1.0 -0.0098580336
C  C463  1  0.93840000  0.15170000  0.90170000  1.0 0.0402086308
C  C464  1  0.15250000  0.59750000  0.11190000  1.0 -0.0498182274
C  C465  1  0.09750000  0.59750000  0.63810000  1.0 -0.1089221365
C  C466  1  0.09750000  0.15250000  0.61190000  1.0 -0.1309803506
C  C467  1  0.15250000  0.15250000  0.13810000  1.0 -0.1005296153
C  C468  1  0.86190000  0.59750000  0.40250000  1.0 -0.0498182274
C  C469  1  0.86190000  0.15250000  0.84750000  1.0 -0.0498182274
C  C470  1  0.38810000  0.15250000  0.90250000  1.0 -0.1005296153
C  C471  1  0.38810000  0.59750000  0.34750000  1.0 -0.1005296153
C  C472  1  0.15250000  0.86190000  0.84750000  1.0 -0.0498182274
C  C473  1  0.15250000  0.38810000  0.90250000  1.0 -0.0901309991
C  C474  1  0.59750000  0.36190000  0.90250000  1.0 -0.0901309991
C  C475  1  0.09750000  0.88810000  0.34750000  1.0 -0.1399798588
C  C476  1  0.15250000  0.09750000  0.61190000  1.0 -0.1005296153
C  C477  1  0.09750000  0.09750000  0.13810000  1.0 -0.1211009008
C  C478  1  0.09750000  0.65250000  0.11190000  1.0 -0.0704581999
C  C479  1  0.15250000  0.65250000  0.63810000  1.0 -0.0901309991
C  C480  1  0.86190000  0.09750000  0.90250000  1.0 -0.0498182274
C  C481  1  0.86190000  0.65250000  0.34750000  1.0 -0.0498182274
C  C482  1  0.38810000  0.65250000  0.40250000  1.0 -0.0704581999
C  C483  1  0.38810000  0.09750000  0.84750000  1.0 -0.1309803506
C  C484  1  0.15250000  0.36190000  0.34750000  1.0 -0.1005296153
C  C485  1  0.15250000  0.88810000  0.40250000  1.0 -0.1309803506
C  C486  1  0.59750000  0.86190000  0.40250000  1.0 -0.0498182274
C  C487  1  0.09750000  0.38810000  0.84750000  1.0 -0.0901309991
C  C488  1  0.65250000  0.59750000  0.61190000  1.0 -0.0498182274
C  C489  1  0.59750000  0.59750000  0.13810000  1.0 -0.0704581999
C  C490  1  0.59750000  0.15250000  0.11190000  1.0 -0.0901309991
C  C491  1  0.65250000  0.15250000  0.63810000  1.0 -0.1005296153
C  C492  1  0.36190000  0.59750000  0.90250000  1.0 -0.1089221365
C  C493  1  0.36190000  0.15250000  0.34750000  1.0 -0.1005296153
C  C494  1  0.88810000  0.15250000  0.40250000  1.0 -0.1211009008
C  C495  1  0.88810000  0.59750000  0.84750000  1.0 -0.1005296153
C  C496  1  0.65250000  0.86190000  0.34750000  1.0 -0.0498182274
C  C497  1  0.65250000  0.38810000  0.40250000  1.0 -0.0704581999
C  C498  1  0.09750000  0.36190000  0.40250000  1.0 -0.1005296153
C  C499  1  0.59750000  0.88810000  0.84750000  1.0 -0.1510987146
C  C500  1  0.65250000  0.09750000  0.11190000  1.0 -0.1089221365
C  C501  1  0.59750000  0.09750000  0.63810000  1.0 -0.1211009008
C  C502  1  0.59750000  0.65250000  0.61190000  1.0 -0.0498182274
C  C503  1  0.65250000  0.65250000  0.13810000  1.0 -0.0498182274
C  C504  1  0.36190000  0.09750000  0.40250000  1.0 -0.1211009008
C  C505  1  0.36190000  0.65250000  0.84750000  1.0 -0.1005296153
C  C506  1  0.88810000  0.65250000  0.90250000  1.0 -0.0901309991
C  C507  1  0.88810000  0.09750000  0.34750000  1.0 -0.1211009008
C  C508  1  0.65250000  0.36190000  0.84750000  1.0 -0.0901309991
C  C509  1  0.65250000  0.88810000  0.90250000  1.0 -0.1309803506
C  C510  1  0.09750000  0.86190000  0.90250000  1.0 -0.0498182274
C  C511  1  0.59750000  0.38810000  0.34750000  1.0 -0.0704581999
C  C512  1  0.09750000  0.59750000  0.13810000  1.0 -0.0098580336
C  C513  1  0.09750000  0.88810000  0.84750000  1.0 -0.0098580336
C  C514  1  0.88810000  0.59750000  0.34750000  1.0 -0.060824927
C  C515  1  0.65250000  0.59750000  0.11190000  1.0 -0.0037174041
C  C516  1  0.65250000  0.88810000  0.40250000  1.0 -0.060824927
C  C517  1  0.88810000  0.65250000  0.40250000  1.0 -0.060824927
C  C518  1  0.59750000  0.59750000  0.63810000  1.0 -0.0037174041
C  C519  1  0.59750000  0.88810000  0.34750000  1.0 -0.060824927
C  C520  1  0.88810000  0.15250000  0.90250000  1.0 0.0012669716
C  C521  1  0.12500000  0.62500000  0.12760000  1.0 -0.0498182274
C  C522  1  0.12500000  0.62500000  0.62240000  1.0 0.0700898352
C  C523  1  0.12500000  0.12500000  0.62760000  1.0 0.0700898352
C  C524  1  0.12500000  0.12500000  0.12240000  1.0 0.0700898352
C  C525  1  0.87760000  0.62500000  0.37500000  1.0 -0.0098580336
C  C526  1  0.87760000  0.12500000  0.87500000  1.0 -0.0410205348
C  C527  1  0.37240000  0.12500000  0.87500000  1.0 0.0764939702
C  C528  1  0.37240000  0.62500000  0.37500000  1.0 0.0700898352
C  C529  1  0.12500000  0.87760000  0.87500000  1.0 -0.0498182274
C  C530  1  0.12500000  0.37240000  0.87500000  1.0 0.0700898352
C  C531  1  0.62500000  0.37760000  0.87500000  1.0 0.0700898352
C  C532  1  0.12500000  0.87240000  0.37500000  1.0 0.0764939702
C  C533  1  0.12500000  0.37760000  0.37500000  1.0 0.0700898352
C  C534  1  0.62500000  0.87760000  0.37500000  1.0 -0.0098580336
C  C535  1  0.62500000  0.62500000  0.62760000  1.0 -0.0498182274
C  C536  1  0.62500000  0.62500000  0.12240000  1.0 -0.0498182274
C  C537  1  0.62500000  0.12500000  0.12760000  1.0 0.0700898352
C  C538  1  0.62500000  0.12500000  0.62240000  1.0 0.0764939702
C  C539  1  0.37760000  0.62500000  0.87500000  1.0 0.0700898352
C  C540  1  0.37760000  0.12500000  0.37500000  1.0 0.0700898352
C  C541  1  0.87240000  0.12500000  0.37500000  1.0 0.0764939702
C  C542  1  0.87240000  0.62500000  0.87500000  1.0 0.0700898352
C  C543  1  0.62500000  0.37240000  0.37500000  1.0 0.0608908432
C  C544  1  0.62500000  0.87240000  0.87500000  1.0 0.0887632101
C  C545  1  0.12500000  0.62500000  0.12240000  1.0 -0.060824927
C  C546  1  0.12500000  0.87240000  0.87500000  1.0 -0.060824927
C  C547  1  0.87240000  0.62500000  0.37500000  1.0 -0.0098580336
C  C548  1  0.62500000  0.62500000  0.12760000  1.0 -0.060824927
C  C549  1  0.62500000  0.87240000  0.37500000  1.0 -0.0098580336
C  C550  1  0.62500000  0.62500000  0.62240000  1.0 -0.060824927
C  C551  1  0.87240000  0.12500000  0.87500000  1.0 -0.060824927
C  C552  1  0.14820000  0.60180000  0.17920000  1.0 -0.0098580336
C  C553  1  0.10180000  0.60180000  0.57080000  1.0 -0.0410205348
C  C554  1  0.10180000  0.14820000  0.67920000  1.0 -0.0198060522
C  C555  1  0.14820000  0.14820000  0.07080000  1.0 -0.0098580336
C  C556  1  0.92920000  0.60180000  0.39820000  1.0 0.0107503169
C  C557  1  0.92920000  0.14820000  0.85180000  1.0 -0.0098580336
C  C558  1  0.32080000  0.14820000  0.89820000  1.0 -0.0286543078
C  C559  1  0.32080000  0.60180000  0.35180000  1.0 -0.0498182274
C  C560  1  0.14820000  0.92920000  0.85180000  1.0 -0.0098580336
C  C561  1  0.14820000  0.32080000  0.89820000  1.0 -0.0286543078
C  C562  1  0.60180000  0.42920000  0.89820000  1.0 -0.0198060522
C  C563  1  0.10180000  0.82080000  0.35180000  1.0 -0.0198060522
C  C564  1  0.14820000  0.10180000  0.67920000  1.0 -0.0198060522
C  C565  1  0.10180000  0.10180000  0.07080000  1.0 -0.0286543078
C  C566  1  0.10180000  0.64820000  0.17920000  1.0 -0.0198060522
C  C567  1  0.14820000  0.64820000  0.57080000  1.0 -0.0198060522
C  C568  1  0.92920000  0.10180000  0.89820000  1.0 -0.0198060522
C  C569  1  0.92920000  0.64820000  0.35180000  1.0 0.0107503169
C  C570  1  0.32080000  0.64820000  0.39820000  1.0 -0.0410205348
C  C571  1  0.32080000  0.10180000  0.85180000  1.0 -0.0286543078
C  C572  1  0.14820000  0.42920000  0.35180000  1.0 -0.0198060522
C  C573  1  0.14820000  0.82080000  0.39820000  1.0 -0.0098580336
C  C574  1  0.60180000  0.92920000  0.39820000  1.0 0.0165775583
C  C575  1  0.10180000  0.32080000  0.85180000  1.0 -0.0410205348
C  C576  1  0.64820000  0.60180000  0.67920000  1.0 -0.0098580336
C  C577  1  0.60180000  0.60180000  0.07080000  1.0 -0.0098580336
C  C578  1  0.60180000  0.14820000  0.17920000  1.0 -0.0198060522
C  C579  1  0.64820000  0.14820000  0.57080000  1.0 -0.0198060522
C  C580  1  0.42920000  0.60180000  0.89820000  1.0 -0.0198060522
C  C581  1  0.42920000  0.14820000  0.35180000  1.0 -0.0198060522
C  C582  1  0.82080000  0.14820000  0.39820000  1.0 -0.0098580336
C  C583  1  0.82080000  0.60180000  0.85180000  1.0 -0.0198060522
C  C584  1  0.64820000  0.92920000  0.35180000  1.0 0.0165775583
C  C585  1  0.64820000  0.32080000  0.39820000  1.0 -0.0498182274
C  C586  1  0.10180000  0.42920000  0.39820000  1.0 -0.0198060522
C  C587  1  0.60180000  0.82080000  0.85180000  1.0 -0.0286543078
C  C588  1  0.64820000  0.10180000  0.17920000  1.0 -0.0410205348
C  C589  1  0.60180000  0.10180000  0.57080000  1.0 -0.0286543078
C  C590  1  0.60180000  0.64820000  0.67920000  1.0 -0.0098580336
C  C591  1  0.64820000  0.64820000  0.07080000  1.0 -0.0098580336
C  C592  1  0.42920000  0.10180000  0.39820000  1.0 -0.0198060522
C  C593  1  0.42920000  0.64820000  0.85180000  1.0 -0.0286543078
C  C594  1  0.82080000  0.64820000  0.89820000  1.0 -0.0286543078
C  C595  1  0.82080000  0.10180000  0.35180000  1.0 -0.0198060522
C  C596  1  0.64820000  0.42920000  0.85180000  1.0 -0.0198060522
C  C597  1  0.64820000  0.82080000  0.89820000  1.0 -0.0286543078
C  C598  1  0.10180000  0.92920000  0.89820000  1.0 -0.0198060522
C  C599  1  0.60180000  0.32080000  0.35180000  1.0 -0.0498182274
C  C600  1  0.10180000  0.60180000  0.07080000  1.0 0.0402086308
C  C601  1  0.10180000  0.82080000  0.85180000  1.0 0.0402086308
C  C602  1  0.82080000  0.60180000  0.35180000  1.0 0.0107503169
C  C603  1  0.64820000  0.60180000  0.17920000  1.0 0.030270028
C  C604  1  0.64820000  0.82080000  0.39820000  1.0 0.0107503169
C  C605  1  0.82080000  0.64820000  0.39820000  1.0 0.0107503169
C  C606  1  0.60180000  0.60180000  0.57080000  1.0 0.0465369905
C  C607  1  0.60180000  0.82080000  0.35180000  1.0 0.0165775583
C  C608  1  0.82080000  0.14820000  0.89820000  1.0 0.0465369905
C  C609  1  0.12500000  0.62500000  0.21390000  1.0 -0.0498182274
C  C610  1  0.12500000  0.62500000  0.53610000  1.0 -0.0797041527
C  C611  1  0.12500000  0.12500000  0.71390000  1.0 -0.0901309991
C  C612  1  0.12500000  0.12500000  0.03610000  1.0 -0.0797041527
C  C613  1  0.96390000  0.62500000  0.37500000  1.0 -0.0498182274
C  C614  1  0.96390000  0.12500000  0.87500000  1.0 -0.0498182274
C  C615  1  0.28610000  0.12500000  0.87500000  1.0 -0.0797041527
C  C616  1  0.28610000  0.62500000  0.37500000  1.0 -0.0797041527
C  C617  1  0.12500000  0.96390000  0.87500000  1.0 -0.0410205348
C  C618  1  0.12500000  0.28610000  0.87500000  1.0 -0.0797041527
C  C619  1  0.62500000  0.46390000  0.87500000  1.0 -0.0901309991
C  C620  1  0.12500000  0.78610000  0.37500000  1.0 -0.0704581999
C  C621  1  0.12500000  0.46390000  0.37500000  1.0 -0.0901309991
C  C622  1  0.62500000  0.96390000  0.37500000  1.0 -0.0286543078
C  C623  1  0.62500000  0.62500000  0.71390000  1.0 -0.0410205348
C  C624  1  0.62500000  0.62500000  0.03610000  1.0 -0.0410205348
C  C625  1  0.62500000  0.12500000  0.21390000  1.0 -0.0704581999
C  C626  1  0.62500000  0.12500000  0.53610000  1.0 -0.0704581999
C  C627  1  0.46390000  0.62500000  0.87500000  1.0 -0.0797041527
C  C628  1  0.46390000  0.12500000  0.37500000  1.0 -0.0704581999
C  C629  1  0.78610000  0.12500000  0.37500000  1.0 -0.0704581999
C  C630  1  0.78610000  0.62500000  0.87500000  1.0 -0.0797041527
C  C631  1  0.62500000  0.28610000  0.37500000  1.0 -0.0704581999
C  C632  1  0.62500000  0.78610000  0.87500000  1.0 -0.0797041527
C  C633  1  0.12500000  0.62500000  0.03610000  1.0 -0.060824927
C  C634  1  0.12500000  0.78610000  0.87500000  1.0 -0.060824927
C  C635  1  0.78610000  0.62500000  0.37500000  1.0 -0.0410205348
C  C636  1  0.62500000  0.62500000  0.21390000  1.0 -0.060824927
C  C637  1  0.62500000  0.78610000  0.37500000  1.0 -0.0410205348
C  C638  1  0.62500000  0.62500000  0.53610000  1.0 -0.0704581999
C  C639  1  0.78610000  0.12500000  0.87500000  1.0 -0.0704581999
C  C640  1  0.12500000  0.62500000  0.26300000  1.0 0.2989710722
C  C641  1  0.12500000  0.62500000  0.48700000  1.0 0.5483615233
C  C642  1  0.12500000  0.12500000  0.76300000  1.0 0.540579227
C  C643  1  0.12500000  0.12500000  0.98700000  1.0 0.540579227
C  C644  1  0.01300000  0.62500000  0.37500000  1.0 0.370341885
C  C645  1  0.01300000  0.12500000  0.87500000  1.0 0.2887150003
C  C646  1  0.23700000  0.12500000  0.87500000  1.0 0.5585740401
C  C647  1  0.23700000  0.62500000  0.37500000  1.0 0.5483615233
C  C648  1  0.12500000  0.01300000  0.87500000  1.0 0.2989710722
C  C649  1  0.12500000  0.23700000  0.87500000  1.0 0.5483615233
C  C650  1  0.62500000  0.51300000  0.87500000  1.0 0.540579227
C  C651  1  0.12500000  0.73700000  0.37500000  1.0 0.540579227
C  C652  1  0.12500000  0.51300000  0.37500000  1.0 0.540579227
C  C653  1  0.62500000  0.01300000  0.37500000  1.0 0.3634096139
C  C654  1  0.62500000  0.62500000  0.76300000  1.0 0.280584865
C  C655  1  0.62500000  0.62500000  0.98700000  1.0 0.280584865
C  C656  1  0.62500000  0.12500000  0.26300000  1.0 0.5483615233
C  C657  1  0.62500000  0.12500000  0.48700000  1.0 0.5483615233
C  C658  1  0.51300000  0.62500000  0.87500000  1.0 0.540579227
C  C659  1  0.51300000  0.12500000  0.37500000  1.0 0.5483615233
C  C660  1  0.73700000  0.12500000  0.37500000  1.0 0.5483615233
C  C661  1  0.73700000  0.62500000  0.87500000  1.0 0.540579227
C  C662  1  0.62500000  0.23700000  0.37500000  1.0 0.5483615233
C  C663  1  0.62500000  0.73700000  0.87500000  1.0 0.5483615233
C  C664  1  0.12500000  0.62500000  0.98700000  1.0 0.2989710722
C  C665  1  0.12500000  0.73700000  0.87500000  1.0 0.3085783227
C  C666  1  0.73700000  0.62500000  0.37500000  1.0 0.370341885
C  C667  1  0.62500000  0.62500000  0.26300000  1.0 0.3186656072
C  C668  1  0.62500000  0.73700000  0.37500000  1.0 0.370341885
C  C669  1  0.62500000  0.62500000  0.48700000  1.0 0.2989710722
C  C670  1  0.73700000  0.12500000  0.87500000  1.0 0.3390203341
O  O1  1  0.87500000  0.87500000  0.62500000  1.0 -0.7736081527
O  O2  1  0.37500000  0.87500000  0.12500000  1.0 -0.7465472267
O  O3  1  0.87500000  0.37500000  0.12500000  1.0 -0.9182195709
O  O4  1  0.37500000  0.37500000  0.62500000  1.0 -1.0764936254
O  O5  1  0.37500000  0.87500000  0.62500000  1.0 -0.8403335021
O  O6  1  0.87500000  0.87500000  0.12500000  1.0 -0.779502456
O  O7  1  0.37500000  0.37500000  0.12500000  1.0 -0.9324437426
O  O8  1  0.87500000  0.37500000  0.62500000  1.0 -0.8403335021
O  O9  1  0.84830000  0.84830000  0.72030000  1.0 -0.511257814
O  O10  1  0.84830000  0.90170000  0.52970000  1.0 -0.2401575465
O  O11  1  0.40170000  0.90170000  0.22030000  1.0 -0.2401575465
O  O12  1  0.40170000  0.84830000  0.02970000  1.0 -0.2401575465
O  O13  1  0.84830000  0.27970000  0.15170000  1.0 -0.5282562499
O  O14  1  0.40170000  0.47030000  0.65170000  1.0 -0.5205694423
O  O15  1  0.84830000  0.47030000  0.09830000  1.0 -0.2401575465
O  O16  1  0.40170000  0.27970000  0.59830000  1.0 -0.5282562499
O  O17  1  0.27970000  0.84830000  0.15170000  1.0 -0.2401575465
O  O18  1  0.47030000  0.34830000  0.59830000  1.0 -0.5205694423
O  O19  1  0.47030000  0.90170000  0.15170000  1.0 -0.2401575465
O  O20  1  0.27970000  0.40170000  0.59830000  1.0 -0.5282562499
O  O21  1  0.84830000  0.34830000  0.22030000  1.0 -0.5205694423
O  O22  1  0.84830000  0.40170000  0.02970000  1.0 -0.5379381464
O  O23  1  0.40170000  0.40170000  0.72030000  1.0 -0.5282562499
O  O24  1  0.40170000  0.34830000  0.52970000  1.0 -0.5282562499
O  O25  1  0.84830000  0.77970000  0.65170000  1.0 -0.2223936238
O  O26  1  0.40170000  0.97030000  0.15170000  1.0 -0.5205694423
O  O27  1  0.84830000  0.97030000  0.59830000  1.0 -0.2557368026
O  O28  1  0.40170000  0.77970000  0.09830000  1.0 -0.2293499739
O  O29  1  0.27970000  0.34830000  0.65170000  1.0 -0.5282562499
O  O30  1  0.47030000  0.84830000  0.09830000  1.0 -0.2520033689
O  O31  1  0.47030000  0.40170000  0.65170000  1.0 -0.5205694423
O  O32  1  0.27970000  0.90170000  0.09830000  1.0 -0.2293499739
O  O33  1  0.34830000  0.84830000  0.22030000  1.0 -0.2520033689
O  O34  1  0.34830000  0.90170000  0.02970000  1.0 -0.2293499739
O  O35  1  0.90170000  0.90170000  0.72030000  1.0 -0.4986329593
O  O36  1  0.90170000  0.84830000  0.52970000  1.0 -0.2223936238
O  O37  1  0.34830000  0.27970000  0.65170000  1.0 -0.5282562499
O  O38  1  0.90170000  0.47030000  0.15170000  1.0 -0.2401575465
O  O39  1  0.34830000  0.47030000  0.59830000  1.0 -0.5205694423
O  O40  1  0.90170000  0.27970000  0.09830000  1.0 -0.5205694423
O  O41  1  0.77970000  0.84830000  0.65170000  1.0 -0.2223936238
O  O42  1  0.97030000  0.34830000  0.09830000  1.0 -0.511257814
O  O43  1  0.97030000  0.90170000  0.65170000  1.0 -0.511257814
O  O44  1  0.77970000  0.40170000  0.09830000  1.0 -0.5282562499
O  O45  1  0.34830000  0.34830000  0.72030000  1.0 -0.5282562499
O  O46  1  0.34830000  0.40170000  0.52970000  1.0 -0.5282562499
O  O47  1  0.90170000  0.40170000  0.22030000  1.0 -0.5282562499
O  O48  1  0.90170000  0.34830000  0.02970000  1.0 -0.511257814
O  O49  1  0.34830000  0.77970000  0.15170000  1.0 -0.2293499739
O  O50  1  0.90170000  0.97030000  0.65170000  1.0 -0.2293499739
O  O51  1  0.34830000  0.97030000  0.09830000  1.0 -0.511257814
O  O52  1  0.90170000  0.77970000  0.59830000  1.0 -0.2293499739
O  O53  1  0.77970000  0.34830000  0.15170000  1.0 -0.5205694423
O  O54  1  0.97030000  0.84830000  0.59830000  1.0 -0.5205694423
O  O55  1  0.97030000  0.40170000  0.15170000  1.0 -0.5379381464
O  O56  1  0.77970000  0.90170000  0.59830000  1.0 -0.2401575465
O  O57  1  0.40170000  0.90170000  0.72030000  1.0 -0.0901309991
O  O58  1  0.97030000  0.90170000  0.15170000  1.0 -0.1005296153
O  O59  1  0.40170000  0.47030000  0.15170000  1.0 -0.0498182274
O  O60  1  0.34830000  0.90170000  0.52970000  1.0 -0.060824927
O  O61  1  0.77970000  0.90170000  0.09830000  1.0 -0.060824927
O  O62  1  0.90170000  0.77970000  0.09830000  1.0 -0.0704581999
O  O63  1  0.90170000  0.90170000  0.22030000  1.0 -0.0797041527
O  O64  1  0.47030000  0.90170000  0.65170000  1.0 -0.0797041527
O  O65  1  0.90170000  0.27970000  0.59830000  1.0 -0.060824927
O  O66  1  0.90170000  0.47030000  0.65170000  1.0 -0.060824927
O  O67  1  0.84920000  0.84920000  0.02920000  1.0 -0.4804078503
O  O68  1  0.84920000  0.90080000  0.22080000  1.0 -0.2021821336
O  O69  1  0.40080000  0.90080000  0.52920000  1.0 -0.2223936238
O  O70  1  0.40080000  0.84920000  0.72080000  1.0 -0.2104988428
O  O71  1  0.84920000  0.97080000  0.15080000  1.0 -0.4872262348
O  O72  1  0.40080000  0.77920000  0.65080000  1.0 -0.4986329593
O  O73  1  0.84920000  0.77920000  0.09920000  1.0 -0.2021821336
O  O74  1  0.40080000  0.97080000  0.59920000  1.0 -0.4986329593
O  O75  1  0.97080000  0.84920000  0.15080000  1.0 -0.2293499739
O  O76  1  0.77920000  0.34920000  0.59920000  1.0 -0.4872262348
O  O77  1  0.77920000  0.90080000  0.15080000  1.0 -0.2104988428
O  O78  1  0.97080000  0.40080000  0.59920000  1.0 -0.4804078503
O  O79  1  0.84920000  0.34920000  0.52920000  1.0 -0.4804078503
O  O80  1  0.84920000  0.40080000  0.72080000  1.0 -0.4872262348
O  O81  1  0.40080000  0.40080000  0.02920000  1.0 -0.4986329593
O  O82  1  0.40080000  0.34920000  0.22080000  1.0 -0.4872262348
O  O83  1  0.84920000  0.47080000  0.65080000  1.0 -0.2104988428
O  O84  1  0.40080000  0.27920000  0.15080000  1.0 -0.4986329593
O  O85  1  0.84920000  0.27920000  0.59920000  1.0 -0.2104988428
O  O86  1  0.40080000  0.47080000  0.09920000  1.0 -0.2104988428
O  O87  1  0.97080000  0.34920000  0.65080000  1.0 -0.4804078503
O  O88  1  0.77920000  0.84920000  0.09920000  1.0 -0.2104988428
O  O89  1  0.77920000  0.40080000  0.65080000  1.0 -0.4872262348
O  O90  1  0.97080000  0.90080000  0.09920000  1.0 -0.2104988428
O  O91  1  0.34920000  0.84920000  0.52920000  1.0 -0.2104988428
O  O92  1  0.34920000  0.90080000  0.72080000  1.0 -0.2104988428
O  O93  1  0.90080000  0.90080000  0.02920000  1.0 -0.4715864853
O  O94  1  0.90080000  0.84920000  0.22080000  1.0 -0.2104988428
O  O95  1  0.34920000  0.97080000  0.65080000  1.0 -0.4872262348
O  O96  1  0.90080000  0.77920000  0.15080000  1.0 -0.2104988428
O  O97  1  0.34920000  0.77920000  0.59920000  1.0 -0.4872262348
O  O98  1  0.90080000  0.97080000  0.09920000  1.0 -0.4804078503
O  O99  1  0.47080000  0.84920000  0.65080000  1.0 -0.2104988428
O  O100  1  0.27920000  0.34920000  0.09920000  1.0 -0.5205694423
O  O101  1  0.27920000  0.90080000  0.65080000  1.0 -0.4804078503
O  O102  1  0.47080000  0.40080000  0.09920000  1.0 -0.4986329593
O  O103  1  0.34920000  0.34920000  0.02920000  1.0 -0.5205694423
O  O104  1  0.34920000  0.40080000  0.22080000  1.0 -0.4986329593
O  O105  1  0.90080000  0.40080000  0.52920000  1.0 -0.4804078503
O  O106  1  0.90080000  0.34920000  0.72080000  1.0 -0.4804078503
O  O107  1  0.34920000  0.47080000  0.15080000  1.0 -0.2104988428
O  O108  1  0.90080000  0.27920000  0.65080000  1.0 -0.2104988428
O  O109  1  0.34920000  0.27920000  0.09920000  1.0 -0.5205694423
O  O110  1  0.90080000  0.47080000  0.59920000  1.0 -0.2104988428
O  O111  1  0.47080000  0.34920000  0.15080000  1.0 -0.4872262348
O  O112  1  0.27920000  0.84920000  0.59920000  1.0 -0.4804078503
O  O113  1  0.27920000  0.40080000  0.15080000  1.0 -0.4986329593
O  O114  1  0.47080000  0.90080000  0.59920000  1.0 -0.2104988428
O  O115  1  0.40080000  0.90080000  0.02920000  1.0 -0.0797041527
O  O116  1  0.27920000  0.90080000  0.15080000  1.0 -0.0797041527
O  O117  1  0.40080000  0.77920000  0.15080000  1.0 -0.0704581999
O  O118  1  0.34920000  0.90080000  0.22080000  1.0 -0.0901309991
O  O119  1  0.47080000  0.90080000  0.09920000  1.0 -0.0901309991
O  O120  1  0.90080000  0.47080000  0.09920000  1.0 -0.0901309991
O  O121  1  0.90080000  0.90080000  0.52920000  1.0 -0.0797041527
O  O122  1  0.77920000  0.90080000  0.65080000  1.0 -0.0704581999
O  O123  1  0.90080000  0.97080000  0.59920000  1.0 -0.1005296153
O  O124  1  0.90080000  0.77920000  0.65080000  1.0 -0.0704581999
O  O125  1  0.12500000  0.62500000  0.87500000  1.0 -0.8330608056
O  O126  1  0.12500000  0.12500000  0.37500000  1.0 -1.0764936254
O  O127  1  0.62500000  0.62500000  0.37500000  1.0 -0.7401026533
O  O128  1  0.62500000  0.12500000  0.87500000  1.0 -0.9182195709
O  O129  1  0.12500000  0.62500000  0.37500000  1.0 -0.8454384254
O  O130  1  0.12500000  0.12500000  0.87500000  1.0 -0.8403335021
O  O131  1  0.62500000  0.62500000  0.87500000  1.0 -0.8403335021
O  O132  1  0.62500000  0.12500000  0.37500000  1.0 -0.8403335021
O  O133  1  0.15170000  0.59830000  0.97030000  1.0 -0.2223936238
O  O134  1  0.09830000  0.59830000  0.77970000  1.0 -0.4986329593
O  O135  1  0.09830000  0.15170000  0.47030000  1.0 -0.5282562499
O  O136  1  0.15170000  0.15170000  0.27970000  1.0 -0.5282562499
O  O137  1  0.72030000  0.59830000  0.40170000  1.0 -0.1510987146
O  O138  1  0.72030000  0.15170000  0.84830000  1.0 -0.2401575465
O  O139  1  0.52970000  0.15170000  0.90170000  1.0 -0.511257814
O  O140  1  0.52970000  0.59830000  0.34830000  1.0 -0.4872262348
O  O141  1  0.15170000  0.72030000  0.84830000  1.0 -0.2223936238
O  O142  1  0.15170000  0.52970000  0.90170000  1.0 -0.5205694423
O  O143  1  0.59830000  0.22030000  0.90170000  1.0 -0.511257814
O  O144  1  0.09830000  0.02970000  0.34830000  1.0 -0.5205694423
O  O145  1  0.15170000  0.09830000  0.47030000  1.0 -0.5282562499
O  O146  1  0.09830000  0.09830000  0.27970000  1.0 -0.5282562499
O  O147  1  0.09830000  0.65170000  0.97030000  1.0 -0.2293499739
O  O148  1  0.15170000  0.65170000  0.77970000  1.0 -0.5205694423
O  O149  1  0.72030000  0.09830000  0.90170000  1.0 -0.2401575465
O  O150  1  0.72030000  0.65170000  0.34830000  1.0 -0.1720728473
O  O151  1  0.52970000  0.65170000  0.40170000  1.0 -0.4986329593
O  O152  1  0.52970000  0.09830000  0.84830000  1.0 -0.5282562499
O  O153  1  0.15170000  0.22030000  0.34830000  1.0 -0.5282562499
O  O154  1  0.15170000  0.02970000  0.40170000  1.0 -0.5205694423
O  O155  1  0.59830000  0.72030000  0.40170000  1.0 -0.1510987146
O  O156  1  0.09830000  0.52970000  0.84830000  1.0 -0.4986329593
O  O157  1  0.65170000  0.59830000  0.47030000  1.0 -0.2520033689
O  O158  1  0.59830000  0.59830000  0.27970000  1.0 -0.2293499739
O  O159  1  0.59830000  0.15170000  0.97030000  1.0 -0.511257814
O  O160  1  0.65170000  0.15170000  0.77970000  1.0 -0.5282562499
O  O161  1  0.22030000  0.59830000  0.90170000  1.0 -0.5205694423
O  O162  1  0.22030000  0.15170000  0.34830000  1.0 -0.5282562499
O  O163  1  0.02970000  0.15170000  0.40170000  1.0 -0.5282562499
O  O164  1  0.02970000  0.59830000  0.84830000  1.0 -0.4986329593
O  O165  1  0.65170000  0.72030000  0.34830000  1.0 -0.1720728473
O  O166  1  0.65170000  0.52970000  0.40170000  1.0 -0.511257814
O  O167  1  0.09830000  0.22030000  0.40170000  1.0 -0.5282562499
O  O168  1  0.59830000  0.02970000  0.84830000  1.0 -0.511257814
O  O169  1  0.65170000  0.09830000  0.97030000  1.0 -0.5379381464
O  O170  1  0.59830000  0.09830000  0.77970000  1.0 -0.5205694423
O  O171  1  0.59830000  0.65170000  0.47030000  1.0 -0.2401575465
O  O172  1  0.65170000  0.65170000  0.27970000  1.0 -0.2520033689
O  O173  1  0.22030000  0.09830000  0.40170000  1.0 -0.5282562499
O  O174  1  0.22030000  0.65170000  0.84830000  1.0 -0.5205694423
O  O175  1  0.02970000  0.65170000  0.90170000  1.0 -0.5379381464
O  O176  1  0.02970000  0.09830000  0.34830000  1.0 -0.5282562499
O  O177  1  0.65170000  0.22030000  0.84830000  1.0 -0.5379381464
O  O178  1  0.65170000  0.02970000  0.90170000  1.0 -0.5205694423
O  O179  1  0.09830000  0.72030000  0.90170000  1.0 -0.2293499739
O  O180  1  0.59830000  0.52970000  0.34830000  1.0 -0.4986329593
O  O181  1  0.09830000  0.59830000  0.27970000  1.0 -0.0704581999
O  O182  1  0.09830000  0.02970000  0.84830000  1.0 -0.0704581999
O  O183  1  0.02970000  0.59830000  0.34830000  1.0 -0.18167751
O  O184  1  0.65170000  0.59830000  0.97030000  1.0 -0.060824927
O  O185  1  0.65170000  0.02970000  0.40170000  1.0 -0.1510987146
O  O186  1  0.02970000  0.65170000  0.40170000  1.0 -0.1510987146
O  O187  1  0.59830000  0.59830000  0.77970000  1.0 -0.060824927
O  O188  1  0.59830000  0.02970000  0.34830000  1.0 -0.1510987146
O  O189  1  0.02970000  0.15170000  0.90170000  1.0 -0.0498182274
O  O190  1  0.15080000  0.59920000  0.27920000  1.0 -0.2021821336
O  O191  1  0.09920000  0.59920000  0.47080000  1.0 -0.4804078503
O  O192  1  0.09920000  0.15080000  0.77920000  1.0 -0.4804078503
O  O193  1  0.15080000  0.15080000  0.97080000  1.0 -0.4804078503
O  O194  1  0.02920000  0.59920000  0.40080000  1.0 -0.1309803506
O  O195  1  0.02920000  0.15080000  0.84920000  1.0 -0.2104988428
O  O196  1  0.22080000  0.15080000  0.90080000  1.0 -0.4872262348
O  O197  1  0.22080000  0.59920000  0.34920000  1.0 -0.4986329593
O  O198  1  0.15080000  0.02920000  0.84920000  1.0 -0.2021821336
O  O199  1  0.15080000  0.22080000  0.90080000  1.0 -0.4804078503
O  O200  1  0.59920000  0.52920000  0.90080000  1.0 -0.4804078503
O  O201  1  0.09920000  0.72080000  0.34920000  1.0 -0.4872262348
O  O202  1  0.15080000  0.09920000  0.77920000  1.0 -0.4804078503
O  O203  1  0.09920000  0.09920000  0.97080000  1.0 -0.4872262348
O  O204  1  0.09920000  0.65080000  0.27920000  1.0 -0.2021821336
O  O205  1  0.15080000  0.65080000  0.47080000  1.0 -0.4804078503
O  O206  1  0.02920000  0.09920000  0.90080000  1.0 -0.2223936238
O  O207  1  0.02920000  0.65080000  0.34920000  1.0 -0.1510987146
O  O208  1  0.22080000  0.65080000  0.40080000  1.0 -0.4872262348
O  O209  1  0.22080000  0.09920000  0.84920000  1.0 -0.4872262348
O  O210  1  0.15080000  0.52920000  0.34920000  1.0 -0.4872262348
O  O211  1  0.15080000  0.72080000  0.40080000  1.0 -0.4804078503
O  O212  1  0.59920000  0.02920000  0.40080000  1.0 -0.1309803506
O  O213  1  0.09920000  0.22080000  0.84920000  1.0 -0.4872262348
O  O214  1  0.65080000  0.59920000  0.77920000  1.0 -0.2104988428
O  O215  1  0.59920000  0.59920000  0.97080000  1.0 -0.2104988428
O  O216  1  0.59920000  0.15080000  0.27920000  1.0 -0.4804078503
O  O217  1  0.65080000  0.15080000  0.47080000  1.0 -0.4804078503
O  O218  1  0.52920000  0.59920000  0.90080000  1.0 -0.4804078503
O  O219  1  0.52920000  0.15080000  0.34920000  1.0 -0.4804078503
O  O220  1  0.72080000  0.15080000  0.40080000  1.0 -0.4715864853
O  O221  1  0.72080000  0.59920000  0.84920000  1.0 -0.4804078503
O  O222  1  0.65080000  0.02920000  0.34920000  1.0 -0.1309803506
O  O223  1  0.65080000  0.22080000  0.40080000  1.0 -0.4872262348
O  O224  1  0.09920000  0.52920000  0.40080000  1.0 -0.4804078503
O  O225  1  0.59920000  0.72080000  0.84920000  1.0 -0.4872262348
O  O226  1  0.65080000  0.09920000  0.27920000  1.0 -0.4804078503
O  O227  1  0.59920000  0.09920000  0.47080000  1.0 -0.4804078503
O  O228  1  0.59920000  0.65080000  0.77920000  1.0 -0.2104988428
O  O229  1  0.65080000  0.65080000  0.97080000  1.0 -0.2104988428
O  O230  1  0.52920000  0.09920000  0.40080000  1.0 -0.4804078503
O  O231  1  0.52920000  0.65080000  0.84920000  1.0 -0.4872262348
O  O232  1  0.72080000  0.65080000  0.90080000  1.0 -0.4872262348
O  O233  1  0.72080000  0.09920000  0.34920000  1.0 -0.4804078503
O  O234  1  0.65080000  0.52920000  0.84920000  1.0 -0.4804078503
O  O235  1  0.65080000  0.72080000  0.90080000  1.0 -0.4872262348
O  O236  1  0.09920000  0.02920000  0.90080000  1.0 -0.2021821336
O  O237  1  0.59920000  0.22080000  0.34920000  1.0 -0.4872262348
O  O238  1  0.09920000  0.59920000  0.97080000  1.0 -0.0797041527
O  O239  1  0.09920000  0.72080000  0.84920000  1.0 -0.0704581999
O  O240  1  0.72080000  0.59920000  0.34920000  1.0 -0.1510987146
O  O241  1  0.65080000  0.59920000  0.27920000  1.0 -0.0901309991
O  O242  1  0.65080000  0.72080000  0.40080000  1.0 -0.1564060197
O  O243  1  0.72080000  0.65080000  0.40080000  1.0 -0.1510987146
O  O244  1  0.59920000  0.59920000  0.47080000  1.0 -0.0797041527
O  O245  1  0.59920000  0.72080000  0.34920000  1.0 -0.1399798588
O  O246  1  0.72080000  0.15080000  0.90080000  1.0 -0.0901309991
