# DDEC6 charges by PACMAN v1.1 (https://github.com/mtap-research/PACMAN-charge/)
data_om701262m-file004_FSR_pacman
_symmetry_space_group_name_H-M   'P 1'
_cell_length_a   12.48680000
_cell_length_b   13.02550000
_cell_length_c   23.75550000
_cell_angle_alpha   90.00000000
_cell_angle_beta   90.00000000
_cell_angle_gamma   90.00000000
_symmetry_Int_Tables_number   1
_chemical_formula_structural   Zn2SiH16C28O9
_chemical_formula_sum   'Zn8 Si4 H64 C112 O36'
_cell_volume   3863.75637572
_cell_formula_units_Z   4
loop_
 _symmetry_equiv_pos_site_id
 _symmetry_equiv_pos_as_xyz
  1  'x, y, z'
loop_
 _atom_site_type_symbol
 _atom_site_label
 _atom_site_symmetry_multiplicity
 _atom_site_fract_x
 _atom_site_fract_y
 _atom_site_fract_z
 _atom_site_occupancy
 _atom_site_charge
Zn  Zn1  1  0.24070000  0.75000000  0.75000000  1.0 1.0014182941
Zn  Zn2  1  0.25930000  0.25000000  0.75000000  1.0 1.0014182941
Zn  Zn3  1  0.75930000  0.25000000  0.25000000  1.0 1.0014182941
Zn  Zn4  1  0.74070000  0.75000000  0.25000000  1.0 1.0014182941
Zn  Zn5  1  0.75000000  0.00000000  0.29852000  1.0 0.9275870339
Zn  Zn6  1  0.75000000  0.50000000  0.20148000  1.0 0.9275870339
Zn  Zn7  1  0.25000000  0.00000000  0.70148000  1.0 0.9275870339
Zn  Zn8  1  0.25000000  0.50000000  0.79852000  1.0 0.9275870339
Si  Si1  1  0.75000000  0.50000000  0.53842000  1.0 0.6467030262
Si  Si2  1  0.75000000  0.00000000  0.96158000  1.0 0.6467030262
Si  Si3  1  0.25000000  0.50000000  0.46158000  1.0 0.6467030262
Si  Si4  1  0.25000000  0.00000000  0.03842000  1.0 0.6447733656
H  H1  1  0.61350000  0.31010000  0.52600000  1.0 0.112409027
H  H2  1  0.88650000  0.68990000  0.52600000  1.0 0.112409027
H  H3  1  0.88650000  0.81010000  0.97400000  1.0 0.112409027
H  H4  1  0.61350000  0.18990000  0.97400000  1.0 0.112409027
H  H5  1  0.38650000  0.68990000  0.47400000  1.0 0.112409027
H  H6  1  0.11350000  0.31010000  0.47400000  1.0 0.112409027
H  H7  1  0.11350000  0.18990000  0.02600000  1.0 0.112409027
H  H8  1  0.38650000  0.81010000  0.02600000  1.0 0.112409027
H  H9  1  0.60590000  0.17690000  0.46080000  1.0 0.1207255588
H  H10  1  0.89410000  0.82310000  0.46080000  1.0 0.1207255588
H  H11  1  0.89410000  0.67690000  0.03920000  1.0 0.1207255588
H  H12  1  0.60590000  0.32310000  0.03920000  1.0 0.1207255588
H  H13  1  0.39410000  0.82310000  0.53920000  1.0 0.1207255588
H  H14  1  0.10590000  0.17690000  0.53920000  1.0 0.1207255588
H  H15  1  0.10590000  0.32310000  0.96080000  1.0 0.1207255588
H  H16  1  0.39410000  0.67690000  0.96080000  1.0 0.1207255588
H  H17  1  0.85660000  0.30000000  0.37580000  1.0 0.1207255588
H  H18  1  0.64340000  0.70000000  0.37580000  1.0 0.1207255588
H  H19  1  0.64340000  0.80000000  0.12420000  1.0 0.1207255588
H  H20  1  0.85660000  0.20000000  0.12420000  1.0 0.1207255588
H  H21  1  0.14340000  0.70000000  0.62420000  1.0 0.1207255588
H  H22  1  0.35660000  0.30000000  0.62420000  1.0 0.1207255588
H  H23  1  0.35660000  0.20000000  0.87580000  1.0 0.1207255588
H  H24  1  0.14340000  0.80000000  0.87580000  1.0 0.1207255588
H  H25  1  0.86580000  0.43120000  0.44230000  1.0 0.1207255588
H  H26  1  0.63420000  0.56880000  0.44230000  1.0 0.1207255588
H  H27  1  0.63420000  0.93120000  0.05770000  1.0 0.1207255588
H  H28  1  0.86580000  0.06880000  0.05770000  1.0 0.1207255588
H  H29  1  0.13420000  0.56880000  0.55770000  1.0 0.1207255588
H  H30  1  0.36580000  0.43120000  0.55770000  1.0 0.1207255588
H  H31  1  0.36580000  0.06880000  0.94230000  1.0 0.1207255588
H  H32  1  0.13420000  0.93120000  0.94230000  1.0 0.1207255588
H  H33  1  0.63300000  0.37750000  0.62300000  1.0 0.112409027
H  H34  1  0.86700000  0.62250000  0.62300000  1.0 0.112409027
H  H35  1  0.86700000  0.87750000  0.87700000  1.0 0.112409027
H  H36  1  0.63300000  0.12250000  0.87700000  1.0 0.112409027
H  H37  1  0.36700000  0.62250000  0.37700000  1.0 0.112409027
H  H38  1  0.13300000  0.37750000  0.37700000  1.0 0.112409027
H  H39  1  0.13300000  0.12250000  0.12300000  1.0 0.112409027
H  H40  1  0.36700000  0.87750000  0.12300000  1.0 0.112409027
H  H41  1  0.49990000  0.40890000  0.68910000  1.0 0.1352984921
H  H42  1  0.00010000  0.59110000  0.68910000  1.0 0.1352984921
H  H43  1  0.00010000  0.90890000  0.81090000  1.0 0.1352984921
H  H44  1  0.49990000  0.09110000  0.81090000  1.0 0.1352984921
H  H45  1  0.50010000  0.59110000  0.31090000  1.0 0.1352984921
H  H46  1  0.99990000  0.40890000  0.31090000  1.0 0.1352984921
H  H47  1  0.99990000  0.09110000  0.18910000  1.0 0.1352984921
H  H48  1  0.50010000  0.90890000  0.18910000  1.0 0.1352984921
H  H49  1  0.46770000  0.69800000  0.62970000  1.0 0.1207255588
H  H50  1  0.03230000  0.30200000  0.62970000  1.0 0.1207255588
H  H51  1  0.03230000  0.19800000  0.87030000  1.0 0.1207255588
H  H52  1  0.46770000  0.80200000  0.87030000  1.0 0.1207255588
H  H53  1  0.53230000  0.30200000  0.37030000  1.0 0.1207255588
H  H54  1  0.96770000  0.69800000  0.37030000  1.0 0.1207255588
H  H55  1  0.96770000  0.80200000  0.12970000  1.0 0.1207255588
H  H56  1  0.53230000  0.19800000  0.12970000  1.0 0.1207255588
H  H57  1  0.60030000  0.66630000  0.56310000  1.0 0.1207255588
H  H58  1  0.89970000  0.33370000  0.56310000  1.0 0.1207255588
H  H59  1  0.89970000  0.16630000  0.93690000  1.0 0.1207255588
H  H60  1  0.60030000  0.83370000  0.93690000  1.0 0.1207255588
H  H61  1  0.39970000  0.33370000  0.43690000  1.0 0.1207255588
H  H62  1  0.10030000  0.66630000  0.43690000  1.0 0.1207255588
H  H63  1  0.10030000  0.83370000  0.06310000  1.0 0.1207255588
H  H64  1  0.39970000  0.16630000  0.06310000  1.0 0.1207255588
C  C1  1  0.73900000  0.38640000  0.49050000  1.0 -0.210526178
C  C2  1  0.76100000  0.61360000  0.49050000  1.0 -0.210526178
C  C3  1  0.76100000  0.88640000  0.00950000  1.0 -0.210526178
C  C4  1  0.73900000  0.11360000  0.00950000  1.0 -0.210526178
C  C5  1  0.26100000  0.61360000  0.50950000  1.0 -0.210526178
C  C6  1  0.23900000  0.38640000  0.50950000  1.0 -0.210526178
C  C7  1  0.23900000  0.11360000  0.99050000  1.0 -0.210526178
C  C8  1  0.26100000  0.88640000  0.99050000  1.0 -0.210526178
C  C9  1  0.66280000  0.30870000  0.49549000  1.0 -0.0886942028
C  C10  1  0.83720000  0.69130000  0.49549000  1.0 -0.0886942028
C  C11  1  0.83720000  0.80870000  0.00451000  1.0 -0.0886942028
C  C12  1  0.66280000  0.19130000  0.00451000  1.0 -0.0886942028
C  C13  1  0.33720000  0.69130000  0.50451000  1.0 -0.0886942028
C  C14  1  0.16280000  0.30870000  0.50451000  1.0 -0.0886942028
C  C15  1  0.16280000  0.19130000  0.99549000  1.0 -0.0886942028
C  C16  1  0.33720000  0.80870000  0.99549000  1.0 -0.0886942028
C  C17  1  0.65790000  0.22960000  0.45660000  1.0 -0.0886942028
C  C18  1  0.84210000  0.77040000  0.45660000  1.0 -0.0886942028
C  C19  1  0.84210000  0.72960000  0.04340000  1.0 -0.0886942028
C  C20  1  0.65790000  0.27040000  0.04340000  1.0 -0.0886942028
C  C21  1  0.34210000  0.77040000  0.54340000  1.0 -0.0886942028
C  C22  1  0.15790000  0.22960000  0.54340000  1.0 -0.0886942028
C  C23  1  0.15790000  0.27040000  0.95660000  1.0 -0.0886942028
C  C24  1  0.34210000  0.72960000  0.95660000  1.0 -0.0886942028
C  C25  1  0.72910000  0.22680000  0.41129000  1.0 -0.0094319412
C  C26  1  0.77090000  0.77320000  0.41129000  1.0 -0.0094319412
C  C27  1  0.77090000  0.72680000  0.08871000  1.0 -0.0094319412
C  C28  1  0.72910000  0.27320000  0.08871000  1.0 -0.0094319412
C  C29  1  0.27090000  0.77320000  0.58871000  1.0 -0.0094319412
C  C30  1  0.22910000  0.22680000  0.58871000  1.0 -0.0094319412
C  C31  1  0.22910000  0.27320000  0.91129000  1.0 -0.0094319412
C  C32  1  0.27090000  0.72680000  0.91129000  1.0 -0.0094319412
C  C33  1  0.80700000  0.30200000  0.40609000  1.0 -0.0886942028
C  C34  1  0.69300000  0.69800000  0.40609000  1.0 -0.0886942028
C  C35  1  0.69300000  0.80200000  0.09391000  1.0 -0.0886942028
C  C36  1  0.80700000  0.19800000  0.09391000  1.0 -0.0886942028
C  C37  1  0.19300000  0.69800000  0.59391000  1.0 -0.0886942028
C  C38  1  0.30700000  0.30200000  0.59391000  1.0 -0.0886942028
C  C39  1  0.30700000  0.19800000  0.90609000  1.0 -0.0886942028
C  C40  1  0.19300000  0.80200000  0.90609000  1.0 -0.0886942028
C  C41  1  0.81170000  0.38030000  0.44568000  1.0 -0.0808385049
C  C42  1  0.68830000  0.61970000  0.44568000  1.0 -0.0808385049
C  C43  1  0.68830000  0.88030000  0.05432000  1.0 -0.0808385049
C  C44  1  0.81170000  0.11970000  0.05432000  1.0 -0.0808385049
C  C45  1  0.18830000  0.61970000  0.55432000  1.0 -0.0808385049
C  C46  1  0.31170000  0.38030000  0.55432000  1.0 -0.0808385049
C  C47  1  0.31170000  0.11970000  0.94568000  1.0 -0.0808385049
C  C48  1  0.18830000  0.88030000  0.94568000  1.0 -0.0808385049
C  C49  1  0.71910000  0.14440000  0.36812000  1.0 0.5819147245
C  C50  1  0.78090000  0.85560000  0.36812000  1.0 0.5819147245
C  C51  1  0.78090000  0.64440000  0.13188000  1.0 0.5819147245
C  C52  1  0.71910000  0.35560000  0.13188000  1.0 0.5819147245
C  C53  1  0.28090000  0.85560000  0.63188000  1.0 0.5819147245
C  C54  1  0.21910000  0.14440000  0.63188000  1.0 0.5819147245
C  C55  1  0.21910000  0.35560000  0.86812000  1.0 0.5819147245
C  C56  1  0.28090000  0.64440000  0.86812000  1.0 0.5819147245
C  C57  1  0.63240000  0.51880000  0.58606000  1.0 -0.210526178
C  C58  1  0.86760000  0.48120000  0.58606000  1.0 -0.210526178
C  C59  1  0.86760000  0.01880000  0.91394000  1.0 -0.210526178
C  C60  1  0.63240000  0.98120000  0.91394000  1.0 -0.210526178
C  C61  1  0.36760000  0.48120000  0.41394000  1.0 -0.210526178
C  C62  1  0.13240000  0.51880000  0.41394000  1.0 -0.210526178
C  C63  1  0.13240000  0.98120000  0.08606000  1.0 -0.210526178
C  C64  1  0.36760000  0.01880000  0.08606000  1.0 -0.210526178
C  C65  1  0.59990000  0.44310000  0.62422000  1.0 -0.0808385049
C  C66  1  0.90010000  0.55690000  0.62422000  1.0 -0.0808385049
C  C67  1  0.90010000  0.94310000  0.87578000  1.0 -0.0808385049
C  C68  1  0.59990000  0.05690000  0.87578000  1.0 -0.0808385049
C  C69  1  0.40010000  0.55690000  0.37578000  1.0 -0.0808385049
C  C70  1  0.09990000  0.44310000  0.37578000  1.0 -0.0808385049
C  C71  1  0.09990000  0.05690000  0.12422000  1.0 -0.0808385049
C  C72  1  0.40010000  0.94310000  0.12422000  1.0 -0.0808385049
C  C73  1  0.52070000  0.46170000  0.66366000  1.0 -0.0886942028
C  C74  1  0.97930000  0.53830000  0.66366000  1.0 -0.0886942028
C  C75  1  0.97930000  0.96170000  0.83634000  1.0 -0.0886942028
C  C76  1  0.52070000  0.03830000  0.83634000  1.0 -0.0886942028
C  C77  1  0.47930000  0.53830000  0.33634000  1.0 -0.0886942028
C  C78  1  0.02070000  0.46170000  0.33634000  1.0 -0.0886942028
C  C79  1  0.02070000  0.03830000  0.16366000  1.0 -0.0886942028
C  C80  1  0.47930000  0.96170000  0.16366000  1.0 -0.0886942028
C  C81  1  0.47130000  0.55710000  0.66618000  1.0 -0.0094319412
C  C82  1  0.02870000  0.44290000  0.66618000  1.0 -0.0094319412
C  C83  1  0.02870000  0.05710000  0.83382000  1.0 -0.0094319412
C  C84  1  0.47130000  0.94290000  0.83382000  1.0 -0.0094319412
C  C85  1  0.52870000  0.44290000  0.33382000  1.0 -0.0094319412
C  C86  1  0.97130000  0.55710000  0.33382000  1.0 -0.0094319412
C  C87  1  0.97130000  0.94290000  0.16618000  1.0 -0.0094319412
C  C88  1  0.52870000  0.05710000  0.16618000  1.0 -0.0094319412
C  C89  1  0.50150000  0.63270000  0.62850000  1.0 -0.0886942028
C  C90  1  0.99850000  0.36730000  0.62850000  1.0 -0.0886942028
C  C91  1  0.99850000  0.13270000  0.87150000  1.0 -0.0886942028
C  C92  1  0.50150000  0.86730000  0.87150000  1.0 -0.0886942028
C  C93  1  0.49850000  0.36730000  0.37150000  1.0 -0.0886942028
C  C94  1  0.00150000  0.63270000  0.37150000  1.0 -0.0886942028
C  C95  1  0.00150000  0.86730000  0.12850000  1.0 -0.0886942028
C  C96  1  0.49850000  0.13270000  0.12850000  1.0 -0.0886942028
C  C97  1  0.58080000  0.61370000  0.58886000  1.0 -0.0808385049
C  C98  1  0.91920000  0.38630000  0.58886000  1.0 -0.0808385049
C  C99  1  0.91920000  0.11370000  0.91114000  1.0 -0.0808385049
C  C100  1  0.58080000  0.88630000  0.91114000  1.0 -0.0808385049
C  C101  1  0.41920000  0.38630000  0.41114000  1.0 -0.0808385049
C  C102  1  0.08080000  0.61370000  0.41114000  1.0 -0.0808385049
C  C103  1  0.08080000  0.88630000  0.08886000  1.0 -0.0808385049
C  C104  1  0.41920000  0.11370000  0.08886000  1.0 -0.0808385049
C  C105  1  0.38620000  0.57790000  0.70955000  1.0 0.6018940971
C  C106  1  0.11380000  0.42210000  0.70955000  1.0 0.6018940971
C  C107  1  0.11380000  0.07790000  0.79045000  1.0 0.6018940971
C  C108  1  0.38620000  0.92210000  0.79045000  1.0 0.6018940971
C  C109  1  0.61380000  0.42210000  0.29045000  1.0 0.6018940971
C  C110  1  0.88620000  0.57790000  0.29045000  1.0 0.6018940971
C  C111  1  0.88620000  0.92210000  0.20955000  1.0 0.6018940971
C  C112  1  0.61380000  0.07790000  0.20955000  1.0 0.6018940971
O  O1  1  0.77780000  0.14939000  0.32341000  1.0 -0.537981747
O  O2  1  0.72220000  0.85061000  0.32341000  1.0 -0.537981747
O  O3  1  0.72220000  0.64939000  0.17659000  1.0 -0.537981747
O  O4  1  0.77780000  0.35061000  0.17659000  1.0 -0.537981747
O  O5  1  0.22220000  0.85061000  0.67659000  1.0 -0.537981747
O  O6  1  0.27780000  0.14939000  0.67659000  1.0 -0.537981747
O  O7  1  0.27780000  0.35061000  0.82341000  1.0 -0.537981747
O  O8  1  0.22220000  0.64939000  0.82341000  1.0 -0.537981747
O  O9  1  0.65770000  0.07030000  0.37567000  1.0 -0.4869584426
O  O10  1  0.84230000  0.92970000  0.37567000  1.0 -0.4869584426
O  O11  1  0.84230000  0.57030000  0.12433000  1.0 -0.4869584426
O  O12  1  0.65770000  0.42970000  0.12433000  1.0 -0.4869584426
O  O13  1  0.34230000  0.92970000  0.62433000  1.0 -0.4869584426
O  O14  1  0.15770000  0.07030000  0.62433000  1.0 -0.4869584426
O  O15  1  0.15770000  0.42970000  0.87567000  1.0 -0.4869584426
O  O16  1  0.34230000  0.57030000  0.87567000  1.0 -0.4869584426
O  O17  1  0.33891000  0.66292000  0.70685000  1.0 -0.5461672529
O  O18  1  0.16109000  0.33708000  0.70685000  1.0 -0.5461672529
O  O19  1  0.16109000  0.16292000  0.79315000  1.0 -0.5461672529
O  O20  1  0.33891000  0.83708000  0.79315000  1.0 -0.5461672529
O  O21  1  0.66109000  0.33708000  0.29315000  1.0 -0.5461672529
O  O22  1  0.83891000  0.66292000  0.29315000  1.0 -0.5461672529
O  O23  1  0.83891000  0.83708000  0.20685000  1.0 -0.5461672529
O  O24  1  0.66109000  0.16292000  0.20685000  1.0 -0.5461672529
O  O25  1  0.37030000  0.50861000  0.74518000  1.0 -0.4966284617
O  O26  1  0.12970000  0.49139000  0.74518000  1.0 -0.4966284617
O  O27  1  0.12970000  0.00861000  0.75482000  1.0 -0.4966284617
O  O28  1  0.37030000  0.99139000  0.75482000  1.0 -0.4966284617
O  O29  1  0.62970000  0.49139000  0.25482000  1.0 -0.4966284617
O  O30  1  0.87030000  0.50861000  0.25482000  1.0 -0.4966284617
O  O31  1  0.87030000  0.99139000  0.24518000  1.0 -0.4966284617
O  O32  1  0.62970000  0.00861000  0.24518000  1.0 -0.4966284617
O  O33  1  0.08450000  0.75000000  0.75000000  1.0 -0.4830549195
O  O34  1  0.41550000  0.25000000  0.75000000  1.0 -0.4830549195
O  O35  1  0.91550000  0.25000000  0.25000000  1.0 -0.4830549195
O  O36  1  0.58450000  0.75000000  0.25000000  1.0 -0.4830549195
