# DDEC6 charges by PACMAN v1.1 (https://github.com/mtap-research/PACMAN-charge/)
data_2022[Zn][nan]3[ASR]2
_chemical_formula_sum              "Zn24 H224 C304 N112 O68"
_cell_length_a       26.1307
_cell_length_b       26.1307
_cell_length_c       20.4822
_cell_angle_alpha    90
_cell_angle_beta     90
_cell_angle_gamma    90

_symmetry_space_group_name_H-M    "P 1"
_symmetry_Int_Tables_number       1

loop_
  _symmetry_equiv_pos_as_xyz
  'x, y, z'

loop_
  _atom_site_type_symbol
  _atom_site_label
  _atom_site_symmetry_multiplicity
  _atom_site_fract_x
  _atom_site_fract_y
  _atom_site_fract_z
  _atom_site_occupancy
  _atom_site_charge
Zn  Zn1       1.0  0.04951  0.46863  0.31120  1.0000 0.7880681742
Zn  Zn2       1.0  0.95049  0.53137  0.31120  1.0000 0.7880681742
Zn  Zn3       1.0  0.46863  0.95049  0.31120  1.0000 0.7880681742
Zn  Zn4       1.0  0.53137  0.04951  0.31120  1.0000 0.7880681742
Zn  Zn5       1.0  0.04951  0.53137  0.68880  1.0000 0.7880681742
Zn  Zn6       1.0  0.95049  0.46863  0.68880  1.0000 0.7880681742
Zn  Zn7       1.0  0.46863  0.04951  0.68880  1.0000 0.7880681742
Zn  Zn8       1.0  0.53137  0.95049  0.68880  1.0000 0.7880681742
Zn  Zn9       1.0  0.45049  0.03137  0.18880  1.0000 0.7880681742
Zn  Zn10      1.0  0.54951  0.96863  0.18880  1.0000 0.7880681742
Zn  Zn11      1.0  0.03137  0.54951  0.18880  1.0000 0.7880681742
Zn  Zn12      1.0  0.96863  0.45049  0.18880  1.0000 0.7880681742
Zn  Zn13      1.0  0.45049  0.96863  0.81120  1.0000 0.7880681742
Zn  Zn14      1.0  0.54951  0.03137  0.81120  1.0000 0.7880681742
Zn  Zn15      1.0  0.03137  0.45049  0.81120  1.0000 0.7880681742
Zn  Zn16      1.0  0.96863  0.54951  0.81120  1.0000 0.7880681742
Zn  Zn17      1.0  0.50000  0.19448  0.00000  1.0000 0.7752969105
Zn  Zn18      1.0  0.50000  0.80552  0.00000  1.0000 0.7752969105
Zn  Zn19      1.0  0.19448  0.50000  0.00000  1.0000 0.7752969105
Zn  Zn20      1.0  0.80552  0.50000  0.00000  1.0000 0.7752969105
Zn  Zn21      1.0  0.00000  0.30552  0.50000  1.0000 0.7752969105
Zn  Zn22      1.0  0.00000  0.69448  0.50000  1.0000 0.7752969105
Zn  Zn23      1.0  0.30552  0.00000  0.50000  1.0000 0.7752969105
Zn  Zn24      1.0  0.69448  0.00000  0.50000  1.0000 0.7752969105
H   H1        1.0  0.04765  0.36086  0.38602  1.0000 0.1134532009
H   H2        1.0  0.95235  0.63914  0.38602  1.0000 0.1134532009
H   H3        1.0  0.36086  0.95235  0.38602  1.0000 0.1134532009
H   H4        1.0  0.63914  0.04765  0.38602  1.0000 0.1134532009
H   H5        1.0  0.04765  0.63914  0.61398  1.0000 0.1134532009
H   H6        1.0  0.95235  0.36086  0.61398  1.0000 0.1134532009
H   H7        1.0  0.36086  0.04765  0.61398  1.0000 0.1134532009
H   H8        1.0  0.63914  0.95235  0.61398  1.0000 0.1134532009
H   H9        1.0  0.45235  0.13914  0.11398  1.0000 0.1134532009
H   H10       1.0  0.54765  0.86086  0.11398  1.0000 0.1134532009
H   H11       1.0  0.13914  0.54765  0.11398  1.0000 0.1134532009
H   H12       1.0  0.86086  0.45235  0.11398  1.0000 0.1134532009
H   H13       1.0  0.45235  0.86086  0.88602  1.0000 0.1134532009
H   H14       1.0  0.54765  0.13914  0.88602  1.0000 0.1134532009
H   H15       1.0  0.13914  0.45235  0.88602  1.0000 0.1134532009
H   H16       1.0  0.86086  0.54765  0.88602  1.0000 0.1134532009
H   H17       1.0  0.84132  0.36389  0.50882  1.0000 0.3169305016
H   H18       1.0  0.15868  0.63611  0.50882  1.0000 0.3169305016
H   H19       1.0  0.36389  0.15868  0.50882  1.0000 0.3169305016
H   H20       1.0  0.63611  0.84132  0.50882  1.0000 0.3169305016
H   H21       1.0  0.84132  0.63611  0.49118  1.0000 0.3169305016
H   H22       1.0  0.15868  0.36389  0.49118  1.0000 0.3169305016
H   H23       1.0  0.36389  0.84132  0.49118  1.0000 0.3169305016
H   H24       1.0  0.63611  0.15868  0.49118  1.0000 0.3169305016
H   H25       1.0  0.65868  0.13611  0.99118  1.0000 0.3169305016
H   H26       1.0  0.34132  0.86389  0.99118  1.0000 0.3169305016
H   H27       1.0  0.13611  0.34132  0.99118  1.0000 0.3169305016
H   H28       1.0  0.86389  0.65868  0.99118  1.0000 0.3169305016
H   H29       1.0  0.65868  0.86389  0.00882  1.0000 0.3169305016
H   H30       1.0  0.34132  0.13611  0.00882  1.0000 0.3169305016
H   H31       1.0  0.13611  0.65868  0.00882  1.0000 0.3169305016
H   H32       1.0  0.86389  0.34132  0.00882  1.0000 0.3169305016
H   H33       1.0  0.88794  0.33182  0.50006  1.0000 0.3169305016
H   H34       1.0  0.11206  0.66818  0.50006  1.0000 0.3169305016
H   H35       1.0  0.33182  0.11206  0.50006  1.0000 0.3169305016
H   H36       1.0  0.66818  0.88794  0.50006  1.0000 0.3169305016
H   H37       1.0  0.88794  0.66818  0.49994  1.0000 0.3169305016
H   H38       1.0  0.11206  0.33182  0.49994  1.0000 0.3169305016
H   H39       1.0  0.33182  0.88794  0.49994  1.0000 0.3169305016
H   H40       1.0  0.66818  0.11206  0.49994  1.0000 0.3169305016
H   H41       1.0  0.61206  0.16818  0.99994  1.0000 0.3169305016
H   H42       1.0  0.38794  0.83182  0.99994  1.0000 0.3169305016
H   H43       1.0  0.16818  0.38794  0.99994  1.0000 0.3169305016
H   H44       1.0  0.83182  0.61206  0.99994  1.0000 0.3169305016
H   H45       1.0  0.61206  0.83182  0.00006  1.0000 0.3169305016
H   H46       1.0  0.38794  0.16818  0.00006  1.0000 0.3169305016
H   H47       1.0  0.16818  0.61206  0.00006  1.0000 0.3169305016
H   H48       1.0  0.83182  0.38794  0.00006  1.0000 0.3169305016
H   H49       1.0  0.17865  0.42987  0.18561  1.0000 0.1368707258
H   H50       1.0  0.82135  0.57013  0.18561  1.0000 0.1368707258
H   H51       1.0  0.42987  0.82135  0.18561  1.0000 0.1368707258
H   H52       1.0  0.57013  0.17865  0.18561  1.0000 0.1368707258
H   H53       1.0  0.17865  0.57013  0.81439  1.0000 0.1368707258
H   H54       1.0  0.82135  0.42987  0.81439  1.0000 0.1368707258
H   H55       1.0  0.42987  0.17865  0.81439  1.0000 0.1368707258
H   H56       1.0  0.57013  0.82135  0.81439  1.0000 0.1368707258
H   H57       1.0  0.32135  0.07013  0.31439  1.0000 0.1368707258
H   H58       1.0  0.67865  0.92987  0.31439  1.0000 0.1368707258
H   H59       1.0  0.07013  0.67865  0.31439  1.0000 0.1368707258
H   H60       1.0  0.92987  0.32135  0.31439  1.0000 0.1368707258
H   H61       1.0  0.32135  0.92987  0.68561  1.0000 0.1368707258
H   H62       1.0  0.67865  0.07013  0.68561  1.0000 0.1368707258
H   H63       1.0  0.07013  0.32135  0.68561  1.0000 0.1368707258
H   H64       1.0  0.92987  0.67865  0.68561  1.0000 0.1368707258
H   H65       1.0  0.19676  0.33611  0.33870  1.0000 0.1196916163
H   H66       1.0  0.80324  0.66389  0.33870  1.0000 0.1196916163
H   H67       1.0  0.33611  0.80324  0.33870  1.0000 0.1196916163
H   H68       1.0  0.66389  0.19676  0.33870  1.0000 0.1196916163
H   H69       1.0  0.19676  0.66389  0.66130  1.0000 0.1196916163
H   H70       1.0  0.80324  0.33611  0.66130  1.0000 0.1196916163
H   H71       1.0  0.33611  0.19676  0.66130  1.0000 0.1196916163
H   H72       1.0  0.66389  0.80324  0.66130  1.0000 0.1196916163
H   H73       1.0  0.30324  0.16389  0.16130  1.0000 0.1196916163
H   H74       1.0  0.69676  0.83611  0.16130  1.0000 0.1196916163
H   H75       1.0  0.16389  0.69676  0.16130  1.0000 0.1196916163
H   H76       1.0  0.83611  0.30324  0.16130  1.0000 0.1196916163
H   H77       1.0  0.30324  0.83611  0.83870  1.0000 0.1196916163
H   H78       1.0  0.69676  0.16389  0.83870  1.0000 0.1196916163
H   H79       1.0  0.16389  0.30324  0.83870  1.0000 0.1196916163
H   H80       1.0  0.83611  0.69676  0.83870  1.0000 0.1196916163
H   H81       1.0  0.25345  0.25766  0.05106  1.0000 0.2830132086
H   H82       1.0  0.74655  0.74234  0.05106  1.0000 0.2830132086
H   H83       1.0  0.25766  0.74655  0.05106  1.0000 0.2830132086
H   H84       1.0  0.74234  0.25345  0.05106  1.0000 0.2830132086
H   H85       1.0  0.25345  0.74234  0.94894  1.0000 0.2830132086
H   H86       1.0  0.74655  0.25766  0.94894  1.0000 0.2830132086
H   H87       1.0  0.25766  0.25345  0.94894  1.0000 0.2830132086
H   H88       1.0  0.74234  0.74655  0.94894  1.0000 0.2830132086
H   H89       1.0  0.24655  0.24234  0.44894  1.0000 0.2830132086
H   H90       1.0  0.75345  0.75766  0.44894  1.0000 0.2830132086
H   H91       1.0  0.24234  0.75345  0.44894  1.0000 0.2830132086
H   H92       1.0  0.75766  0.24655  0.44894  1.0000 0.2830132086
H   H93       1.0  0.24655  0.75766  0.55106  1.0000 0.2830132086
H   H94       1.0  0.75345  0.24234  0.55106  1.0000 0.2830132086
H   H95       1.0  0.24234  0.24655  0.55106  1.0000 0.2830132086
H   H96       1.0  0.75766  0.75345  0.55106  1.0000 0.2830132086
H   H97       1.0  0.22827  0.28777  0.10380  1.0000 0.2830132086
H   H98       1.0  0.77173  0.71223  0.10380  1.0000 0.2830132086
H   H99       1.0  0.28777  0.77173  0.10380  1.0000 0.2830132086
H   H100      1.0  0.71223  0.22827  0.10380  1.0000 0.2830132086
H   H101      1.0  0.22827  0.71223  0.89620  1.0000 0.2830132086
H   H102      1.0  0.77173  0.28777  0.89620  1.0000 0.2830132086
H   H103      1.0  0.28777  0.22827  0.89620  1.0000 0.2830132086
H   H104      1.0  0.71223  0.77173  0.89620  1.0000 0.2830132086
H   H105      1.0  0.27173  0.21223  0.39620  1.0000 0.2830132086
H   H106      1.0  0.72827  0.78777  0.39620  1.0000 0.2830132086
H   H107      1.0  0.21223  0.72827  0.39620  1.0000 0.2830132086
H   H108      1.0  0.78777  0.27173  0.39620  1.0000 0.2830132086
H   H109      1.0  0.27173  0.78777  0.60380  1.0000 0.2830132086
H   H110      1.0  0.72827  0.21223  0.60380  1.0000 0.2830132086
H   H111      1.0  0.21223  0.27173  0.60380  1.0000 0.2830132086
H   H112      1.0  0.78777  0.72827  0.60380  1.0000 0.2830132086
H   H113      1.0  0.23604  0.42246  0.09582  1.0000 0.29707761
H   H114      1.0  0.76396  0.57754  0.09582  1.0000 0.29707761
H   H115      1.0  0.42246  0.76396  0.09582  1.0000 0.29707761
H   H116      1.0  0.57754  0.23604  0.09582  1.0000 0.29707761
H   H117      1.0  0.23604  0.57754  0.90418  1.0000 0.29707761
H   H118      1.0  0.76396  0.42246  0.90418  1.0000 0.29707761
H   H119      1.0  0.42246  0.23604  0.90418  1.0000 0.29707761
H   H120      1.0  0.57754  0.76396  0.90418  1.0000 0.29707761
H   H121      1.0  0.26396  0.07754  0.40418  1.0000 0.29707761
H   H122      1.0  0.73604  0.92246  0.40418  1.0000 0.29707761
H   H123      1.0  0.07754  0.73604  0.40418  1.0000 0.29707761
H   H124      1.0  0.92246  0.26396  0.40418  1.0000 0.29707761
H   H125      1.0  0.26396  0.92246  0.59582  1.0000 0.29707761
H   H126      1.0  0.73604  0.07754  0.59582  1.0000 0.29707761
H   H127      1.0  0.07754  0.26396  0.59582  1.0000 0.29707761
H   H128      1.0  0.92246  0.73604  0.59582  1.0000 0.29707761
H   H129      1.0  0.27671  0.38256  0.09343  1.0000 0.2918476004
H   H130      1.0  0.72329  0.61744  0.09343  1.0000 0.2918476004
H   H131      1.0  0.38256  0.72329  0.09343  1.0000 0.2918476004
H   H132      1.0  0.61744  0.27671  0.09343  1.0000 0.2918476004
H   H133      1.0  0.27671  0.61744  0.90657  1.0000 0.2918476004
H   H134      1.0  0.72329  0.38256  0.90657  1.0000 0.2918476004
H   H135      1.0  0.38256  0.27671  0.90657  1.0000 0.2918476004
H   H136      1.0  0.61744  0.72329  0.90657  1.0000 0.2918476004
H   H137      1.0  0.22329  0.11744  0.40657  1.0000 0.2918476004
H   H138      1.0  0.77671  0.88256  0.40657  1.0000 0.2918476004
H   H139      1.0  0.11744  0.77671  0.40657  1.0000 0.2918476004
H   H140      1.0  0.88256  0.22329  0.40657  1.0000 0.2918476004
H   H141      1.0  0.22329  0.88256  0.59343  1.0000 0.2918476004
H   H142      1.0  0.77671  0.11744  0.59343  1.0000 0.2918476004
H   H143      1.0  0.11744  0.22329  0.59343  1.0000 0.2918476004
H   H144      1.0  0.88256  0.77671  0.59343  1.0000 0.2918476004
H   H145      1.0  0.26256  0.29478  0.28449  1.0000 0.1196916163
H   H146      1.0  0.73744  0.70522  0.28449  1.0000 0.1196916163
H   H147      1.0  0.29478  0.73744  0.28449  1.0000 0.1196916163
H   H148      1.0  0.70522  0.26256  0.28449  1.0000 0.1196916163
H   H149      1.0  0.26256  0.70522  0.71551  1.0000 0.1196916163
H   H150      1.0  0.73744  0.29478  0.71551  1.0000 0.1196916163
H   H151      1.0  0.29478  0.26256  0.71551  1.0000 0.1196916163
H   H152      1.0  0.70522  0.73744  0.71551  1.0000 0.1196916163
H   H153      1.0  0.23744  0.20522  0.21551  1.0000 0.1196916163
H   H154      1.0  0.76256  0.79478  0.21551  1.0000 0.1196916163
H   H155      1.0  0.20522  0.76256  0.21551  1.0000 0.1196916163
H   H156      1.0  0.79478  0.23744  0.21551  1.0000 0.1196916163
H   H157      1.0  0.23744  0.79478  0.78449  1.0000 0.1196916163
H   H158      1.0  0.76256  0.20522  0.78449  1.0000 0.1196916163
H   H159      1.0  0.20522  0.23744  0.78449  1.0000 0.1196916163
H   H160      1.0  0.79478  0.76256  0.78449  1.0000 0.1196916163
H   H161      1.0  0.34375  0.24556  0.04714  1.0000 0.1196916163
H   H162      1.0  0.65625  0.75444  0.04714  1.0000 0.1196916163
H   H163      1.0  0.24556  0.65625  0.04714  1.0000 0.1196916163
H   H164      1.0  0.75444  0.34375  0.04714  1.0000 0.1196916163
H   H165      1.0  0.34375  0.75444  0.95286  1.0000 0.1196916163
H   H166      1.0  0.65625  0.24556  0.95286  1.0000 0.1196916163
H   H167      1.0  0.24556  0.34375  0.95286  1.0000 0.1196916163
H   H168      1.0  0.75444  0.65625  0.95286  1.0000 0.1196916163
H   H169      1.0  0.15625  0.25444  0.45286  1.0000 0.1196916163
H   H170      1.0  0.84375  0.74556  0.45286  1.0000 0.1196916163
H   H171      1.0  0.25444  0.84375  0.45286  1.0000 0.1196916163
H   H172      1.0  0.74556  0.15625  0.45286  1.0000 0.1196916163
H   H173      1.0  0.15625  0.74556  0.54714  1.0000 0.1196916163
H   H174      1.0  0.84375  0.25444  0.54714  1.0000 0.1196916163
H   H175      1.0  0.25444  0.15625  0.54714  1.0000 0.1196916163
H   H176      1.0  0.74556  0.84375  0.54714  1.0000 0.1196916163
H   H177      1.0  0.86324  0.50337  0.39927  1.0000 0.1134532009
H   H178      1.0  0.13676  0.49663  0.39927  1.0000 0.1134532009
H   H179      1.0  0.50337  0.13676  0.39927  1.0000 0.1134532009
H   H180      1.0  0.49663  0.86324  0.39927  1.0000 0.1134532009
H   H181      1.0  0.86324  0.49663  0.60073  1.0000 0.1134532009
H   H182      1.0  0.13676  0.50337  0.60073  1.0000 0.1134532009
H   H183      1.0  0.50337  0.86324  0.60073  1.0000 0.1134532009
H   H184      1.0  0.49663  0.13676  0.60073  1.0000 0.1134532009
H   H185      1.0  0.63676  0.99663  0.10073  1.0000 0.1134532009
H   H186      1.0  0.36324  0.00337  0.10073  1.0000 0.1134532009
H   H187      1.0  0.99663  0.36324  0.10073  1.0000 0.1134532009
H   H188      1.0  0.00337  0.63676  0.10073  1.0000 0.1134532009
H   H189      1.0  0.63676  0.00337  0.89927  1.0000 0.1134532009
H   H190      1.0  0.36324  0.99663  0.89927  1.0000 0.1134532009
H   H191      1.0  0.99663  0.63676  0.89927  1.0000 0.1134532009
H   H192      1.0  0.00337  0.36324  0.89927  1.0000 0.1134532009
H   H193      1.0  0.35863  0.33892  0.23693  1.0000 0.1196916163
H   H194      1.0  0.64137  0.66108  0.23693  1.0000 0.1196916163
H   H195      1.0  0.33892  0.64137  0.23693  1.0000 0.1196916163
H   H196      1.0  0.66108  0.35863  0.23693  1.0000 0.1196916163
H   H197      1.0  0.35863  0.66108  0.76307  1.0000 0.1196916163
H   H198      1.0  0.64137  0.33892  0.76307  1.0000 0.1196916163
H   H199      1.0  0.33892  0.35863  0.76307  1.0000 0.1196916163
H   H200      1.0  0.66108  0.64137  0.76307  1.0000 0.1196916163
H   H201      1.0  0.14137  0.16108  0.26307  1.0000 0.1196916163
H   H202      1.0  0.85863  0.83892  0.26307  1.0000 0.1196916163
H   H203      1.0  0.16108  0.85863  0.26307  1.0000 0.1196916163
H   H204      1.0  0.83892  0.14137  0.26307  1.0000 0.1196916163
H   H205      1.0  0.14137  0.83892  0.73693  1.0000 0.1196916163
H   H206      1.0  0.85863  0.16108  0.73693  1.0000 0.1196916163
H   H207      1.0  0.16108  0.14137  0.73693  1.0000 0.1196916163
H   H208      1.0  0.83892  0.85863  0.73693  1.0000 0.1196916163
H   H209      1.0  0.43097  0.30741  0.18761  1.0000 0.1196916163
H   H210      1.0  0.56903  0.69259  0.18761  1.0000 0.1196916163
H   H211      1.0  0.30741  0.56903  0.18761  1.0000 0.1196916163
H   H212      1.0  0.69259  0.43097  0.18761  1.0000 0.1196916163
H   H213      1.0  0.43097  0.69259  0.81239  1.0000 0.1196916163
H   H214      1.0  0.56903  0.30741  0.81239  1.0000 0.1196916163
H   H215      1.0  0.30741  0.43097  0.81239  1.0000 0.1196916163
H   H216      1.0  0.69259  0.56903  0.81239  1.0000 0.1196916163
H   H217      1.0  0.06903  0.19259  0.31239  1.0000 0.1196916163
H   H218      1.0  0.93097  0.80741  0.31239  1.0000 0.1196916163
H   H219      1.0  0.19259  0.93097  0.31239  1.0000 0.1196916163
H   H220      1.0  0.80741  0.06903  0.31239  1.0000 0.1196916163
H   H221      1.0  0.06903  0.80741  0.68761  1.0000 0.1196916163
H   H222      1.0  0.93097  0.19259  0.68761  1.0000 0.1196916163
H   H223      1.0  0.19259  0.06903  0.68761  1.0000 0.1196916163
H   H224      1.0  0.80741  0.93097  0.68761  1.0000 0.1196916163
C   C1        1.0  0.01624  0.37688  0.39221  1.0000 0.1983450091
C   C2        1.0  0.98376  0.62312  0.39221  1.0000 0.1983450091
C   C3        1.0  0.37688  0.98376  0.39221  1.0000 0.1983450091
C   C4        1.0  0.62312  0.01624  0.39221  1.0000 0.1983450091
C   C5        1.0  0.01624  0.62312  0.60779  1.0000 0.1983450091
C   C6        1.0  0.98376  0.37688  0.60779  1.0000 0.1983450091
C   C7        1.0  0.37688  0.01624  0.60779  1.0000 0.1983450091
C   C8        1.0  0.62312  0.98376  0.60779  1.0000 0.1983450091
C   C9        1.0  0.48376  0.12312  0.10779  1.0000 0.1983450091
C   C10       1.0  0.51624  0.87688  0.10779  1.0000 0.1983450091
C   C11       1.0  0.12312  0.51624  0.10779  1.0000 0.1983450091
C   C12       1.0  0.87688  0.48376  0.10779  1.0000 0.1983450091
C   C13       1.0  0.48376  0.87688  0.89221  1.0000 0.1983450091
C   C14       1.0  0.51624  0.12312  0.89221  1.0000 0.1983450091
C   C15       1.0  0.12312  0.48376  0.89221  1.0000 0.1983450091
C   C16       1.0  0.87688  0.51624  0.89221  1.0000 0.1983450091
C   C17       1.0  0.95649  0.43219  0.38593  1.0000 0.29707761
C   C18       1.0  0.04351  0.56781  0.38593  1.0000 0.29707761
C   C19       1.0  0.43219  0.04351  0.38593  1.0000 0.29707761
C   C20       1.0  0.56781  0.95649  0.38593  1.0000 0.29707761
C   C21       1.0  0.95649  0.56781  0.61407  1.0000 0.29707761
C   C22       1.0  0.04351  0.43219  0.61407  1.0000 0.29707761
C   C23       1.0  0.43219  0.95649  0.61407  1.0000 0.29707761
C   C24       1.0  0.56781  0.04351  0.61407  1.0000 0.29707761
C   C25       1.0  0.54351  0.06781  0.11407  1.0000 0.29707761
C   C26       1.0  0.45649  0.93219  0.11407  1.0000 0.29707761
C   C27       1.0  0.06781  0.45649  0.11407  1.0000 0.29707761
C   C28       1.0  0.93219  0.54351  0.11407  1.0000 0.29707761
C   C29       1.0  0.54351  0.93219  0.88593  1.0000 0.29707761
C   C30       1.0  0.45649  0.06781  0.88593  1.0000 0.29707761
C   C31       1.0  0.06781  0.54351  0.88593  1.0000 0.29707761
C   C32       1.0  0.93219  0.45649  0.88593  1.0000 0.29707761
C   C33       1.0  0.13678  0.41196  0.30048  1.0000 0.5554158229
C   C34       1.0  0.86322  0.58804  0.30048  1.0000 0.5554158229
C   C35       1.0  0.41196  0.86322  0.30048  1.0000 0.5554158229
C   C36       1.0  0.58804  0.13678  0.30048  1.0000 0.5554158229
C   C37       1.0  0.13678  0.58804  0.69952  1.0000 0.5554158229
C   C38       1.0  0.86322  0.41196  0.69952  1.0000 0.5554158229
C   C39       1.0  0.41196  0.13678  0.69952  1.0000 0.5554158229
C   C40       1.0  0.58804  0.86322  0.69952  1.0000 0.5554158229
C   C41       1.0  0.36322  0.08804  0.19952  1.0000 0.5554158229
C   C42       1.0  0.63678  0.91196  0.19952  1.0000 0.5554158229
C   C43       1.0  0.08804  0.63678  0.19952  1.0000 0.5554158229
C   C44       1.0  0.91196  0.36322  0.19952  1.0000 0.5554158229
C   C45       1.0  0.36322  0.91196  0.80048  1.0000 0.5554158229
C   C46       1.0  0.63678  0.08804  0.80048  1.0000 0.5554158229
C   C47       1.0  0.08804  0.36322  0.80048  1.0000 0.5554158229
C   C48       1.0  0.91196  0.63678  0.80048  1.0000 0.5554158229
C   C49       1.0  0.18075  0.38669  0.26667  1.0000 -0.0051031944
C   C50       1.0  0.81925  0.61331  0.26667  1.0000 -0.0051031944
C   C51       1.0  0.38669  0.81925  0.26667  1.0000 -0.0051031944
C   C52       1.0  0.61331  0.18075  0.26667  1.0000 -0.0051031944
C   C53       1.0  0.18075  0.61331  0.73333  1.0000 -0.0051031944
C   C54       1.0  0.81925  0.38669  0.73333  1.0000 -0.0051031944
C   C55       1.0  0.38669  0.18075  0.73333  1.0000 -0.0051031944
C   C56       1.0  0.61331  0.81925  0.73333  1.0000 -0.0051031944
C   C57       1.0  0.31925  0.11331  0.23333  1.0000 -0.0051031944
C   C58       1.0  0.68075  0.88669  0.23333  1.0000 -0.0038743022
C   C59       1.0  0.11331  0.68075  0.23333  1.0000 -0.0051031944
C   C60       1.0  0.88669  0.31925  0.23333  1.0000 -0.0038743022
C   C61       1.0  0.31925  0.88669  0.76667  1.0000 -0.0051031944
C   C62       1.0  0.68075  0.11331  0.76667  1.0000 -0.0051031944
C   C63       1.0  0.11331  0.31925  0.76667  1.0000 -0.0051031944
C   C64       1.0  0.88669  0.68075  0.76667  1.0000 -0.0051031944
C   C65       1.0  0.94063  0.39259  0.42672  1.0000 -0.0505840247
C   C66       1.0  0.05937  0.60741  0.42672  1.0000 -0.0505840247
C   C67       1.0  0.39259  0.05937  0.42672  1.0000 -0.0505840247
C   C68       1.0  0.60741  0.94063  0.42672  1.0000 -0.0505840247
C   C69       1.0  0.94063  0.60741  0.57328  1.0000 -0.0505840247
C   C70       1.0  0.05937  0.39259  0.57328  1.0000 -0.0505840247
C   C71       1.0  0.39259  0.94063  0.57328  1.0000 -0.0505840247
C   C72       1.0  0.60741  0.05937  0.57328  1.0000 -0.0505840247
C   C73       1.0  0.55937  0.10741  0.07328  1.0000 -0.0505840247
C   C74       1.0  0.44063  0.89259  0.07328  1.0000 -0.0505840247
C   C75       1.0  0.10741  0.44063  0.07328  1.0000 -0.0505840247
C   C76       1.0  0.89259  0.55937  0.07328  1.0000 -0.0505840247
C   C77       1.0  0.55937  0.89259  0.92672  1.0000 -0.0505840247
C   C78       1.0  0.44063  0.10741  0.92672  1.0000 -0.0505840247
C   C79       1.0  0.10741  0.55937  0.92672  1.0000 -0.0505840247
C   C80       1.0  0.89259  0.44063  0.92672  1.0000 -0.0505840247
C   C81       1.0  0.19585  0.40291  0.20550  1.0000 -0.1984181564
C   C82       1.0  0.80415  0.59709  0.20550  1.0000 -0.1984181564
C   C83       1.0  0.40291  0.80415  0.20550  1.0000 -0.1984181564
C   C84       1.0  0.59709  0.19585  0.20550  1.0000 -0.1984181564
C   C85       1.0  0.19585  0.59709  0.79450  1.0000 -0.1984181564
C   C86       1.0  0.80415  0.40291  0.79450  1.0000 -0.1984181564
C   C87       1.0  0.40291  0.19585  0.79450  1.0000 -0.1984181564
C   C88       1.0  0.59709  0.80415  0.79450  1.0000 -0.1984181564
C   C89       1.0  0.30415  0.09709  0.29450  1.0000 -0.1984181564
C   C90       1.0  0.69585  0.90291  0.29450  1.0000 -0.1984181564
C   C91       1.0  0.09709  0.69585  0.29450  1.0000 -0.1984181564
C   C92       1.0  0.90291  0.30415  0.29450  1.0000 -0.1984181564
C   C93       1.0  0.30415  0.90291  0.70550  1.0000 -0.1984181564
C   C94       1.0  0.69585  0.09709  0.70550  1.0000 -0.1984181564
C   C95       1.0  0.09709  0.30415  0.70550  1.0000 -0.1984181564
C   C96       1.0  0.90291  0.69585  0.70550  1.0000 -0.1984181564
C   C97       1.0  0.30733  0.31393  0.17120  1.0000 -0.0298097064
C   C98       1.0  0.69267  0.68607  0.17120  1.0000 -0.0298097064
C   C99       1.0  0.31393  0.69267  0.17120  1.0000 -0.0298097064
C   C100      1.0  0.68607  0.30733  0.17120  1.0000 -0.0298097064
C   C101      1.0  0.30733  0.68607  0.82880  1.0000 -0.0298097064
C   C102      1.0  0.69267  0.31393  0.82880  1.0000 -0.0298097064
C   C103      1.0  0.31393  0.30733  0.82880  1.0000 -0.0298097064
C   C104      1.0  0.68607  0.69267  0.82880  1.0000 -0.0298097064
C   C105      1.0  0.19267  0.18607  0.32880  1.0000 -0.0298097064
C   C106      1.0  0.80733  0.81393  0.32880  1.0000 -0.0298097064
C   C107      1.0  0.18607  0.80733  0.32880  1.0000 -0.0298097064
C   C108      1.0  0.81393  0.19267  0.32880  1.0000 -0.0298097064
C   C109      1.0  0.19267  0.81393  0.67120  1.0000 -0.0298097064
C   C110      1.0  0.80733  0.18607  0.67120  1.0000 -0.0298097064
C   C111      1.0  0.18607  0.19267  0.67120  1.0000 -0.0298097064
C   C112      1.0  0.81393  0.80733  0.67120  1.0000 -0.0298097064
C   C113      1.0  0.44210  0.25307  0.07990  1.0000 0.5554158229
C   C114      1.0  0.55790  0.74693  0.07990  1.0000 0.5554158229
C   C115      1.0  0.25307  0.55790  0.07990  1.0000 0.5554158229
C   C116      1.0  0.74693  0.44210  0.07990  1.0000 0.5554158229
C   C117      1.0  0.44210  0.74693  0.92010  1.0000 0.5554158229
C   C118      1.0  0.55790  0.25307  0.92010  1.0000 0.5554158229
C   C119      1.0  0.25307  0.44210  0.92010  1.0000 0.5554158229
C   C120      1.0  0.74693  0.55790  0.92010  1.0000 0.5554158229
C   C121      1.0  0.05790  0.24693  0.42010  1.0000 0.5554158229
C   C122      1.0  0.94210  0.75307  0.42010  1.0000 0.5554158229
C   C123      1.0  0.24693  0.94210  0.42010  1.0000 0.5554158229
C   C124      1.0  0.75307  0.05790  0.42010  1.0000 0.5554158229
C   C125      1.0  0.05790  0.75307  0.57990  1.0000 0.5554158229
C   C126      1.0  0.94210  0.24693  0.57990  1.0000 0.5554158229
C   C127      1.0  0.24693  0.05790  0.57990  1.0000 0.5554158229
C   C128      1.0  0.75307  0.94210  0.57990  1.0000 0.5554158229
C   C129      1.0  0.26179  0.33816  0.20300  1.0000 -0.0207259922
C   C130      1.0  0.73821  0.66184  0.20300  1.0000 -0.0207259922
C   C131      1.0  0.33816  0.73821  0.20300  1.0000 -0.0207259922
C   C132      1.0  0.66184  0.26179  0.20300  1.0000 -0.0207259922
C   C133      1.0  0.26179  0.66184  0.79700  1.0000 -0.0207259922
C   C134      1.0  0.73821  0.33816  0.79700  1.0000 -0.0207259922
C   C135      1.0  0.33816  0.26179  0.79700  1.0000 -0.0207259922
C   C136      1.0  0.66184  0.73821  0.79700  1.0000 -0.0207259922
C   C137      1.0  0.23821  0.16184  0.29700  1.0000 -0.0207259922
C   C138      1.0  0.76179  0.83816  0.29700  1.0000 -0.0207259922
C   C139      1.0  0.16184  0.76179  0.29700  1.0000 -0.0207259922
C   C140      1.0  0.83816  0.23821  0.29700  1.0000 -0.0207259922
C   C141      1.0  0.23821  0.83816  0.70300  1.0000 -0.0207259922
C   C142      1.0  0.76179  0.16184  0.70300  1.0000 -0.0207259922
C   C143      1.0  0.16184  0.23821  0.70300  1.0000 -0.0207259922
C   C144      1.0  0.83816  0.76179  0.70300  1.0000 -0.0207259922
C   C145      1.0  0.89224  0.39619  0.45560  1.0000 0.3823042203
C   C146      1.0  0.10776  0.60381  0.45560  1.0000 0.3823042203
C   C147      1.0  0.39619  0.10776  0.45560  1.0000 0.3823042203
C   C148      1.0  0.60381  0.89224  0.45560  1.0000 0.3823042203
C   C149      1.0  0.89224  0.60381  0.54440  1.0000 0.3823042203
C   C150      1.0  0.10776  0.39619  0.54440  1.0000 0.3823042203
C   C151      1.0  0.39619  0.89224  0.54440  1.0000 0.3823042203
C   C152      1.0  0.60381  0.10776  0.54440  1.0000 0.3823042203
C   C153      1.0  0.60776  0.10381  0.04440  1.0000 0.3823042203
C   C154      1.0  0.39224  0.89619  0.04440  1.0000 0.3823042203
C   C155      1.0  0.10381  0.39224  0.04440  1.0000 0.3823042203
C   C156      1.0  0.89619  0.60776  0.04440  1.0000 0.3823042203
C   C157      1.0  0.60776  0.89619  0.95560  1.0000 0.3823042203
C   C158      1.0  0.39224  0.10381  0.95560  1.0000 0.3823042203
C   C159      1.0  0.10381  0.60776  0.95560  1.0000 0.3823042203
C   C160      1.0  0.89619  0.39224  0.95560  1.0000 0.3823042203
C   C161      1.0  0.30267  0.28495  0.11410  1.0000 0.2244210456
C   C162      1.0  0.69733  0.71505  0.11410  1.0000 0.2244210456
C   C163      1.0  0.28495  0.69733  0.11410  1.0000 0.2244210456
C   C164      1.0  0.71505  0.30267  0.11410  1.0000 0.2244210456
C   C165      1.0  0.30267  0.71505  0.88590  1.0000 0.2244210456
C   C166      1.0  0.69733  0.28495  0.88590  1.0000 0.2244210456
C   C167      1.0  0.28495  0.30267  0.88590  1.0000 0.2244210456
C   C168      1.0  0.71505  0.69733  0.88590  1.0000 0.2244210456
C   C169      1.0  0.19733  0.21505  0.38590  1.0000 0.2244210456
C   C170      1.0  0.80267  0.78495  0.38590  1.0000 0.2244210456
C   C171      1.0  0.21505  0.80267  0.38590  1.0000 0.2244210456
C   C172      1.0  0.78495  0.19733  0.38590  1.0000 0.2244210456
C   C173      1.0  0.19733  0.78495  0.61410  1.0000 0.2244210456
C   C174      1.0  0.80267  0.21505  0.61410  1.0000 0.2244210456
C   C175      1.0  0.21505  0.19733  0.61410  1.0000 0.2244210456
C   C176      1.0  0.78495  0.80267  0.61410  1.0000 0.2244210456
C   C177      1.0  0.23658  0.37944  0.17310  1.0000 0.2328010488
C   C178      1.0  0.76342  0.62056  0.17310  1.0000 0.2328010488
C   C179      1.0  0.37944  0.76342  0.17310  1.0000 0.2328010488
C   C180      1.0  0.62056  0.23658  0.17310  1.0000 0.2328010488
C   C181      1.0  0.23658  0.62056  0.82690  1.0000 0.2328010488
C   C182      1.0  0.76342  0.37944  0.82690  1.0000 0.2328010488
C   C183      1.0  0.37944  0.23658  0.82690  1.0000 0.2328010488
C   C184      1.0  0.62056  0.76342  0.82690  1.0000 0.2328010488
C   C185      1.0  0.26342  0.12056  0.32690  1.0000 0.2328010488
C   C186      1.0  0.73658  0.87944  0.32690  1.0000 0.2328010488
C   C187      1.0  0.12056  0.73658  0.32690  1.0000 0.2328010488
C   C188      1.0  0.87944  0.26342  0.32690  1.0000 0.2328010488
C   C189      1.0  0.26342  0.87944  0.67310  1.0000 0.2328010488
C   C190      1.0  0.73658  0.12056  0.67310  1.0000 0.2328010488
C   C191      1.0  0.12056  0.26342  0.67310  1.0000 0.2328010488
C   C192      1.0  0.87944  0.73658  0.67310  1.0000 0.2328010488
C   C193      1.0  0.20627  0.34657  0.29700  1.0000 -0.1313523177
C   C194      1.0  0.79373  0.65343  0.29700  1.0000 -0.1313523177
C   C195      1.0  0.34657  0.79373  0.29700  1.0000 -0.1313523177
C   C196      1.0  0.65343  0.20627  0.29700  1.0000 -0.1313523177
C   C197      1.0  0.20627  0.65343  0.70300  1.0000 -0.1313523177
C   C198      1.0  0.79373  0.34657  0.70300  1.0000 -0.1313523177
C   C199      1.0  0.34657  0.20627  0.70300  1.0000 -0.1313523177
C   C200      1.0  0.65343  0.79373  0.70300  1.0000 -0.1313523177
C   C201      1.0  0.29373  0.15343  0.20300  1.0000 -0.1313523177
C   C202      1.0  0.70627  0.84657  0.20300  1.0000 -0.1313523177
C   C203      1.0  0.15343  0.70627  0.20300  1.0000 -0.1313523177
C   C204      1.0  0.84657  0.29373  0.20300  1.0000 -0.1313523177
C   C205      1.0  0.29373  0.84657  0.79700  1.0000 -0.1313523177
C   C206      1.0  0.70627  0.15343  0.79700  1.0000 -0.1313523177
C   C207      1.0  0.15343  0.29373  0.79700  1.0000 -0.1313523177
C   C208      1.0  0.84657  0.70627  0.79700  1.0000 -0.1313523177
C   C209      1.0  0.24609  0.32223  0.26460  1.0000 -0.1516281117
C   C210      1.0  0.75391  0.67777  0.26460  1.0000 -0.1516281117
C   C211      1.0  0.32223  0.75391  0.26460  1.0000 -0.1516281117
C   C212      1.0  0.67777  0.24609  0.26460  1.0000 -0.1516281117
C   C213      1.0  0.24609  0.67777  0.73540  1.0000 -0.1516281117
C   C214      1.0  0.75391  0.32223  0.73540  1.0000 -0.1516281117
C   C215      1.0  0.32223  0.24609  0.73540  1.0000 -0.1516281117
C   C216      1.0  0.67777  0.75391  0.73540  1.0000 -0.1516281117
C   C217      1.0  0.25391  0.17777  0.23540  1.0000 -0.1516281117
C   C218      1.0  0.74609  0.82223  0.23540  1.0000 -0.1516281117
C   C219      1.0  0.17777  0.74609  0.23540  1.0000 -0.1516281117
C   C220      1.0  0.82223  0.25391  0.23540  1.0000 -0.1516281117
C   C221      1.0  0.25391  0.82223  0.76460  1.0000 -0.1516281117
C   C222      1.0  0.74609  0.17777  0.76460  1.0000 -0.1516281117
C   C223      1.0  0.17777  0.25391  0.76460  1.0000 -0.1516281117
C   C224      1.0  0.82223  0.74609  0.76460  1.0000 -0.1516281117
C   C225      1.0  0.34676  0.26502  0.08500  1.0000 -0.2310249686
C   C226      1.0  0.65324  0.73498  0.08500  1.0000 -0.2310249686
C   C227      1.0  0.26502  0.65324  0.08500  1.0000 -0.2310249686
C   C228      1.0  0.73498  0.34676  0.08500  1.0000 -0.2310249686
C   C229      1.0  0.34676  0.73498  0.91500  1.0000 -0.2310249686
C   C230      1.0  0.65324  0.26502  0.91500  1.0000 -0.2310249686
C   C231      1.0  0.26502  0.34676  0.91500  1.0000 -0.2310249686
C   C232      1.0  0.73498  0.65324  0.91500  1.0000 -0.2310249686
C   C233      1.0  0.15324  0.23498  0.41500  1.0000 -0.2310249686
C   C234      1.0  0.84676  0.76502  0.41500  1.0000 -0.2310249686
C   C235      1.0  0.23498  0.84676  0.41500  1.0000 -0.2310249686
C   C236      1.0  0.76502  0.15324  0.41500  1.0000 -0.2310249686
C   C237      1.0  0.15324  0.76502  0.58500  1.0000 -0.2310249686
C   C238      1.0  0.84676  0.23498  0.58500  1.0000 -0.2310249686
C   C239      1.0  0.23498  0.15324  0.58500  1.0000 -0.2310249686
C   C240      1.0  0.76502  0.84676  0.58500  1.0000 -0.2310249686
C   C241      1.0  0.39473  0.27364  0.11120  1.0000 -0.0038743022
C   C242      1.0  0.60527  0.72636  0.11120  1.0000 -0.0038743022
C   C243      1.0  0.27364  0.60527  0.11120  1.0000 -0.0038743022
C   C244      1.0  0.72636  0.39473  0.11120  1.0000 -0.0038743022
C   C245      1.0  0.39473  0.72636  0.88880  1.0000 -0.0038743022
C   C246      1.0  0.60527  0.27364  0.88880  1.0000 -0.0038743022
C   C247      1.0  0.27364  0.39473  0.88880  1.0000 -0.0038743022
C   C248      1.0  0.72636  0.60527  0.88880  1.0000 -0.0038743022
C   C249      1.0  0.10527  0.22636  0.38880  1.0000 -0.0038743022
C   C250      1.0  0.89473  0.77364  0.38880  1.0000 -0.0038743022
C   C251      1.0  0.22636  0.89473  0.38880  1.0000 -0.0038743022
C   C252      1.0  0.77364  0.10527  0.38880  1.0000 -0.0038743022
C   C253      1.0  0.10527  0.77364  0.61120  1.0000 -0.0038743022
C   C254      1.0  0.89473  0.22636  0.61120  1.0000 -0.0038743022
C   C255      1.0  0.22636  0.10527  0.61120  1.0000 -0.0038743022
C   C256      1.0  0.77364  0.89473  0.61120  1.0000 -0.0038743022
C   C257      1.0  0.88361  0.47458  0.40540  1.0000 0.242653935
C   C258      1.0  0.11639  0.52542  0.40540  1.0000 0.242653935
C   C259      1.0  0.47458  0.11639  0.40540  1.0000 0.242653935
C   C260      1.0  0.52542  0.88361  0.40540  1.0000 0.242653935
C   C261      1.0  0.88361  0.52542  0.59460  1.0000 0.242653935
C   C262      1.0  0.11639  0.47458  0.59460  1.0000 0.242653935
C   C263      1.0  0.47458  0.88361  0.59460  1.0000 0.242653935
C   C264      1.0  0.52542  0.11639  0.59460  1.0000 0.242653935
C   C265      1.0  0.61639  0.02542  0.09460  1.0000 0.242653935
C   C266      1.0  0.38361  0.97458  0.09460  1.0000 0.242653935
C   C267      1.0  0.02542  0.38361  0.09460  1.0000 0.242653935
C   C268      1.0  0.97458  0.61639  0.09460  1.0000 0.242653935
C   C269      1.0  0.61639  0.97458  0.90540  1.0000 0.242653935
C   C270      1.0  0.38361  0.02542  0.90540  1.0000 0.242653935
C   C271      1.0  0.02542  0.61639  0.90540  1.0000 0.242653935
C   C272      1.0  0.97458  0.38361  0.90540  1.0000 0.242653935
C   C273      1.0  0.35555  0.32080  0.19800  1.0000 -0.1313523177
C   C274      1.0  0.64445  0.67920  0.19800  1.0000 -0.1313523177
C   C275      1.0  0.32080  0.64445  0.19800  1.0000 -0.1313523177
C   C276      1.0  0.67920  0.35555  0.19800  1.0000 -0.1313523177
C   C277      1.0  0.35555  0.67920  0.80200  1.0000 -0.1313523177
C   C278      1.0  0.64445  0.32080  0.80200  1.0000 -0.1313523177
C   C279      1.0  0.32080  0.35555  0.80200  1.0000 -0.1313523177
C   C280      1.0  0.67920  0.64445  0.80200  1.0000 -0.1313523177
C   C281      1.0  0.14445  0.17920  0.30200  1.0000 -0.1313523177
C   C282      1.0  0.85555  0.82080  0.30200  1.0000 -0.1313523177
C   C283      1.0  0.17920  0.85555  0.30200  1.0000 -0.1313523177
C   C284      1.0  0.82080  0.14445  0.30200  1.0000 -0.1313523177
C   C285      1.0  0.14445  0.82080  0.69800  1.0000 -0.1313523177
C   C286      1.0  0.85555  0.17920  0.69800  1.0000 -0.1313523177
C   C287      1.0  0.17920  0.14445  0.69800  1.0000 -0.1313523177
C   C288      1.0  0.82080  0.85555  0.69800  1.0000 -0.1313523177
C   C289      1.0  0.39903  0.30170  0.16900  1.0000 -0.1192207552
C   C290      1.0  0.60097  0.69830  0.16900  1.0000 -0.1192207552
C   C291      1.0  0.30170  0.60097  0.16900  1.0000 -0.1192207552
C   C292      1.0  0.69830  0.39903  0.16900  1.0000 -0.1192207552
C   C293      1.0  0.39903  0.69830  0.83100  1.0000 -0.1192207552
C   C294      1.0  0.60097  0.30170  0.83100  1.0000 -0.1192207552
C   C295      1.0  0.30170  0.39903  0.83100  1.0000 -0.1192207552
C   C296      1.0  0.69830  0.60097  0.83100  1.0000 -0.1192207552
C   C297      1.0  0.10097  0.19830  0.33100  1.0000 -0.1192207552
C   C298      1.0  0.89903  0.80170  0.33100  1.0000 -0.1192207552
C   C299      1.0  0.19830  0.89903  0.33100  1.0000 -0.1192207552
C   C300      1.0  0.80170  0.10097  0.33100  1.0000 -0.1192207552
C   C301      1.0  0.10097  0.80170  0.66900  1.0000 -0.1192207552
C   C302      1.0  0.89903  0.19830  0.66900  1.0000 -0.1192207552
C   C303      1.0  0.19830  0.10097  0.66900  1.0000 -0.1192207552
C   C304      1.0  0.80170  0.89903  0.66900  1.0000 -0.1192207552
N   N1        1.0  0.97977  0.35680  0.42977  1.0000 -0.3374671798
N   N2        1.0  0.02023  0.64320  0.42977  1.0000 -0.3374671798
N   N3        1.0  0.35680  0.02023  0.42977  1.0000 -0.3374671798
N   N4        1.0  0.64320  0.97977  0.42977  1.0000 -0.3374671798
N   N5        1.0  0.97977  0.64320  0.57023  1.0000 -0.3374671798
N   N6        1.0  0.02023  0.35680  0.57023  1.0000 -0.3374671798
N   N7        1.0  0.35680  0.97977  0.57023  1.0000 -0.3374671798
N   N8        1.0  0.64320  0.02023  0.57023  1.0000 -0.3374671798
N   N9        1.0  0.52023  0.14320  0.07023  1.0000 -0.3374671798
N   N10       1.0  0.47977  0.85680  0.07023  1.0000 -0.3374671798
N   N11       1.0  0.14320  0.47977  0.07023  1.0000 -0.3374671798
N   N12       1.0  0.85680  0.52023  0.07023  1.0000 -0.3374671798
N   N13       1.0  0.52023  0.85680  0.92977  1.0000 -0.3374671798
N   N14       1.0  0.47977  0.14320  0.92977  1.0000 -0.3374671798
N   N15       1.0  0.14320  0.52023  0.92977  1.0000 -0.3374671798
N   N16       1.0  0.85680  0.47977  0.92977  1.0000 -0.3374671798
N   N17       1.0  0.00460  0.42199  0.36375  1.0000 -0.3712897479
N   N18       1.0  0.99540  0.57801  0.36375  1.0000 -0.3712897479
N   N19       1.0  0.42199  0.99540  0.36375  1.0000 -0.3712897479
N   N20       1.0  0.57801  0.00460  0.36375  1.0000 -0.3712897479
N   N21       1.0  0.00460  0.57801  0.63625  1.0000 -0.3712897479
N   N22       1.0  0.99540  0.42199  0.63625  1.0000 -0.3712897479
N   N23       1.0  0.42199  0.00460  0.63625  1.0000 -0.3712897479
N   N24       1.0  0.57801  0.99540  0.63625  1.0000 -0.3712897479
N   N25       1.0  0.49540  0.07801  0.13625  1.0000 -0.3712897479
N   N26       1.0  0.50460  0.92199  0.13625  1.0000 -0.3712897479
N   N27       1.0  0.07801  0.50460  0.13625  1.0000 -0.3712897479
N   N28       1.0  0.92199  0.49540  0.13625  1.0000 -0.3712897479
N   N29       1.0  0.49540  0.92199  0.86375  1.0000 -0.3712897479
N   N30       1.0  0.50460  0.07801  0.86375  1.0000 -0.3712897479
N   N31       1.0  0.07801  0.49540  0.86375  1.0000 -0.3712897479
N   N32       1.0  0.92199  0.50460  0.86375  1.0000 -0.3712897479
N   N33       1.0  0.92807  0.47447  0.37285  1.0000 -0.3712897479
N   N34       1.0  0.07193  0.52553  0.37285  1.0000 -0.3712897479
N   N35       1.0  0.47447  0.07193  0.37285  1.0000 -0.3712897479
N   N36       1.0  0.52553  0.92807  0.37285  1.0000 -0.3712897479
N   N37       1.0  0.92807  0.52553  0.62715  1.0000 -0.3712897479
N   N38       1.0  0.07193  0.47447  0.62715  1.0000 -0.3712897479
N   N39       1.0  0.47447  0.92807  0.62715  1.0000 -0.3712897479
N   N40       1.0  0.52553  0.07193  0.62715  1.0000 -0.3712897479
N   N41       1.0  0.57193  0.02553  0.12715  1.0000 -0.3712897479
N   N42       1.0  0.42807  0.97447  0.12715  1.0000 -0.3712897479
N   N43       1.0  0.02553  0.42807  0.12715  1.0000 -0.3712897479
N   N44       1.0  0.97447  0.57193  0.12715  1.0000 -0.3712897479
N   N45       1.0  0.57193  0.97447  0.87285  1.0000 -0.3712897479
N   N46       1.0  0.42807  0.02553  0.87285  1.0000 -0.3712897479
N   N47       1.0  0.02553  0.57193  0.87285  1.0000 -0.3712897479
N   N48       1.0  0.97447  0.42807  0.87285  1.0000 -0.3712897479
N   N49       1.0  0.87135  0.35963  0.49250  1.0000 -0.5475888804
N   N50       1.0  0.12865  0.64037  0.49250  1.0000 -0.5475888804
N   N51       1.0  0.35963  0.12865  0.49250  1.0000 -0.5475888804
N   N52       1.0  0.64037  0.87135  0.49250  1.0000 -0.5475888804
N   N53       1.0  0.87135  0.64037  0.50750  1.0000 -0.5475888804
N   N54       1.0  0.12865  0.35963  0.50750  1.0000 -0.5475888804
N   N55       1.0  0.35963  0.87135  0.50750  1.0000 -0.5475888804
N   N56       1.0  0.64037  0.12865  0.50750  1.0000 -0.5475888804
N   N57       1.0  0.62865  0.14037  0.00750  1.0000 -0.5475888804
N   N58       1.0  0.37135  0.85963  0.00750  1.0000 -0.5475888804
N   N59       1.0  0.14037  0.37135  0.00750  1.0000 -0.5475888804
N   N60       1.0  0.85963  0.62865  0.00750  1.0000 -0.5475888804
N   N61       1.0  0.62865  0.85963  0.99250  1.0000 -0.5475888804
N   N62       1.0  0.37135  0.14037  0.99250  1.0000 -0.5475888804
N   N63       1.0  0.14037  0.62865  0.99250  1.0000 -0.5475888804
N   N64       1.0  0.85963  0.37135  0.99250  1.0000 -0.5475888804
N   N65       1.0  0.86477  0.43960  0.44480  1.0000 -0.3933608021
N   N66       1.0  0.13523  0.56040  0.44480  1.0000 -0.3933608021
N   N67       1.0  0.43960  0.13523  0.44480  1.0000 -0.3933608021
N   N68       1.0  0.56040  0.86477  0.44480  1.0000 -0.3933608021
N   N69       1.0  0.86477  0.56040  0.55520  1.0000 -0.3933608021
N   N70       1.0  0.13523  0.43960  0.55520  1.0000 -0.3933608021
N   N71       1.0  0.43960  0.86477  0.55520  1.0000 -0.3933608021
N   N72       1.0  0.56040  0.13523  0.55520  1.0000 -0.3933608021
N   N73       1.0  0.63523  0.06040  0.05520  1.0000 -0.3933608021
N   N74       1.0  0.36477  0.93960  0.05520  1.0000 -0.3933608021
N   N75       1.0  0.06040  0.36477  0.05520  1.0000 -0.3933608021
N   N76       1.0  0.93960  0.63523  0.05520  1.0000 -0.3933608021
N   N77       1.0  0.63523  0.93960  0.94480  1.0000 -0.3933608021
N   N78       1.0  0.36477  0.06040  0.94480  1.0000 -0.3933608021
N   N79       1.0  0.06040  0.63523  0.94480  1.0000 -0.3933608021
N   N80       1.0  0.93960  0.36477  0.94480  1.0000 -0.3933608021
N   N81       1.0  0.25555  0.27560  0.08610  1.0000 -0.5782620322
N   N82       1.0  0.74445  0.72440  0.08610  1.0000 -0.5782620322
N   N83       1.0  0.27560  0.74445  0.08610  1.0000 -0.5782620322
N   N84       1.0  0.72440  0.25555  0.08610  1.0000 -0.5782620322
N   N85       1.0  0.25555  0.72440  0.91390  1.0000 -0.5782620322
N   N86       1.0  0.74445  0.27560  0.91390  1.0000 -0.5782620322
N   N87       1.0  0.27560  0.25555  0.91390  1.0000 -0.5782620322
N   N88       1.0  0.72440  0.74445  0.91390  1.0000 -0.5782620322
N   N89       1.0  0.24445  0.22440  0.41390  1.0000 -0.5782620322
N   N90       1.0  0.75555  0.77560  0.41390  1.0000 -0.5782620322
N   N91       1.0  0.22440  0.75555  0.41390  1.0000 -0.5782620322
N   N92       1.0  0.77560  0.24445  0.41390  1.0000 -0.5782620322
N   N93       1.0  0.24445  0.77560  0.58610  1.0000 -0.5782620322
N   N94       1.0  0.75555  0.22440  0.58610  1.0000 -0.5782620322
N   N95       1.0  0.22440  0.24445  0.58610  1.0000 -0.5782620322
N   N96       1.0  0.77560  0.75555  0.58610  1.0000 -0.5782620322
N   N97       1.0  0.25163  0.39698  0.11340  1.0000 -0.5475888804
N   N98       1.0  0.74837  0.60302  0.11340  1.0000 -0.5475888804
N   N99       1.0  0.39698  0.74837  0.11340  1.0000 -0.5475888804
N   N100      1.0  0.60302  0.25163  0.11340  1.0000 -0.5475888804
N   N101      1.0  0.25163  0.60302  0.88660  1.0000 -0.5475888804
N   N102      1.0  0.74837  0.39698  0.88660  1.0000 -0.5475888804
N   N103      1.0  0.39698  0.25163  0.88660  1.0000 -0.5475888804
N   N104      1.0  0.60302  0.74837  0.88660  1.0000 -0.5475888804
N   N105      1.0  0.24837  0.10302  0.38660  1.0000 -0.5475888804
N   N106      1.0  0.75163  0.89698  0.38660  1.0000 -0.5475888804
N   N107      1.0  0.10302  0.75163  0.38660  1.0000 -0.5475888804
N   N108      1.0  0.89698  0.24837  0.38660  1.0000 -0.5475888804
N   N109      1.0  0.24837  0.89698  0.61340  1.0000 -0.5475888804
N   N110      1.0  0.75163  0.10302  0.61340  1.0000 -0.5475888804
N   N111      1.0  0.10302  0.24837  0.61340  1.0000 -0.5475888804
N   N112      1.0  0.89698  0.75163  0.61340  1.0000 -0.5475888804
O   O1        1.0  0.00000  0.50000  0.25000  1.0000 -0.8575027745
O   O2        1.0  0.50000  0.00000  0.25000  1.0000 -0.8575027745
O   O3        1.0  0.00000  0.50000  0.75000  1.0000 -0.8575027745
O   O4        1.0  0.50000  0.00000  0.75000  1.0000 -0.8575027745
O   O5        1.0  0.43604  0.22525  0.02891  1.0000 -0.569611312
O   O6        1.0  0.56396  0.77475  0.02891  1.0000 -0.569611312
O   O7        1.0  0.22525  0.56396  0.02891  1.0000 -0.569611312
O   O8        1.0  0.77475  0.43604  0.02891  1.0000 -0.569611312
O   O9        1.0  0.43604  0.77475  0.97109  1.0000 -0.569611312
O   O10       1.0  0.56396  0.22525  0.97109  1.0000 -0.569611312
O   O11       1.0  0.22525  0.43604  0.97109  1.0000 -0.569611312
O   O12       1.0  0.77475  0.56396  0.97109  1.0000 -0.569611312
O   O13       1.0  0.06396  0.27475  0.47109  1.0000 -0.569611312
O   O14       1.0  0.93604  0.72525  0.47109  1.0000 -0.569611312
O   O15       1.0  0.27475  0.93604  0.47109  1.0000 -0.569611312
O   O16       1.0  0.72525  0.06396  0.47109  1.0000 -0.569611312
O   O17       1.0  0.06396  0.72525  0.52891  1.0000 -0.569611312
O   O18       1.0  0.93604  0.27475  0.52891  1.0000 -0.569611312
O   O19       1.0  0.27475  0.06396  0.52891  1.0000 -0.569611312
O   O20       1.0  0.72525  0.93604  0.52891  1.0000 -0.569611312
O   O21       1.0  0.10727  0.43982  0.26495  1.0000 -0.530451731
O   O22       1.0  0.89273  0.56018  0.26495  1.0000 -0.530451731
O   O23       1.0  0.43982  0.89273  0.26495  1.0000 -0.530451731
O   O24       1.0  0.56018  0.10727  0.26495  1.0000 -0.530451731
O   O25       1.0  0.10727  0.56018  0.73505  1.0000 -0.530451731
O   O26       1.0  0.89273  0.43982  0.73505  1.0000 -0.530451731
O   O27       1.0  0.43982  0.10727  0.73505  1.0000 -0.530451731
O   O28       1.0  0.56018  0.89273  0.73505  1.0000 -0.530451731
O   O29       1.0  0.39273  0.06018  0.23505  1.0000 -0.530451731
O   O30       1.0  0.60727  0.93982  0.23505  1.0000 -0.530451731
O   O31       1.0  0.06018  0.60727  0.23505  1.0000 -0.530451731
O   O32       1.0  0.93982  0.39273  0.23505  1.0000 -0.530451731
O   O33       1.0  0.39273  0.93982  0.76495  1.0000 -0.530451731
O   O34       1.0  0.60727  0.06018  0.76495  1.0000 -0.530451731
O   O35       1.0  0.06018  0.39273  0.76495  1.0000 -0.530451731
O   O36       1.0  0.93982  0.60727  0.76495  1.0000 -0.530451731
O   O37       1.0  0.12980  0.40518  0.35945  1.0000 -0.5582528274
O   O38       1.0  0.87020  0.59482  0.35945  1.0000 -0.5582528274
O   O39       1.0  0.40518  0.87020  0.35945  1.0000 -0.5582528274
O   O40       1.0  0.59482  0.12980  0.35945  1.0000 -0.5582528274
O   O41       1.0  0.12980  0.59482  0.64055  1.0000 -0.5582528274
O   O42       1.0  0.87020  0.40518  0.64055  1.0000 -0.5582528274
O   O43       1.0  0.40518  0.12980  0.64055  1.0000 -0.5582528274
O   O44       1.0  0.59482  0.87020  0.64055  1.0000 -0.5582528274
O   O45       1.0  0.37020  0.09482  0.14055  1.0000 -0.5582528274
O   O46       1.0  0.62980  0.90518  0.14055  1.0000 -0.5582528274
O   O47       1.0  0.09482  0.62980  0.14055  1.0000 -0.5582528274
O   O48       1.0  0.90518  0.37020  0.14055  1.0000 -0.5582528274
O   O49       1.0  0.37020  0.90518  0.85945  1.0000 -0.5582528274
O   O50       1.0  0.62980  0.09482  0.85945  1.0000 -0.5582528274
O   O51       1.0  0.09482  0.37020  0.85945  1.0000 -0.5582528274
O   O52       1.0  0.90518  0.62980  0.85945  1.0000 -0.5582528274
O   O53       1.0  0.48456  0.26206  0.10300  1.0000 -0.5227199134
O   O54       1.0  0.51544  0.73794  0.10300  1.0000 -0.5227199134
O   O55       1.0  0.26206  0.51544  0.10300  1.0000 -0.5227199134
O   O56       1.0  0.73794  0.48456  0.10300  1.0000 -0.5227199134
O   O57       1.0  0.48456  0.73794  0.89700  1.0000 -0.5227199134
O   O58       1.0  0.51544  0.26206  0.89700  1.0000 -0.5227199134
O   O59       1.0  0.26206  0.48456  0.89700  1.0000 -0.5227199134
O   O60       1.0  0.73794  0.51544  0.89700  1.0000 -0.5227199134
O   O61       1.0  0.01544  0.23794  0.39700  1.0000 -0.5227199134
O   O62       1.0  0.98456  0.76206  0.39700  1.0000 -0.5227199134
O   O63       1.0  0.23794  0.98456  0.39700  1.0000 -0.5227199134
O   O64       1.0  0.76206  0.01544  0.39700  1.0000 -0.5227199134
O   O65       1.0  0.01544  0.76206  0.60300  1.0000 -0.5227199134
O   O66       1.0  0.98456  0.23794  0.60300  1.0000 -0.5227199134
O   O67       1.0  0.23794  0.01544  0.60300  1.0000 -0.5227199134
O   O68       1.0  0.76206  0.98456  0.60300  1.0000 -0.5227199134
