# DDEC6 charges by PACMAN v1.1 (https://github.com/mtap-research/PACMAN-charge/)
data_d1ce00610j2_ASR_pacman
_symmetry_space_group_name_H-M   'P 1'
_cell_length_a   27.54550000
_cell_length_b   27.54550000
_cell_length_c   27.54550000
_cell_angle_alpha   90.00000000
_cell_angle_beta   90.00000000
_cell_angle_gamma   90.00000000
_symmetry_Int_Tables_number   1
_chemical_formula_structural   Zn2H9C11(N5O3)2
_chemical_formula_sum   'Zn24 H108 C132 N120 O72'
_cell_volume   20900.27401482
_cell_formula_units_Z   12
loop_
 _symmetry_equiv_pos_site_id
 _symmetry_equiv_pos_as_xyz
  1  'x, y, z'
loop_
 _atom_site_type_symbol
 _atom_site_label
 _atom_site_symmetry_multiplicity
 _atom_site_fract_x
 _atom_site_fract_y
 _atom_site_fract_z
 _atom_site_occupancy
 _atom_site_charge
Zn  Zn1  1  0.18518000  0.34281000  0.50000000  1.0 0.7863476262
Zn  Zn2  1  0.81482000  0.65719000  0.50000000  1.0 0.7863476262
Zn  Zn3  1  0.81482000  0.34281000  0.50000000  1.0 0.7863476262
Zn  Zn4  1  0.18518000  0.65719000  0.50000000  1.0 0.7863476262
Zn  Zn5  1  0.50000000  0.18518000  0.34281000  1.0 0.7863476262
Zn  Zn6  1  0.50000000  0.81482000  0.65719000  1.0 0.7863476262
Zn  Zn7  1  0.50000000  0.81482000  0.34281000  1.0 0.7863476262
Zn  Zn8  1  0.50000000  0.18518000  0.65719000  1.0 0.7863476262
Zn  Zn9  1  0.34281000  0.50000000  0.18518000  1.0 0.7863476262
Zn  Zn10  1  0.65719000  0.50000000  0.81482000  1.0 0.7863476262
Zn  Zn11  1  0.34281000  0.50000000  0.81482000  1.0 0.7863476262
Zn  Zn12  1  0.65719000  0.50000000  0.18518000  1.0 0.7863476262
Zn  Zn13  1  0.34281000  0.18518000  0.50000000  1.0 0.7863476262
Zn  Zn14  1  0.65719000  0.81482000  0.50000000  1.0 0.7863476262
Zn  Zn15  1  0.34281000  0.81482000  0.50000000  1.0 0.7863476262
Zn  Zn16  1  0.65719000  0.18518000  0.50000000  1.0 0.7863476262
Zn  Zn17  1  0.18518000  0.50000000  0.65719000  1.0 0.7863476262
Zn  Zn18  1  0.81482000  0.50000000  0.34281000  1.0 0.7863476262
Zn  Zn19  1  0.81482000  0.50000000  0.65719000  1.0 0.7863476262
Zn  Zn20  1  0.18518000  0.50000000  0.34281000  1.0 0.7863476262
Zn  Zn21  1  0.50000000  0.34281000  0.81482000  1.0 0.7863476262
Zn  Zn22  1  0.50000000  0.65719000  0.18518000  1.0 0.7863476262
Zn  Zn23  1  0.50000000  0.34281000  0.18518000  1.0 0.7863476262
Zn  Zn24  1  0.50000000  0.65719000  0.81482000  1.0 0.7863476262
H  H1  1  0.07343000  0.22609000  0.50000000  1.0 0.1296826158
H  H2  1  0.92657000  0.77391000  0.50000000  1.0 0.1296826158
H  H3  1  0.92657000  0.22609000  0.50000000  1.0 0.1296826158
H  H4  1  0.07343000  0.77391000  0.50000000  1.0 0.1296826158
H  H5  1  0.50000000  0.07343000  0.22609000  1.0 0.1296826158
H  H6  1  0.50000000  0.92657000  0.77391000  1.0 0.1296826158
H  H7  1  0.50000000  0.92657000  0.22609000  1.0 0.1296826158
H  H8  1  0.50000000  0.07343000  0.77391000  1.0 0.1296826158
H  H9  1  0.22609000  0.50000000  0.07343000  1.0 0.1296826158
H  H10  1  0.77391000  0.50000000  0.92657000  1.0 0.1296826158
H  H11  1  0.22609000  0.50000000  0.92657000  1.0 0.1296826158
H  H12  1  0.77391000  0.50000000  0.07343000  1.0 0.1296826158
H  H13  1  0.22609000  0.07343000  0.50000000  1.0 0.1296826158
H  H14  1  0.77391000  0.92657000  0.50000000  1.0 0.1296826158
H  H15  1  0.22609000  0.92657000  0.50000000  1.0 0.1296826158
H  H16  1  0.77391000  0.07343000  0.50000000  1.0 0.1296826158
H  H17  1  0.07343000  0.50000000  0.77391000  1.0 0.1296826158
H  H18  1  0.92657000  0.50000000  0.22609000  1.0 0.1296826158
H  H19  1  0.92657000  0.50000000  0.77391000  1.0 0.1296826158
H  H20  1  0.07343000  0.50000000  0.22609000  1.0 0.1296826158
H  H21  1  0.50000000  0.22609000  0.92657000  1.0 0.1296826158
H  H22  1  0.50000000  0.77391000  0.07343000  1.0 0.1296826158
H  H23  1  0.50000000  0.22609000  0.07343000  1.0 0.1296826158
H  H24  1  0.50000000  0.77391000  0.92657000  1.0 0.1296826158
H  H25  1  0.00000000  0.35001000  0.50000000  1.0 0.1235030577
H  H26  1  0.00000000  0.18636000  0.50000000  1.0 0.1139289871
H  H27  1  0.00000000  0.64999000  0.50000000  1.0 0.1235030577
H  H28  1  0.00000000  0.81364000  0.50000000  1.0 0.1139289871
H  H29  1  0.50000000  0.00000000  0.35001000  1.0 0.1235030577
H  H30  1  0.50000000  0.00000000  0.18636000  1.0 0.1139289871
H  H31  1  0.50000000  0.00000000  0.64999000  1.0 0.1235030577
H  H32  1  0.50000000  0.00000000  0.81364000  1.0 0.1139289871
H  H33  1  0.35001000  0.50000000  0.00000000  1.0 0.1235030577
H  H34  1  0.18636000  0.50000000  0.00000000  1.0 0.1139289871
H  H35  1  0.64999000  0.50000000  0.00000000  1.0 0.1235030577
H  H36  1  0.81364000  0.50000000  0.00000000  1.0 0.1139289871
H  H37  1  0.35001000  0.00000000  0.50000000  1.0 0.1235030577
H  H38  1  0.18636000  0.00000000  0.50000000  1.0 0.1139289871
H  H39  1  0.64999000  0.00000000  0.50000000  1.0 0.1235030577
H  H40  1  0.81364000  0.00000000  0.50000000  1.0 0.1139289871
H  H41  1  0.00000000  0.50000000  0.64999000  1.0 0.1235030577
H  H42  1  0.00000000  0.50000000  0.81364000  1.0 0.1139289871
H  H43  1  0.00000000  0.50000000  0.35001000  1.0 0.1235030577
H  H44  1  0.00000000  0.50000000  0.18636000  1.0 0.1139289871
H  H45  1  0.50000000  0.35001000  0.00000000  1.0 0.1235030577
H  H46  1  0.50000000  0.18636000  0.00000000  1.0 0.1139289871
H  H47  1  0.50000000  0.64999000  0.00000000  1.0 0.1235030577
H  H48  1  0.50000000  0.81364000  0.00000000  1.0 0.1139289871
H  H49  1  0.29848000  0.29848000  0.50000000  1.0 0.2297703162
H  H50  1  0.70152000  0.70152000  0.50000000  1.0 0.2297703162
H  H51  1  0.70152000  0.29848000  0.50000000  1.0 0.2297703162
H  H52  1  0.29848000  0.70152000  0.50000000  1.0 0.2297703162
H  H53  1  0.50000000  0.29848000  0.29848000  1.0 0.2297703162
H  H54  1  0.50000000  0.70152000  0.70152000  1.0 0.2297703162
H  H55  1  0.50000000  0.70152000  0.29848000  1.0 0.2297703162
H  H56  1  0.50000000  0.29848000  0.70152000  1.0 0.2297703162
H  H57  1  0.29848000  0.50000000  0.29848000  1.0 0.2297703162
H  H58  1  0.70152000  0.50000000  0.70152000  1.0 0.2297703162
H  H59  1  0.29848000  0.50000000  0.70152000  1.0 0.2297703162
H  H60  1  0.70152000  0.50000000  0.29848000  1.0 0.2297703162
H  H61  1  0.11194000  0.44467000  0.54432000  0.5 0.2070319489
H  H62  1  0.10056000  0.39966000  0.56796000  0.5 0.2035718384
H  H63  1  0.88806000  0.55533000  0.54432000  0.5 0.2070319489
H  H64  1  0.89944000  0.60034000  0.56796000  0.5 0.2035718384
H  H65  1  0.88806000  0.44467000  0.45568000  0.5 0.2070319489
H  H66  1  0.89944000  0.39966000  0.43204000  0.5 0.2035718384
H  H67  1  0.11194000  0.55533000  0.45568000  0.5 0.2070319489
H  H68  1  0.10056000  0.60034000  0.43204000  0.5 0.2035718384
H  H69  1  0.54432000  0.11194000  0.44467000  0.5 0.2070319489
H  H70  1  0.56796000  0.10056000  0.39966000  0.5 0.2035718384
H  H71  1  0.54432000  0.88806000  0.55533000  0.5 0.2070319489
H  H72  1  0.56796000  0.89944000  0.60034000  0.5 0.2035718384
H  H73  1  0.45568000  0.88806000  0.44467000  0.5 0.2070319489
H  H74  1  0.43204000  0.89944000  0.39966000  0.5 0.2035718384
H  H75  1  0.45568000  0.11194000  0.55533000  0.5 0.2070319489
H  H76  1  0.43204000  0.10056000  0.60034000  0.5 0.2035718384
H  H77  1  0.44467000  0.54432000  0.11194000  0.5 0.2070319489
H  H78  1  0.39966000  0.56796000  0.10056000  0.5 0.2035718384
H  H79  1  0.55533000  0.54432000  0.88806000  0.5 0.2070319489
H  H80  1  0.60034000  0.56796000  0.89944000  0.5 0.2035718384
H  H81  1  0.44467000  0.45568000  0.88806000  0.5 0.2070319489
H  H82  1  0.39966000  0.43204000  0.89944000  0.5 0.2035718384
H  H83  1  0.55533000  0.45568000  0.11194000  0.5 0.2070319489
H  H84  1  0.60034000  0.43204000  0.10056000  0.5 0.2035718384
H  H85  1  0.44467000  0.11194000  0.45568000  0.5 0.2070319489
H  H86  1  0.39966000  0.10056000  0.43204000  0.5 0.2035718384
H  H87  1  0.55533000  0.88806000  0.45568000  0.5 0.2070319489
H  H88  1  0.60034000  0.89944000  0.43204000  0.5 0.2035718384
H  H89  1  0.44467000  0.88806000  0.54432000  0.5 0.2070319489
H  H90  1  0.39966000  0.89944000  0.56796000  0.5 0.2035718384
H  H91  1  0.55533000  0.11194000  0.54432000  0.5 0.2070319489
H  H92  1  0.60034000  0.10056000  0.56796000  0.5 0.2035718384
H  H93  1  0.11194000  0.54432000  0.55533000  0.5 0.2070319489
H  H94  1  0.10056000  0.56796000  0.60034000  0.5 0.2035718384
H  H95  1  0.88806000  0.54432000  0.44467000  0.5 0.2070319489
H  H96  1  0.89944000  0.56796000  0.39966000  0.5 0.2035718384
H  H97  1  0.88806000  0.45568000  0.55533000  0.5 0.2070319489
H  H98  1  0.89944000  0.43204000  0.60034000  0.5 0.2035718384
H  H99  1  0.11194000  0.45568000  0.44467000  0.5 0.2070319489
H  H100  1  0.10056000  0.43204000  0.39966000  0.5 0.2035718384
H  H101  1  0.54432000  0.44467000  0.88806000  0.5 0.2070319489
H  H102  1  0.56796000  0.39966000  0.89944000  0.5 0.2035718384
H  H103  1  0.54432000  0.55533000  0.11194000  0.5 0.2070319489
H  H104  1  0.56796000  0.60034000  0.10056000  0.5 0.2035718384
H  H105  1  0.45568000  0.44467000  0.11194000  0.5 0.2070319489
H  H106  1  0.43204000  0.39966000  0.10056000  0.5 0.2035718384
H  H107  1  0.45568000  0.55533000  0.88806000  0.5 0.2070319489
H  H108  1  0.43204000  0.60034000  0.89944000  0.5 0.2035718384
H  H109  1  0.88806000  0.55533000  0.45568000  0.5 0.2070319489
H  H110  1  0.89944000  0.60034000  0.43204000  0.5 0.2035718384
H  H111  1  0.11194000  0.44467000  0.45568000  0.5 0.2070319489
H  H112  1  0.10056000  0.39966000  0.43204000  0.5 0.2035718384
H  H113  1  0.11194000  0.55533000  0.54432000  0.5 0.2070319489
H  H114  1  0.10056000  0.60034000  0.56796000  0.5 0.2035718384
H  H115  1  0.88806000  0.44467000  0.54432000  0.5 0.2070319489
H  H116  1  0.89944000  0.39966000  0.56796000  0.5 0.2035718384
H  H117  1  0.45568000  0.88806000  0.55533000  0.5 0.2070319489
H  H118  1  0.43204000  0.89944000  0.60034000  0.5 0.2035718384
H  H119  1  0.45568000  0.11194000  0.44467000  0.5 0.2070319489
H  H120  1  0.43204000  0.10056000  0.39966000  0.5 0.2035718384
H  H121  1  0.54432000  0.11194000  0.55533000  0.5 0.2070319489
H  H122  1  0.56796000  0.10056000  0.60034000  0.5 0.2035718384
H  H123  1  0.54432000  0.88806000  0.44467000  0.5 0.2070319489
H  H124  1  0.56796000  0.89944000  0.39966000  0.5 0.2035718384
H  H125  1  0.55533000  0.45568000  0.88806000  0.5 0.2070319489
H  H126  1  0.60034000  0.43204000  0.89944000  0.5 0.2035718384
H  H127  1  0.44467000  0.45568000  0.11194000  0.5 0.2070319489
H  H128  1  0.39966000  0.43204000  0.10056000  0.5 0.2035718384
H  H129  1  0.55533000  0.54432000  0.11194000  0.5 0.2070319489
H  H130  1  0.60034000  0.56796000  0.10056000  0.5 0.2035718384
H  H131  1  0.44467000  0.54432000  0.88806000  0.5 0.2070319489
H  H132  1  0.39966000  0.56796000  0.89944000  0.5 0.2035718384
H  H133  1  0.55533000  0.88806000  0.54432000  0.5 0.2070319489
H  H134  1  0.60034000  0.89944000  0.56796000  0.5 0.2035718384
H  H135  1  0.44467000  0.11194000  0.54432000  0.5 0.2070319489
H  H136  1  0.39966000  0.10056000  0.56796000  0.5 0.2035718384
H  H137  1  0.55533000  0.11194000  0.45568000  0.5 0.2070319489
H  H138  1  0.60034000  0.10056000  0.43204000  0.5 0.2035718384
H  H139  1  0.44467000  0.88806000  0.45568000  0.5 0.2070319489
H  H140  1  0.39966000  0.89944000  0.43204000  0.5 0.2035718384
H  H141  1  0.88806000  0.45568000  0.44467000  0.5 0.2070319489
H  H142  1  0.89944000  0.43204000  0.39966000  0.5 0.2035718384
H  H143  1  0.11194000  0.45568000  0.55533000  0.5 0.2070319489
H  H144  1  0.10056000  0.43204000  0.60034000  0.5 0.2035718384
H  H145  1  0.11194000  0.54432000  0.44467000  0.5 0.2070319489
H  H146  1  0.10056000  0.56796000  0.39966000  0.5 0.2035718384
H  H147  1  0.88806000  0.54432000  0.55533000  0.5 0.2070319489
H  H148  1  0.89944000  0.56796000  0.60034000  0.5 0.2035718384
H  H149  1  0.45568000  0.55533000  0.11194000  0.5 0.2070319489
H  H150  1  0.43204000  0.60034000  0.10056000  0.5 0.2035718384
H  H151  1  0.45568000  0.44467000  0.88806000  0.5 0.2070319489
H  H152  1  0.43204000  0.39966000  0.89944000  0.5 0.2035718384
H  H153  1  0.54432000  0.55533000  0.88806000  0.5 0.2070319489
H  H154  1  0.56796000  0.60034000  0.89944000  0.5 0.2035718384
H  H155  1  0.54432000  0.44467000  0.11194000  0.5 0.2070319489
H  H156  1  0.56796000  0.39966000  0.10056000  0.5 0.2035718384
C  C1  1  0.09020000  0.32130000  0.50000000  1.0 0.555967846
C  C2  1  0.04290000  0.29300000  0.50000000  1.0 -0.0255097501
C  C3  1  0.04430000  0.24320000  0.50000000  1.0 -0.0976037271
C  C4  1  0.90980000  0.67870000  0.50000000  1.0 0.555967846
C  C5  1  0.95710000  0.70700000  0.50000000  1.0 -0.0248145652
C  C6  1  0.95570000  0.75680000  0.50000000  1.0 -0.0976037271
C  C7  1  0.90980000  0.32130000  0.50000000  1.0 0.555967846
C  C8  1  0.95710000  0.29300000  0.50000000  1.0 -0.0248145652
C  C9  1  0.95570000  0.24320000  0.50000000  1.0 -0.0976037271
C  C10  1  0.09020000  0.67870000  0.50000000  1.0 0.555967846
C  C11  1  0.04290000  0.70700000  0.50000000  1.0 -0.0255097501
C  C12  1  0.04430000  0.75680000  0.50000000  1.0 -0.0976037271
C  C13  1  0.50000000  0.09020000  0.32130000  1.0 0.555967846
C  C14  1  0.50000000  0.04290000  0.29300000  1.0 -0.0248145652
C  C15  1  0.50000000  0.04430000  0.24320000  1.0 -0.0976037271
C  C16  1  0.50000000  0.90980000  0.67870000  1.0 0.555967846
C  C17  1  0.50000000  0.95710000  0.70700000  1.0 -0.0248145652
C  C18  1  0.50000000  0.95570000  0.75680000  1.0 -0.0976037271
C  C19  1  0.50000000  0.90980000  0.32130000  1.0 0.555967846
C  C20  1  0.50000000  0.95710000  0.29300000  1.0 -0.0248145652
C  C21  1  0.50000000  0.95570000  0.24320000  1.0 -0.0976037271
C  C22  1  0.50000000  0.09020000  0.67870000  1.0 0.555967846
C  C23  1  0.50000000  0.04290000  0.70700000  1.0 -0.0248145652
C  C24  1  0.50000000  0.04430000  0.75680000  1.0 -0.0976037271
C  C25  1  0.32130000  0.50000000  0.09020000  1.0 0.555967846
C  C26  1  0.29300000  0.50000000  0.04290000  1.0 -0.0248145652
C  C27  1  0.24320000  0.50000000  0.04430000  1.0 -0.0976037271
C  C28  1  0.67870000  0.50000000  0.90980000  1.0 0.555967846
C  C29  1  0.70700000  0.50000000  0.95710000  1.0 -0.0248145652
C  C30  1  0.75680000  0.50000000  0.95570000  1.0 -0.0976037271
C  C31  1  0.32130000  0.50000000  0.90980000  1.0 0.555967846
C  C32  1  0.29300000  0.50000000  0.95710000  1.0 -0.0248145652
C  C33  1  0.24320000  0.50000000  0.95570000  1.0 -0.0976037271
C  C34  1  0.67870000  0.50000000  0.09020000  1.0 0.555967846
C  C35  1  0.70700000  0.50000000  0.04290000  1.0 -0.0248145652
C  C36  1  0.75680000  0.50000000  0.04430000  1.0 -0.0976037271
C  C37  1  0.32130000  0.09020000  0.50000000  1.0 0.555967846
C  C38  1  0.29300000  0.04290000  0.50000000  1.0 -0.0248145652
C  C39  1  0.24320000  0.04430000  0.50000000  1.0 -0.0976037271
C  C40  1  0.67870000  0.90980000  0.50000000  1.0 0.555967846
C  C41  1  0.70700000  0.95710000  0.50000000  1.0 -0.0248145652
C  C42  1  0.75680000  0.95570000  0.50000000  1.0 -0.0976037271
C  C43  1  0.32130000  0.90980000  0.50000000  1.0 0.555967846
C  C44  1  0.29300000  0.95710000  0.50000000  1.0 -0.0248145652
C  C45  1  0.24320000  0.95570000  0.50000000  1.0 -0.0976037271
C  C46  1  0.67870000  0.09020000  0.50000000  1.0 0.555967846
C  C47  1  0.70700000  0.04290000  0.50000000  1.0 -0.0248145652
C  C48  1  0.75680000  0.04430000  0.50000000  1.0 -0.0976037271
C  C49  1  0.09020000  0.50000000  0.67870000  1.0 0.555967846
C  C50  1  0.04290000  0.50000000  0.70700000  1.0 -0.0255097501
C  C51  1  0.04430000  0.50000000  0.75680000  1.0 -0.0976037271
C  C52  1  0.90980000  0.50000000  0.32130000  1.0 0.555967846
C  C53  1  0.95710000  0.50000000  0.29300000  1.0 -0.0248145652
C  C54  1  0.95570000  0.50000000  0.24320000  1.0 -0.0976037271
C  C55  1  0.90980000  0.50000000  0.67870000  1.0 0.555967846
C  C56  1  0.95710000  0.50000000  0.70700000  1.0 -0.0248145652
C  C57  1  0.95570000  0.50000000  0.75680000  1.0 -0.0976037271
C  C58  1  0.09020000  0.50000000  0.32130000  1.0 0.555967846
C  C59  1  0.04290000  0.50000000  0.29300000  1.0 -0.0255097501
C  C60  1  0.04430000  0.50000000  0.24320000  1.0 -0.0976037271
C  C61  1  0.50000000  0.32130000  0.90980000  1.0 0.555967846
C  C62  1  0.50000000  0.29300000  0.95710000  1.0 -0.0248145652
C  C63  1  0.50000000  0.24320000  0.95570000  1.0 -0.0976037271
C  C64  1  0.50000000  0.67870000  0.09020000  1.0 0.555967846
C  C65  1  0.50000000  0.70700000  0.04290000  1.0 -0.0248145652
C  C66  1  0.50000000  0.75680000  0.04430000  1.0 -0.0976037271
C  C67  1  0.50000000  0.32130000  0.09020000  1.0 0.555967846
C  C68  1  0.50000000  0.29300000  0.04290000  1.0 -0.0248145652
C  C69  1  0.50000000  0.24320000  0.04430000  1.0 -0.0976037271
C  C70  1  0.50000000  0.67870000  0.90980000  1.0 0.555967846
C  C71  1  0.50000000  0.70700000  0.95710000  1.0 -0.0248145652
C  C72  1  0.50000000  0.75680000  0.95570000  1.0 -0.0976037271
C  C73  1  0.16820000  0.41999000  0.58001000  1.0 0.3573293
C  C74  1  0.83180000  0.58001000  0.58001000  1.0 0.3573293
C  C75  1  0.83180000  0.41999000  0.41999000  1.0 0.3573293
C  C76  1  0.16820000  0.58001000  0.41999000  1.0 0.3573293
C  C77  1  0.58001000  0.16820000  0.41999000  1.0 0.3573293
C  C78  1  0.58001000  0.83180000  0.58001000  1.0 0.3573293
C  C79  1  0.41999000  0.83180000  0.41999000  1.0 0.3573293
C  C80  1  0.41999000  0.16820000  0.58001000  1.0 0.3573293
C  C81  1  0.41999000  0.58001000  0.16820000  1.0 0.3573293
C  C82  1  0.58001000  0.58001000  0.83180000  1.0 0.3573293
C  C83  1  0.41999000  0.41999000  0.83180000  1.0 0.3573293
C  C84  1  0.58001000  0.41999000  0.16820000  1.0 0.3573293
C  C85  1  0.41999000  0.16820000  0.41999000  1.0 0.3573293
C  C86  1  0.58001000  0.83180000  0.41999000  1.0 0.3573293
C  C87  1  0.41999000  0.83180000  0.58001000  1.0 0.3573293
C  C88  1  0.58001000  0.16820000  0.58001000  1.0 0.3573293
C  C89  1  0.16820000  0.58001000  0.58001000  1.0 0.3573293
C  C90  1  0.83180000  0.58001000  0.41999000  1.0 0.3573293
C  C91  1  0.83180000  0.41999000  0.58001000  1.0 0.3573293
C  C92  1  0.16820000  0.41999000  0.41999000  1.0 0.3573293
C  C93  1  0.58001000  0.41999000  0.83180000  1.0 0.3573293
C  C94  1  0.58001000  0.58001000  0.16820000  1.0 0.3573293
C  C95  1  0.41999000  0.41999000  0.16820000  1.0 0.3573293
C  C96  1  0.41999000  0.58001000  0.83180000  1.0 0.3573293
C  C97  1  0.00000000  0.31630000  0.50000000  1.0 -0.1320641279
C  C98  1  0.00000000  0.22010000  0.50000000  1.0 -0.1163532563
C  C99  1  0.00000000  0.68370000  0.50000000  1.0 -0.1320641279
C  C100  1  0.00000000  0.77990000  0.50000000  1.0 -0.1163532563
C  C101  1  0.50000000  0.00000000  0.31630000  1.0 -0.1320641279
C  C102  1  0.50000000  0.00000000  0.22010000  1.0 -0.1163532563
C  C103  1  0.50000000  0.00000000  0.68370000  1.0 -0.1320641279
C  C104  1  0.50000000  0.00000000  0.77990000  1.0 -0.1163532563
C  C105  1  0.31630000  0.50000000  0.00000000  1.0 -0.1320641279
C  C106  1  0.22010000  0.50000000  0.00000000  1.0 -0.1163532563
C  C107  1  0.68370000  0.50000000  0.00000000  1.0 -0.1320641279
C  C108  1  0.77990000  0.50000000  0.00000000  1.0 -0.1163532563
C  C109  1  0.31630000  0.00000000  0.50000000  1.0 -0.1320641279
C  C110  1  0.22010000  0.00000000  0.50000000  1.0 -0.1163532563
C  C111  1  0.68370000  0.00000000  0.50000000  1.0 -0.1320641279
C  C112  1  0.77990000  0.00000000  0.50000000  1.0 -0.1163532563
C  C113  1  0.00000000  0.50000000  0.68370000  1.0 -0.1320641279
C  C114  1  0.00000000  0.50000000  0.77990000  1.0 -0.1163532563
C  C115  1  0.00000000  0.50000000  0.31630000  1.0 -0.1320641279
C  C116  1  0.00000000  0.50000000  0.22010000  1.0 -0.1163532563
C  C117  1  0.50000000  0.31630000  0.00000000  1.0 -0.1320641279
C  C118  1  0.50000000  0.22010000  0.00000000  1.0 -0.1163532563
C  C119  1  0.50000000  0.68370000  0.00000000  1.0 -0.1320641279
C  C120  1  0.50000000  0.77990000  0.00000000  1.0 -0.1163532563
C  C121  1  0.27460000  0.27460000  0.50000000  1.0 0.4087008769
C  C122  1  0.72540000  0.72540000  0.50000000  1.0 0.4087008769
C  C123  1  0.72540000  0.27460000  0.50000000  1.0 0.4087008769
C  C124  1  0.27460000  0.72540000  0.50000000  1.0 0.4087008769
C  C125  1  0.50000000  0.27460000  0.27460000  1.0 0.4087008769
C  C126  1  0.50000000  0.72540000  0.72540000  1.0 0.4087008769
C  C127  1  0.50000000  0.72540000  0.27460000  1.0 0.4087008769
C  C128  1  0.50000000  0.27460000  0.72540000  1.0 0.4087008769
C  C129  1  0.27460000  0.50000000  0.27460000  1.0 0.4087008769
C  C130  1  0.72540000  0.50000000  0.72540000  1.0 0.4087008769
C  C131  1  0.27460000  0.50000000  0.72540000  1.0 0.4087008769
C  C132  1  0.72540000  0.50000000  0.27460000  1.0 0.4087008769
N  N1  1  0.19295000  0.38555000  0.55874000  1.0 -0.3277014323
N  N2  1  0.23649000  0.38600000  0.58090000  1.0 -0.0946665048
N  N3  1  0.80705000  0.61445000  0.55874000  1.0 -0.3277014323
N  N4  1  0.76351000  0.61400000  0.58090000  1.0 -0.0946665048
N  N5  1  0.80705000  0.38555000  0.44126000  1.0 -0.3277014323
N  N6  1  0.76351000  0.38600000  0.41910000  1.0 -0.0946665048
N  N7  1  0.19295000  0.61445000  0.44126000  1.0 -0.3277014323
N  N8  1  0.23649000  0.61400000  0.41910000  1.0 -0.0946665048
N  N9  1  0.55874000  0.19295000  0.38555000  1.0 -0.3277014323
N  N10  1  0.58090000  0.23649000  0.38600000  1.0 -0.0946665048
N  N11  1  0.55874000  0.80705000  0.61445000  1.0 -0.3277014323
N  N12  1  0.58090000  0.76351000  0.61400000  1.0 -0.0946665048
N  N13  1  0.44126000  0.80705000  0.38555000  1.0 -0.3277014323
N  N14  1  0.41910000  0.76351000  0.38600000  1.0 -0.0946665048
N  N15  1  0.44126000  0.19295000  0.61445000  1.0 -0.3277014323
N  N16  1  0.41910000  0.23649000  0.61400000  1.0 -0.0946665048
N  N17  1  0.38555000  0.55874000  0.19295000  1.0 -0.3277014323
N  N18  1  0.38600000  0.58090000  0.23649000  1.0 -0.0946665048
N  N19  1  0.61445000  0.55874000  0.80705000  1.0 -0.3277014323
N  N20  1  0.61400000  0.58090000  0.76351000  1.0 -0.0946665048
N  N21  1  0.38555000  0.44126000  0.80705000  1.0 -0.3277014323
N  N22  1  0.38600000  0.41910000  0.76351000  1.0 -0.0946665048
N  N23  1  0.61445000  0.44126000  0.19295000  1.0 -0.3277014323
N  N24  1  0.61400000  0.41910000  0.23649000  1.0 -0.0946665048
N  N25  1  0.38555000  0.19295000  0.44126000  1.0 -0.3277014323
N  N26  1  0.38600000  0.23649000  0.41910000  1.0 -0.0946665048
N  N27  1  0.61445000  0.80705000  0.44126000  1.0 -0.3277014323
N  N28  1  0.61400000  0.76351000  0.41910000  1.0 -0.0946665048
N  N29  1  0.38555000  0.80705000  0.55874000  1.0 -0.3277014323
N  N30  1  0.38600000  0.76351000  0.58090000  1.0 -0.0946665048
N  N31  1  0.61445000  0.19295000  0.55874000  1.0 -0.3277014323
N  N32  1  0.61400000  0.23649000  0.58090000  1.0 -0.0946665048
N  N33  1  0.19295000  0.55874000  0.61445000  1.0 -0.3277014323
N  N34  1  0.23649000  0.58090000  0.61400000  1.0 -0.0946665048
N  N35  1  0.80705000  0.55874000  0.38555000  1.0 -0.3277014323
N  N36  1  0.76351000  0.58090000  0.38600000  1.0 -0.0946665048
N  N37  1  0.80705000  0.44126000  0.61445000  1.0 -0.3277014323
N  N38  1  0.76351000  0.41910000  0.61400000  1.0 -0.0946665048
N  N39  1  0.19295000  0.44126000  0.38555000  1.0 -0.3277014323
N  N40  1  0.23649000  0.41910000  0.38600000  1.0 -0.0946665048
N  N41  1  0.55874000  0.38555000  0.80705000  1.0 -0.3277014323
N  N42  1  0.58090000  0.38600000  0.76351000  1.0 -0.0946665048
N  N43  1  0.55874000  0.61445000  0.19295000  1.0 -0.3277014323
N  N44  1  0.58090000  0.61400000  0.23649000  1.0 -0.0946665048
N  N45  1  0.44126000  0.38555000  0.19295000  1.0 -0.3277014323
N  N46  1  0.41910000  0.38600000  0.23649000  1.0 -0.0946665048
N  N47  1  0.44126000  0.61445000  0.80705000  1.0 -0.3277014323
N  N48  1  0.41910000  0.61400000  0.76351000  1.0 -0.0946665048
N  N49  1  0.80705000  0.61445000  0.44126000  1.0 -0.3277014323
N  N50  1  0.76351000  0.61400000  0.41910000  1.0 -0.0946665048
N  N51  1  0.19295000  0.38555000  0.44126000  1.0 -0.3277014323
N  N52  1  0.23649000  0.38600000  0.41910000  1.0 -0.0946665048
N  N53  1  0.19295000  0.61445000  0.55874000  1.0 -0.3277014323
N  N54  1  0.23649000  0.61400000  0.58090000  1.0 -0.0946665048
N  N55  1  0.80705000  0.38555000  0.55874000  1.0 -0.3277014323
N  N56  1  0.76351000  0.38600000  0.58090000  1.0 -0.0946665048
N  N57  1  0.44126000  0.80705000  0.61445000  1.0 -0.3277014323
N  N58  1  0.41910000  0.76351000  0.61400000  1.0 -0.0946665048
N  N59  1  0.44126000  0.19295000  0.38555000  1.0 -0.3277014323
N  N60  1  0.41910000  0.23649000  0.38600000  1.0 -0.0946665048
N  N61  1  0.55874000  0.19295000  0.61445000  1.0 -0.3277014323
N  N62  1  0.58090000  0.23649000  0.61400000  1.0 -0.0946665048
N  N63  1  0.55874000  0.80705000  0.38555000  1.0 -0.3277014323
N  N64  1  0.58090000  0.76351000  0.38600000  1.0 -0.0946665048
N  N65  1  0.61445000  0.44126000  0.80705000  1.0 -0.3277014323
N  N66  1  0.61400000  0.41910000  0.76351000  1.0 -0.0946665048
N  N67  1  0.38555000  0.44126000  0.19295000  1.0 -0.3277014323
N  N68  1  0.38600000  0.41910000  0.23649000  1.0 -0.0946665048
N  N69  1  0.61445000  0.55874000  0.19295000  1.0 -0.3277014323
N  N70  1  0.61400000  0.58090000  0.23649000  1.0 -0.0946665048
N  N71  1  0.38555000  0.55874000  0.80705000  1.0 -0.3277014323
N  N72  1  0.38600000  0.58090000  0.76351000  1.0 -0.0946665048
N  N73  1  0.61445000  0.80705000  0.55874000  1.0 -0.3277014323
N  N74  1  0.61400000  0.76351000  0.58090000  1.0 -0.0946665048
N  N75  1  0.38555000  0.19295000  0.55874000  1.0 -0.3277014323
N  N76  1  0.38600000  0.23649000  0.58090000  1.0 -0.0946665048
N  N77  1  0.61445000  0.19295000  0.44126000  1.0 -0.3277014323
N  N78  1  0.61400000  0.23649000  0.41910000  1.0 -0.0946665048
N  N79  1  0.38555000  0.80705000  0.44126000  1.0 -0.3277014323
N  N80  1  0.38600000  0.76351000  0.41910000  1.0 -0.0946665048
N  N81  1  0.80705000  0.44126000  0.38555000  1.0 -0.3277014323
N  N82  1  0.76351000  0.41910000  0.38600000  1.0 -0.0946665048
N  N83  1  0.19295000  0.44126000  0.61445000  1.0 -0.3277014323
N  N84  1  0.23649000  0.41910000  0.61400000  1.0 -0.0946665048
N  N85  1  0.19295000  0.55874000  0.38555000  1.0 -0.3277014323
N  N86  1  0.23649000  0.58090000  0.38600000  1.0 -0.0946665048
N  N87  1  0.80705000  0.55874000  0.61445000  1.0 -0.3277014323
N  N88  1  0.76351000  0.58090000  0.61400000  1.0 -0.0946665048
N  N89  1  0.44126000  0.61445000  0.19295000  1.0 -0.3277014323
N  N90  1  0.41910000  0.61400000  0.23649000  1.0 -0.0946665048
N  N91  1  0.44126000  0.38555000  0.80705000  1.0 -0.3277014323
N  N92  1  0.41910000  0.38600000  0.76351000  1.0 -0.0946665048
N  N93  1  0.55874000  0.61445000  0.80705000  1.0 -0.3277014323
N  N94  1  0.58090000  0.61400000  0.76351000  1.0 -0.0946665048
N  N95  1  0.55874000  0.38555000  0.19295000  1.0 -0.3277014323
N  N96  1  0.58090000  0.38600000  0.23649000  1.0 -0.0946665048
N  N97  1  0.11980000  0.42660000  0.57340000  1.0 -0.4633433027
N  N98  1  0.88020000  0.57340000  0.57340000  1.0 -0.4633433027
N  N99  1  0.88020000  0.42660000  0.42660000  1.0 -0.4633433027
N  N100  1  0.11980000  0.57340000  0.42660000  1.0 -0.4633433027
N  N101  1  0.57340000  0.11980000  0.42660000  1.0 -0.4633433027
N  N102  1  0.57340000  0.88020000  0.57340000  1.0 -0.4633433027
N  N103  1  0.42660000  0.88020000  0.42660000  1.0 -0.4633433027
N  N104  1  0.42660000  0.11980000  0.57340000  1.0 -0.4633433027
N  N105  1  0.42660000  0.57340000  0.11980000  1.0 -0.4633433027
N  N106  1  0.57340000  0.57340000  0.88020000  1.0 -0.4633433027
N  N107  1  0.42660000  0.42660000  0.88020000  1.0 -0.4633433027
N  N108  1  0.57340000  0.42660000  0.11980000  1.0 -0.4633433027
N  N109  1  0.42660000  0.11980000  0.42660000  1.0 -0.4633433027
N  N110  1  0.57340000  0.88020000  0.42660000  1.0 -0.4633433027
N  N111  1  0.42660000  0.88020000  0.57340000  1.0 -0.4633433027
N  N112  1  0.57340000  0.11980000  0.57340000  1.0 -0.4633433027
N  N113  1  0.11980000  0.57340000  0.57340000  1.0 -0.4633433027
N  N114  1  0.88020000  0.57340000  0.42660000  1.0 -0.4633433027
N  N115  1  0.88020000  0.42660000  0.57340000  1.0 -0.4633433027
N  N116  1  0.11980000  0.42660000  0.42660000  1.0 -0.4633433027
N  N117  1  0.57340000  0.42660000  0.88020000  1.0 -0.4633433027
N  N118  1  0.57340000  0.57340000  0.11980000  1.0 -0.4633433027
N  N119  1  0.42660000  0.42660000  0.11980000  1.0 -0.4633433027
N  N120  1  0.42660000  0.57340000  0.88020000  1.0 -0.4633433027
O  O1  1  0.08778000  0.36648000  0.50000000  1.0 -0.6078701307
O  O2  1  0.12947000  0.29880000  0.50000000  1.0 -0.5242506579
O  O3  1  0.23850000  0.29480000  0.50000000  1.0 -0.4015437677
O  O4  1  0.91222000  0.63352000  0.50000000  1.0 -0.6078701307
O  O5  1  0.87053000  0.70120000  0.50000000  1.0 -0.5242506579
O  O6  1  0.76150000  0.70520000  0.50000000  1.0 -0.4015437677
O  O7  1  0.91222000  0.36648000  0.50000000  1.0 -0.6078701307
O  O8  1  0.87053000  0.29880000  0.50000000  1.0 -0.5242506579
O  O9  1  0.76150000  0.29480000  0.50000000  1.0 -0.4015437677
O  O10  1  0.08778000  0.63352000  0.50000000  1.0 -0.6078701307
O  O11  1  0.12947000  0.70120000  0.50000000  1.0 -0.5242506579
O  O12  1  0.23850000  0.70520000  0.50000000  1.0 -0.4015437677
O  O13  1  0.50000000  0.08778000  0.36648000  1.0 -0.6078701307
O  O14  1  0.50000000  0.12947000  0.29880000  1.0 -0.5242506579
O  O15  1  0.50000000  0.23850000  0.29480000  1.0 -0.4015437677
O  O16  1  0.50000000  0.91222000  0.63352000  1.0 -0.6078701307
O  O17  1  0.50000000  0.87053000  0.70120000  1.0 -0.5242506579
O  O18  1  0.50000000  0.76150000  0.70520000  1.0 -0.4015437677
O  O19  1  0.50000000  0.91222000  0.36648000  1.0 -0.6078701307
O  O20  1  0.50000000  0.87053000  0.29880000  1.0 -0.5242506579
O  O21  1  0.50000000  0.76150000  0.29480000  1.0 -0.4015437677
O  O22  1  0.50000000  0.08778000  0.63352000  1.0 -0.6078701307
O  O23  1  0.50000000  0.12947000  0.70120000  1.0 -0.5242506579
O  O24  1  0.50000000  0.23850000  0.70520000  1.0 -0.4015437677
O  O25  1  0.36648000  0.50000000  0.08778000  1.0 -0.6078701307
O  O26  1  0.29880000  0.50000000  0.12947000  1.0 -0.5242506579
O  O27  1  0.29480000  0.50000000  0.23850000  1.0 -0.4015437677
O  O28  1  0.63352000  0.50000000  0.91222000  1.0 -0.6078701307
O  O29  1  0.70120000  0.50000000  0.87053000  1.0 -0.5242506579
O  O30  1  0.70520000  0.50000000  0.76150000  1.0 -0.4015437677
O  O31  1  0.36648000  0.50000000  0.91222000  1.0 -0.6078701307
O  O32  1  0.29880000  0.50000000  0.87053000  1.0 -0.5242506579
O  O33  1  0.29480000  0.50000000  0.76150000  1.0 -0.4015437677
O  O34  1  0.63352000  0.50000000  0.08778000  1.0 -0.6078701307
O  O35  1  0.70120000  0.50000000  0.12947000  1.0 -0.5242506579
O  O36  1  0.70520000  0.50000000  0.23850000  1.0 -0.4015437677
O  O37  1  0.36648000  0.08778000  0.50000000  1.0 -0.6078701307
O  O38  1  0.29880000  0.12947000  0.50000000  1.0 -0.5242506579
O  O39  1  0.29480000  0.23850000  0.50000000  1.0 -0.4015437677
O  O40  1  0.63352000  0.91222000  0.50000000  1.0 -0.6078701307
O  O41  1  0.70120000  0.87053000  0.50000000  1.0 -0.5242506579
O  O42  1  0.70520000  0.76150000  0.50000000  1.0 -0.4015437677
O  O43  1  0.36648000  0.91222000  0.50000000  1.0 -0.6078701307
O  O44  1  0.29880000  0.87053000  0.50000000  1.0 -0.5242506579
O  O45  1  0.29480000  0.76150000  0.50000000  1.0 -0.4015437677
O  O46  1  0.63352000  0.08778000  0.50000000  1.0 -0.6078701307
O  O47  1  0.70120000  0.12947000  0.50000000  1.0 -0.5242506579
O  O48  1  0.70520000  0.23850000  0.50000000  1.0 -0.4015437677
O  O49  1  0.08778000  0.50000000  0.63352000  1.0 -0.6078701307
O  O50  1  0.12947000  0.50000000  0.70120000  1.0 -0.5242506579
O  O51  1  0.23850000  0.50000000  0.70520000  1.0 -0.4015437677
O  O52  1  0.91222000  0.50000000  0.36648000  1.0 -0.6078701307
O  O53  1  0.87053000  0.50000000  0.29880000  1.0 -0.5242506579
O  O54  1  0.76150000  0.50000000  0.29480000  1.0 -0.4015437677
O  O55  1  0.91222000  0.50000000  0.63352000  1.0 -0.6078701307
O  O56  1  0.87053000  0.50000000  0.70120000  1.0 -0.5242506579
O  O57  1  0.76150000  0.50000000  0.70520000  1.0 -0.4015437677
O  O58  1  0.08778000  0.50000000  0.36648000  1.0 -0.6078701307
O  O59  1  0.12947000  0.50000000  0.29880000  1.0 -0.5242506579
O  O60  1  0.23850000  0.50000000  0.29480000  1.0 -0.4015437677
O  O61  1  0.50000000  0.36648000  0.91222000  1.0 -0.6078701307
O  O62  1  0.50000000  0.29880000  0.87053000  1.0 -0.5242506579
O  O63  1  0.50000000  0.29480000  0.76150000  1.0 -0.4015437677
O  O64  1  0.50000000  0.63352000  0.08778000  1.0 -0.6078701307
O  O65  1  0.50000000  0.70120000  0.12947000  1.0 -0.5242506579
O  O66  1  0.50000000  0.70520000  0.23850000  1.0 -0.4015437677
O  O67  1  0.50000000  0.36648000  0.08778000  1.0 -0.6078701307
O  O68  1  0.50000000  0.29880000  0.12947000  1.0 -0.5242506579
O  O69  1  0.50000000  0.29480000  0.23850000  1.0 -0.4015437677
O  O70  1  0.50000000  0.63352000  0.91222000  1.0 -0.6078701307
O  O71  1  0.50000000  0.70120000  0.87053000  1.0 -0.5242506579
O  O72  1  0.50000000  0.70520000  0.76150000  1.0 -0.4015437677
