# DDEC6 charges by PACMAN v1.1 (https://github.com/mtap-research/PACMAN-charge/)
data_c8cc01837e2_2_FSR_pacman
_symmetry_space_group_name_H-M   'P 1'
_cell_length_a   23.71280000
_cell_length_b   10.80500000
_cell_length_c   28.59740000
_cell_angle_alpha   90.00000000
_cell_angle_beta   90.01700000
_cell_angle_gamma   90.00000000
_symmetry_Int_Tables_number   1
_chemical_formula_structural   Zn6H33C46(S5O13)2
_chemical_formula_sum   'Zn24 H132 C184 S40 O104'
_cell_volume   7327.13410819
_cell_formula_units_Z   4
loop_
 _symmetry_equiv_pos_site_id
 _symmetry_equiv_pos_as_xyz
  1  'x, y, z'
loop_
 _atom_site_type_symbol
 _atom_site_label
 _atom_site_symmetry_multiplicity
 _atom_site_fract_x
 _atom_site_fract_y
 _atom_site_fract_z
 _atom_site_occupancy
 _atom_site_charge
Zn  Zn1  1  0.02931000  0.41420000  0.61653000  1.0 1.0511291252
Zn  Zn2  1  0.97069000  0.41420000  0.38347000  1.0 1.0511291252
Zn  Zn3  1  0.04668000  0.54577000  0.29858000  1.0 1.0153548942
Zn  Zn4  1  0.95332000  0.54577000  0.70142000  1.0 1.0153548942
Zn  Zn5  1  0.07799000  0.68040000  0.66472000  1.0 0.9409441427
Zn  Zn6  1  0.92201000  0.68040000  0.33528000  1.0 0.9409441427
Zn  Zn7  1  0.41378000  0.47160000  0.66052000  1.0 0.9409441427
Zn  Zn8  1  0.58622000  0.47160000  0.33948000  1.0 0.9409441427
Zn  Zn9  1  0.45317000  0.45363000  0.79856000  1.0 1.0087116287
Zn  Zn10  1  0.54683000  0.45363000  0.20144000  1.0 1.0087116287
Zn  Zn11  1  0.47098000  0.58420000  0.11672000  1.0 1.1451935992
Zn  Zn12  1  0.52902000  0.58420000  0.88328000  1.0 1.1451935992
Zn  Zn13  1  0.45396000  0.19370000  0.61654000  1.0 1.0670702682
Zn  Zn14  1  0.54604000  0.19370000  0.38346000  1.0 1.0670702682
Zn  Zn15  1  0.52837000  0.33003000  0.70327000  1.0 1.0303421245
Zn  Zn16  1  0.47163000  0.33003000  0.29673000  1.0 1.0303421245
Zn  Zn17  1  0.42197000  0.32010000  0.16470000  1.0 0.9914102778
Zn  Zn18  1  0.57803000  0.32010000  0.83530000  1.0 0.9914102778
Zn  Zn19  1  0.08623000  0.52730000  0.16089000  1.0 0.9725535438
Zn  Zn20  1  0.91377000  0.52730000  0.83911000  1.0 0.9725535438
Zn  Zn21  1  0.04562000  0.80430000  0.11649000  1.0 1.2084849105
Zn  Zn22  1  0.95438000  0.80430000  0.88351000  1.0 1.2084849105
Zn  Zn23  1  0.02871000  0.66832000  0.79647000  1.0 1.0087116287
Zn  Zn24  1  0.97129000  0.66832000  0.20353000  1.0 1.0087116287
H  H1  1  0.00924000  0.17023000  0.17093000  1.0 0.1298067493
H  H2  1  0.99076000  0.17023000  0.82907000  1.0 0.1298067493
H  H3  1  0.88846000  0.98231000  0.23884000  1.0 0.1298067493
H  H4  1  0.11154000  0.98231000  0.76116000  1.0 0.1298067493
H  H5  1  0.90314000  0.36335000  0.25480000  1.0 0.1402559151
H  H6  1  0.09686000  0.36335000  0.74520000  1.0 0.1402559151
H  H7  1  0.06159000  0.67285000  0.98810000  1.0 0.1402559151
H  H8  1  0.93841000  0.67285000  0.01190000  1.0 0.1402559151
H  H9  1  0.12456000  0.42726000  0.89077000  1.0 0.1298067493
H  H10  1  0.87544000  0.42726000  0.10923000  1.0 0.1298067493
H  H11  1  0.14065000  0.36578000  0.03022000  1.0 0.1402559151
H  H12  1  0.85935000  0.36578000  0.96978000  1.0 0.1402559151
H  H13  1  0.25154000  0.43566000  0.20673000  1.0 0.1402559151
H  H14  1  0.74846000  0.43566000  0.79327000  1.0 0.1402559151
H  H15  1  0.33875000  0.38663000  0.32599000  1.0 0.1402559151
H  H16  1  0.66125000  0.38663000  0.67401000  1.0 0.1402559151
H  H17  1  0.16991000  0.46461000  0.32895000  1.0 0.1298067493
H  H18  1  0.83009000  0.46461000  0.67105000  1.0 0.1298067493
H  H19  1  0.44809000  0.44059000  0.98602000  1.0 0.1298067493
H  H20  1  0.55191000  0.44059000  0.01398000  1.0 0.1298067493
H  H21  1  0.37418000  0.19799000  0.89749000  1.0 0.1298067493
H  H22  1  0.62582000  0.19799000  0.10251000  1.0 0.1298067493
H  H23  1  0.35050000  0.16047000  0.03866000  1.0 0.1213390909
H  H24  1  0.64950000  0.16047000  0.96134000  1.0 0.1213390909
H  H25  1  0.48946000  0.94673000  0.18795000  1.0 0.1298067493
H  H26  1  0.51054000  0.94673000  0.81205000  1.0 0.1298067493
H  H27  1  0.64575000  0.81269000  0.20538000  1.0 0.1213390909
H  H28  1  0.35425000  0.81269000  0.79462000  1.0 0.1213390909
H  H29  1  0.61759000  0.17212000  0.22706000  1.0 0.1402559151
H  H30  1  0.38241000  0.17212000  0.77294000  1.0 0.1402559151
H  H31  1  0.48285000  0.83266000  0.67692000  1.0 0.1402559151
H  H32  1  0.51715000  0.83266000  0.32308000  1.0 0.1402559151
H  H33  1  0.59541000  0.64503000  0.75790000  1.0 0.1402559151
H  H34  1  0.40459000  0.64503000  0.24210000  1.0 0.1402559151
H  H35  1  0.62290000  0.00067000  0.73769000  1.0 0.1213390909
H  H36  1  0.37710000  0.00067000  0.26231000  1.0 0.1213390909
H  H37  1  0.44575000  0.33357000  0.48389000  1.0 0.1500686748
H  H38  1  0.55425000  0.33357000  0.51611000  1.0 0.1500686748
H  H39  1  0.39167000  0.58886000  0.39095000  1.0 0.1213390909
H  H40  1  0.60833000  0.58886000  0.60905000  1.0 0.1213390909
H  H41  1  0.34637000  0.62889000  0.52695000  1.0 0.1298067493
H  H42  1  0.65363000  0.62889000  0.47305000  1.0 0.1298067493
H  H43  1  0.24327000  0.53757000  0.70620000  1.0 0.1402559151
H  H44  1  0.75673000  0.53757000  0.29380000  1.0 0.1402559151
H  H45  1  0.16849000  0.64778000  0.82894000  1.0 0.1402559151
H  H46  1  0.83151000  0.64778000  0.17106000  1.0 0.1402559151
H  H47  1  0.31851000  0.47040000  0.83103000  1.0 0.1298067493
H  H48  1  0.68149000  0.47040000  0.16897000  1.0 0.1298067493
H  H49  1  0.00757000  0.05364000  0.67912000  1.0 0.1402559151
H  H50  1  0.99243000  0.05364000  0.32088000  1.0 0.1402559151
H  H51  1  0.89096000  0.84429000  0.74451000  1.0 0.1587383131
H  H52  1  0.10904000  0.84429000  0.25549000  1.0 0.1587383131
H  H53  1  0.86383000  0.20913000  0.72770000  1.0 0.1298067493
H  H54  1  0.13617000  0.20913000  0.27230000  1.0 0.1298067493
H  H55  1  0.14547000  0.77077000  0.39797000  1.0 0.1402559151
H  H56  1  0.85453000  0.77077000  0.60203000  1.0 0.1402559151
H  H57  1  0.14160000  0.28125000  0.36636000  1.0 0.1587383131
H  H58  1  0.85840000  0.28125000  0.63364000  1.0 0.1587383131
H  H59  1  0.17602000  0.20416000  0.40470000  1.0 0.1402559151
H  H60  1  0.82398000  0.20416000  0.59530000  1.0 0.1402559151
H  H61  1  0.11405000  0.25392000  0.41639000  1.0 0.1840814427
H  H62  1  0.88595000  0.25392000  0.58361000  1.0 0.1840814427
H  H63  1  0.21128000  0.08030000  0.02125000  1.0 0.1402559151
H  H64  1  0.78872000  0.08030000  0.97875000  1.0 0.1402559151
H  H65  1  0.22841000  0.02558000  0.07128000  1.0 0.1696371607
H  H66  1  0.77159000  0.02558000  0.92872000  1.0 0.1696371607
H  H67  1  0.26233000  0.14048000  0.04995000  1.0 0.1402559151
H  H68  1  0.73767000  0.14048000  0.95005000  1.0 0.1402559151
H  H69  1  0.72600000  0.91995000  0.14573000  1.0 0.1500686748
H  H70  1  0.27400000  0.91995000  0.85427000  1.0 0.1500686748
H  H71  1  0.78718000  0.97678000  0.15559000  1.0 0.1587383131
H  H72  1  0.21282000  0.97678000  0.84441000  1.0 0.1587383131
H  H73  1  0.78018000  0.83166000  0.14603000  1.0 0.1587383131
H  H74  1  0.21982000  0.83166000  0.85397000  1.0 0.1587383131
H  H75  1  0.58956000  0.93668000  0.85854000  1.0 0.1587383131
H  H76  1  0.41044000  0.93668000  0.14146000  1.0 0.1587383131
H  H77  1  0.63993000  0.90034000  0.89319000  1.0 0.1500686748
H  H78  1  0.36007000  0.90034000  0.10681000  1.0 0.1500686748
H  H79  1  0.62174000  0.04215000  0.88739000  1.0 0.1696371607
H  H80  1  0.37826000  0.04215000  0.11261000  1.0 0.1696371607
H  H81  1  0.28749000  0.79804000  0.32414000  1.0 0.1696371607
H  H82  1  0.71251000  0.79804000  0.67586000  1.0 0.1696371607
H  H83  1  0.32260000  0.67355000  0.33261000  1.0 0.1696371607
H  H84  1  0.67740000  0.67355000  0.66739000  1.0 0.1696371607
H  H85  1  0.27116000  0.70789000  0.36642000  1.0 0.1587383131
H  H86  1  0.72884000  0.70789000  0.63358000  1.0 0.1587383131
H  H87  1  0.36055000  0.72786000  0.87741000  1.0 0.1500686748
H  H88  1  0.63945000  0.72786000  0.12259000  1.0 0.1500686748
H  H89  1  0.33489000  0.78518000  0.92441000  1.0 0.1298067493
H  H90  1  0.66511000  0.78518000  0.07559000  1.0 0.1298067493
H  H91  1  0.39359000  0.71218000  0.92585000  1.0 0.1840814427
H  H92  1  0.60641000  0.71218000  0.07415000  1.0 0.1840814427
H  H93  1  0.75260000  0.12279000  0.65486000  1.0 0.1587383131
H  H94  1  0.24740000  0.12279000  0.34514000  1.0 0.1587383131
H  H95  1  0.73211000  0.99154000  0.67445000  1.0 0.1500686748
H  H96  1  0.26789000  0.99154000  0.32555000  1.0 0.1500686748
H  H97  1  0.68914000  0.10566000  0.67274000  1.0 0.1696371607
H  H98  1  0.31086000  0.10566000  0.32726000  1.0 0.1696371607
H  H99  1  0.29013000  0.99562000  0.52689000  1.0 0.1587383131
H  H100  1  0.70987000  0.99562000  0.47311000  1.0 0.1587383131
H  H101  1  0.26012000  0.03978000  0.57414000  1.0 0.1587383131
H  H102  1  0.73988000  0.03978000  0.42586000  1.0 0.1587383131
H  H103  1  0.24735000  0.90510000  0.55340000  1.0 0.1587383131
H  H104  1  0.75265000  0.90510000  0.44660000  1.0 0.1587383131
H  H105  1  0.05529000  0.28694000  0.49389000  1.0 0.1298067493
H  H106  1  0.94471000  0.28694000  0.50611000  1.0 0.1213390909
H  H107  1  0.10114000  0.33719000  0.53031000  1.0 0.1061690152
H  H108  1  0.89886000  0.33719000  0.46969000  1.0 0.1061690152
H  H109  1  0.08614000  0.19284000  0.52872000  1.0 0.0985604861
H  H110  1  0.91386000  0.19284000  0.47128000  1.0 0.0985604861
H  H111  1  0.90286000  0.08808000  0.37438000  1.0 0.1696371607
H  H112  1  0.09714000  0.08808000  0.62562000  1.0 0.1696371607
H  H113  1  0.84445000  0.15882000  0.38280000  1.0 0.1500686748
H  H114  1  0.15555000  0.15882000  0.61720000  1.0 0.1500686748
H  H115  1  0.85491000  0.02601000  0.40600000  1.0 0.1298067493
H  H116  1  0.14509000  0.02601000  0.59400000  1.0 0.1298067493
H  H117  1  0.06388000  0.54166000  0.48684000  1.0 0.1402559151
H  H118  1  0.93612000  0.54166000  0.51316000  1.0 0.1402559151
H  H119  1  0.14400000  0.83560000  0.53677000  1.0 0.1298067493
H  H120  1  0.85600000  0.83560000  0.46323000  1.0 0.1298067493
H  H121  1  0.23681000  0.20685000  0.83125000  1.0 0.1587383131
H  H122  1  0.76319000  0.20685000  0.16875000  1.0 0.1587383131
H  H123  1  0.19597000  0.32417000  0.82680000  1.0 0.1696371607
H  H124  1  0.80403000  0.32417000  0.17320000  1.0 0.1696371607
H  H125  1  0.23927000  0.31463000  0.86958000  1.0 0.1500686748
H  H126  1  0.76073000  0.31463000  0.13042000  1.0 0.1500686748
H  H127  1  0.31858000  0.21959000  0.60056000  1.0 0.0985604861
H  H128  1  0.68142000  0.21959000  0.39944000  1.0 0.0985604861
H  H129  1  0.29140000  0.13454000  0.64044000  1.0 0.0985604861
H  H130  1  0.70860000  0.13454000  0.35956000  1.0 0.0985604861
H  H131  1  0.32250000  0.26083000  0.65421000  1.0 0.1213390909
H  H132  1  0.67750000  0.26083000  0.34579000  1.0 0.1213390909
C  C1  1  0.96490000  0.28540000  0.21450000  1.0 -0.0808711908
C  C2  1  0.03510000  0.28540000  0.78550000  1.0 -0.0808711908
C  C3  1  0.97970000  0.17110000  0.19340000  1.0 -0.0808711908
C  C4  1  0.02030000  0.17110000  0.80660000  1.0 -0.0808711908
C  C5  1  0.95260000  0.05920000  0.20410000  1.0 -0.0493814436
C  C6  1  0.04740000  0.05920000  0.79590000  1.0 -0.0493814436
C  C7  1  0.90730000  0.05760000  0.23180000  1.0 -0.1207150423
C  C8  1  0.09270000  0.05760000  0.76820000  1.0 -0.1207150423
C  C9  1  0.88620000  0.18320000  0.25240000  1.0 0.0921147261
C  C10  1  0.11380000  0.18320000  0.74760000  1.0 0.0921147261
C  C11  1  0.91580000  0.28660000  0.24250000  1.0 -0.0907679498
C  C12  1  0.08420000  0.28660000  0.75750000  1.0 -0.0907679498
C  C13  1  0.99670000  0.39150000  0.20580000  1.0 0.5799631062
C  C14  1  0.00330000  0.39150000  0.79420000  1.0 0.5799631062
C  C15  1  0.96990000  0.93970000  0.18410000  1.0 0.589340292
C  C16  1  0.03010000  0.93970000  0.81590000  1.0 0.589340292
C  C17  1  0.10100000  0.51870000  0.01330000  1.0 0.0031216975
C  C18  1  0.89900000  0.51870000  0.98670000  1.0 0.0031216975
C  C19  1  0.07960000  0.59720000  0.98010000  1.0 -0.0994421671
C  C20  1  0.92040000  0.59720000  0.01990000  1.0 -0.0994421671
C  C21  1  0.08610000  0.55710000  0.93140000  1.0 -0.0103082779
C  C22  1  0.91390000  0.55710000  0.06860000  1.0 -0.0103082779
C  C23  1  0.11820000  0.45250000  0.92220000  1.0 -0.1498437983
C  C24  1  0.88180000  0.45250000  0.07780000  1.0 -0.1498437983
C  C25  1  0.14000000  0.38740000  0.95740000  1.0 0.0718871033
C  C26  1  0.86000000  0.38740000  0.04260000  1.0 0.0718871033
C  C27  1  0.12850000  0.41780000  0.00540000  1.0 -0.1402500018
C  C28  1  0.87150000  0.41780000  0.99460000  1.0 -0.1402500018
C  C29  1  0.09360000  0.56640000  0.06410000  1.0 0.5975210493
C  C30  1  0.90640000  0.56640000  0.93590000  1.0 0.5975210493
C  C31  1  0.05710000  0.62770000  0.89460000  1.0 0.5721443903
C  C32  1  0.94290000  0.62770000  0.10540000  1.0 0.5721443903
C  C33  1  0.20680000  0.47730000  0.26530000  1.0 -0.0195352111
C  C34  1  0.79320000  0.47730000  0.73470000  1.0 -0.0195352111
C  C35  1  0.25260000  0.43900000  0.23990000  1.0 -0.1207150423
C  C36  1  0.74740000  0.43900000  0.76010000  1.0 -0.1207150423
C  C37  1  0.30160000  0.40460000  0.26500000  1.0 -0.0103082779
C  C38  1  0.69840000  0.40460000  0.73500000  1.0 -0.0103082779
C  C39  1  0.30420000  0.40480000  0.31060000  1.0 -0.1402500018
C  C40  1  0.69580000  0.40480000  0.68940000  1.0 -0.1402500018
C  C41  1  0.25400000  0.43300000  0.33780000  1.0 0.0604453174
C  C42  1  0.74600000  0.43300000  0.66220000  1.0 0.0604453174
C  C43  1  0.20490000  0.45920000  0.31290000  1.0 -0.1498437983
C  C44  1  0.79510000  0.45920000  0.68710000  1.0 -0.1498437983
C  C45  1  0.15550000  0.51360000  0.23860000  1.0 0.609798871
C  C46  1  0.84450000  0.51360000  0.76140000  1.0 0.609798871
C  C47  1  0.35330000  0.36200000  0.23750000  1.0 0.5721443903
C  C48  1  0.64670000  0.36200000  0.76250000  1.0 0.5721443903
C  C49  1  0.39710000  0.31560000  0.01890000  1.0 -0.0493814436
C  C50  1  0.60290000  0.31560000  0.98110000  1.0 -0.0493814436
C  C51  1  0.42250000  0.37440000  0.98080000  1.0 -0.0907679498
C  C52  1  0.57750000  0.37440000  0.01920000  1.0 -0.0907679498
C  C53  1  0.41070000  0.33750000  0.93580000  1.0 -0.0301881606
C  C54  1  0.58930000  0.33750000  0.06420000  1.0 -0.0301881606
C  C55  1  0.37700000  0.23260000  0.92790000  1.0 -0.1402500018
C  C56  1  0.62300000  0.23260000  0.07210000  1.0 -0.1402500018
C  C57  1  0.34740000  0.17900000  0.96580000  1.0 0.0718871033
C  C58  1  0.65260000  0.17900000  0.03420000  1.0 0.0718871033
C  C59  1  0.36270000  0.20900000  0.01290000  1.0 -0.1571128666
C  C60  1  0.63730000  0.20900000  0.98710000  1.0 -0.1571128666
C  C61  1  0.41650000  0.35300000  0.06490000  1.0 0.5799631062
C  C62  1  0.58350000  0.35300000  0.93510000  1.0 0.5799631062
C  C63  1  0.42700000  0.41100000  0.89450000  1.0 0.5799631062
C  C64  1  0.57300000  0.41100000  0.10550000  1.0 0.5799631062
C  C65  1  0.54720000  0.07320000  0.20890000  1.0 -0.0390260312
C  C66  1  0.45280000  0.07320000  0.79110000  1.0 -0.0390260312
C  C67  1  0.52790000  0.95650000  0.19660000  1.0 -0.0994421671
C  C68  1  0.47210000  0.95650000  0.80340000  1.0 -0.0994421671
C  C69  1  0.56140000  0.85730000  0.19660000  1.0 -0.0031760925
C  C70  1  0.43860000  0.85730000  0.80340000  1.0 -0.0031760925
C  C71  1  0.61850000  0.87480000  0.21170000  1.0 -0.1498437983
C  C72  1  0.38150000  0.87480000  0.78830000  1.0 -0.1498437983
C  C73  1  0.63390000  0.97720000  0.23460000  1.0 0.0803612602
C  C74  1  0.36610000  0.97720000  0.76540000  1.0 0.0803612602
C  C75  1  0.60170000  0.09190000  0.22380000  1.0 -0.1098931791
C  C76  1  0.39830000  0.09190000  0.77620000  1.0 -0.1098931791
C  C77  1  0.50900000  0.17730000  0.20700000  1.0 0.5975210493
C  C78  1  0.49100000  0.17730000  0.79300000  1.0 0.5975210493
C  C79  1  0.54170000  0.72800000  0.18450000  1.0 0.5721443903
C  C80  1  0.45830000  0.72800000  0.81550000  1.0 0.5721443903
C  C81  1  0.55000000  0.93350000  0.70240000  1.0 0.0102156076
C  C82  1  0.45000000  0.93350000  0.29760000  1.0 0.0102156076
C  C83  1  0.51680000  0.82880000  0.69450000  1.0 -0.1286843612
C  C84  1  0.48320000  0.82880000  0.30550000  1.0 -0.1286843612
C  C85  1  0.53590000  0.71940000  0.71380000  1.0 0.0102156076
C  C86  1  0.46410000  0.71940000  0.28620000  1.0 0.0102156076
C  C87  1  0.58270000  0.71900000  0.74370000  1.0 -0.1286843612
C  C88  1  0.41730000  0.71900000  0.25630000  1.0 -0.1286843612
C  C89  1  0.61050000  0.83280000  0.75230000  1.0 0.0604453174
C  C90  1  0.38950000  0.83280000  0.24770000  1.0 0.0604453174
C  C91  1  0.59990000  0.92970000  0.73310000  1.0 -0.1498437983
C  C92  1  0.40010000  0.92970000  0.26690000  1.0 -0.1498437983
C  C93  1  0.52610000  0.05690000  0.68240000  1.0 0.5721443903
C  C94  1  0.47390000  0.05690000  0.31760000  1.0 0.5721443903
C  C95  1  0.49880000  0.60250000  0.70520000  1.0 0.5975210493
C  C96  1  0.50120000  0.60250000  0.29480000  1.0 0.5975210493
C  C97  1  0.39700000  0.46910000  0.51470000  1.0 0.0102156076
C  C98  1  0.60300000  0.46910000  0.48530000  1.0 0.0102156076
C  C99  1  0.42440000  0.40620000  0.47770000  1.0 -0.0994421671
C  C100  1  0.57560000  0.40620000  0.52230000  1.0 -0.0994421671
C  C101  1  0.42040000  0.44810000  0.43490000  1.0 0.0214999741
C  C102  1  0.57960000  0.44810000  0.56510000  1.0 0.0214999741
C  C103  1  0.39320000  0.56140000  0.42250000  1.0 -0.1746369674
C  C104  1  0.60680000  0.56140000  0.57750000  1.0 -0.1753805056
C  C105  1  0.36910000  0.62980000  0.45840000  1.0 0.0604453174
C  C106  1  0.63090000  0.62980000  0.54160000  1.0 0.0604453174
C  C107  1  0.36680000  0.58600000  0.50350000  1.0 -0.1746369674
C  C108  1  0.63320000  0.58600000  0.49650000  1.0 -0.1746369674
C  C109  1  0.40230000  0.42510000  0.56430000  1.0 0.5721443903
C  C110  1  0.59770000  0.42510000  0.43570000  1.0 0.5721443903
C  C111  1  0.44480000  0.36180000  0.39470000  1.0 0.5799631062
C  C112  1  0.55520000  0.36180000  0.60530000  1.0 0.5799631062
C  C113  1  0.29360000  0.52000000  0.76420000  1.0 0.0102156076
C  C114  1  0.70640000  0.52000000  0.23580000  1.0 0.0102156076
C  C115  1  0.24380000  0.54950000  0.73910000  1.0 -0.1098931791
C  C116  1  0.75620000  0.54950000  0.26090000  1.0 -0.1098931791
C  C117  1  0.19640000  0.59460000  0.76070000  1.0 -0.0390260312
C  C118  1  0.80360000  0.59460000  0.23930000  1.0 -0.0390260312
C  C119  1  0.19980000  0.61570000  0.81220000  1.0 -0.1571128666
C  C120  1  0.80020000  0.61570000  0.18780000  1.0 -0.1571128666
C  C121  1  0.24760000  0.58860000  0.83410000  1.0 0.0498029181
C  C122  1  0.75240000  0.58860000  0.16590000  1.0 0.0604453174
C  C123  1  0.29220000  0.51660000  0.81310000  1.0 -0.1498437983
C  C124  1  0.70780000  0.51660000  0.18690000  1.0 -0.1498437983
C  C125  1  0.34420000  0.47580000  0.73680000  1.0 0.5799631062
C  C126  1  0.65580000  0.47580000  0.26320000  1.0 0.5799631062
C  C127  1  0.14630000  0.63310000  0.73600000  1.0 0.5721443903
C  C128  1  0.85370000  0.63310000  0.26400000  1.0 0.5721443903
C  C129  1  0.93740000  0.14870000  0.70140000  1.0 -0.0195352111
C  C130  1  0.06260000  0.14870000  0.29860000  1.0 -0.0195352111
C  C131  1  0.97240000  0.04530000  0.69470000  1.0 -0.0994421671
C  C132  1  0.02760000  0.04530000  0.30530000  1.0 -0.0994421671
C  C133  1  0.95450000  0.92890000  0.71150000  1.0 0.0214999741
C  C134  1  0.04550000  0.92890000  0.28850000  1.0 0.0214999741
C  C135  1  0.90090000  0.91890000  0.72900000  1.0 -0.1207150423
C  C136  1  0.09910000  0.91890000  0.27100000  1.0 -0.1207150423
C  C137  1  0.86230000  0.00640000  0.72580000  1.0 0.0718871033
C  C138  1  0.13770000  0.00640000  0.27420000  1.0 0.0718871033
C  C139  1  0.88540000  0.13840000  0.71940000  1.0 -0.1402500018
C  C140  1  0.11460000  0.13840000  0.28060000  1.0 -0.1402500018
C  C141  1  0.95890000  0.27060000  0.68360000  1.0 0.589340292
C  C142  1  0.04110000  0.27060000  0.31640000  1.0 0.589340292
C  C143  1  0.99260000  0.81420000  0.70650000  1.0 0.5799631062
C  C144  1  0.00740000  0.81420000  0.29350000  1.0 0.5799631062
C  C145  1  0.09770000  0.69160000  0.51820000  1.0 0.0102156076
C  C146  1  0.90230000  0.69160000  0.48180000  1.0 0.0102156076
C  C147  1  0.13140000  0.75270000  0.42830000  1.0 -0.1402500018
C  C148  1  0.86860000  0.75270000  0.57170000  1.0 -0.1402500018
C  C149  1  0.14590000  0.83070000  0.46620000  1.0 0.0803612602
C  C150  1  0.85410000  0.83070000  0.53380000  1.0 0.0803612602
C  C151  1  0.14930000  0.27200000  0.39990000  1.0 -0.4535826965
C  C152  1  0.85070000  0.27200000  0.60010000  1.0 -0.4535826965
C  C153  1  0.24280000  0.06300000  0.04250000  1.0 -0.4209622318
C  C154  1  0.75720000  0.06300000  0.95750000  1.0 -0.4209622318
C  C155  1  0.76280000  0.90500000  0.16030000  1.0 -0.4612513035
C  C156  1  0.23720000  0.90500000  0.83970000  1.0 -0.4612513035
C  C157  1  0.62610000  0.96280000  0.87120000  1.0 -0.4209622318
C  C158  1  0.37390000  0.96280000  0.12880000  1.0 -0.4209622318
C  C159  1  0.30240000  0.74100000  0.34790000  1.0 -0.4681299701
C  C160  1  0.69760000  0.74100000  0.65210000  1.0 -0.4681299701
C  C161  1  0.35630000  0.71600000  0.91120000  1.0 -0.4681299701
C  C162  1  0.64370000  0.71600000  0.08880000  1.0 -0.4681299701
C  C163  1  0.72850000  0.08100000  0.67790000  1.0 -0.4612513035
C  C164  1  0.27150000  0.08100000  0.32210000  1.0 -0.4612513035
C  C165  1  0.25540000  0.99100000  0.54540000  1.0 -0.4209622318
C  C166  1  0.74460000  0.99100000  0.45460000  1.0 -0.4209622318
C  C167  1  0.07090000  0.27670000  0.52540000  1.0 -0.2305447592
C  C168  1  0.92910000  0.27670000  0.47460000  1.0 -0.2305447592
C  C169  1  0.86200000  0.07800000  0.37850000  1.0 -0.4111153557
C  C170  1  0.13800000  0.07800000  0.62150000  1.0 -0.4111153557
C  C171  1  0.08340000  0.61710000  0.48140000  1.0 -0.1098931791
C  C172  1  0.91660000  0.61710000  0.51860000  1.0 -0.1098931791
C  C173  1  0.07020000  0.58240000  0.39480000  1.0 0.5721443903
C  C174  1  0.92980000  0.58240000  0.60520000  1.0 0.5721443903
C  C175  1  0.08750000  0.64220000  0.56800000  1.0 0.5799631062
C  C176  1  0.91250000  0.64220000  0.43200000  1.0 0.5799631062
C  C177  1  0.09780000  0.65300000  0.43460000  1.0 -0.0031760925
C  C178  1  0.90220000  0.65300000  0.56540000  1.0 -0.0031760925
C  C179  1  0.13050000  0.79060000  0.51050000  1.0 -0.1498437983
C  C180  1  0.86950000  0.79060000  0.48950000  1.0 -0.1498437983
C  C181  1  0.21450000  0.26800000  0.84870000  1.0 -0.4535826965
C  C182  1  0.78550000  0.26800000  0.15130000  1.0 -0.4535826965
C  C183  1  0.32270000  0.19010000  0.63280000  1.0 -0.2000158652
C  C184  1  0.67730000  0.19010000  0.36720000  1.0 -0.2000158652
S  S1  1  0.82670000  0.18670000  0.28840000  1.0 -0.0686555243
S  S2  1  0.17330000  0.18670000  0.71160000  1.0 -0.0686555243
S  S3  1  0.83300000  0.00430000  0.32760000  1.0 -0.0611006989
S  S4  1  0.16700000  0.00430000  0.67240000  1.0 -0.0611006989
S  S5  1  0.18400000  0.25310000  0.94860000  1.0 -0.0301881606
S  S6  1  0.81600000  0.25310000  0.05140000  1.0 -0.0301881606
S  S7  1  0.16120000  0.18730000  0.88330000  1.0 0.0604453174
S  S8  1  0.83880000  0.18730000  0.11670000  1.0 0.0604453174
S  S9  1  0.25750000  0.41480000  0.39840000  1.0 0.0214999741
S  S10  1  0.74250000  0.41480000  0.60160000  1.0 0.0214999741
S  S11  1  0.17940000  0.41550000  0.42244000  1.0 0.0803612602
S  S12  1  0.82060000  0.41550000  0.57756000  1.0 0.0803612602
S  S13  1  0.30710000  0.04530000  0.95240000  1.0 -0.0301881606
S  S14  1  0.69290000  0.04530000  0.04760000  1.0 -0.0301881606
S  S15  1  0.29380000  0.95250000  0.01320000  1.0 0.0498029181
S  S16  1  0.70620000  0.95250000  0.98680000  1.0 0.0498029181
S  S17  1  0.70690000  0.02290000  0.24246000  1.0 0.0102156076
S  S18  1  0.29310000  0.02290000  0.75754000  1.0 0.0102156076
S  S19  1  0.75330000  0.87830000  0.22230000  1.0 0.0985604861
S  S20  1  0.24670000  0.87830000  0.77770000  1.0 0.0985604861
S  S21  1  0.67210000  0.81870000  0.79090000  1.0 0.0031216975
S  S22  1  0.32790000  0.81870000  0.20910000  1.0 0.0031216975
S  S23  1  0.67590000  0.98010000  0.82395000  1.0 0.0316156783
S  S24  1  0.32410000  0.98010000  0.17605000  1.0 0.0316156783
S  S25  1  0.33333333  0.76910000  0.45012000  1.0 -0.0031760925
S  S26  1  0.66666667  0.76910000  0.54988000  1.0 -0.0031760925
S  S27  1  0.34820000  0.82100000  0.38430000  1.0 0.0921147261
S  S28  1  0.65180000  0.82100000  0.61570000  1.0 0.0921147261
S  S29  1  0.24270000  0.60940000  0.89770000  1.0 0.0498029181
S  S30  1  0.75730000  0.60940000  0.10230000  1.0 0.0498029181
S  S31  1  0.31450000  0.55570000  0.92340000  1.0 0.0031216975
S  S32  1  0.68550000  0.55570000  0.07660000  1.0 0.0031216975
S  S33  1  0.79770000  0.99160000  0.75787000  1.0 -0.0103082779
S  S34  1  0.20230000  0.99160000  0.24213000  1.0 -0.0195352111
S  S35  1  0.74830000  0.12300000  0.73180000  1.0 0.0803612602
S  S36  1  0.25170000  0.12300000  0.26820000  1.0 0.0803612602
S  S37  1  0.19820000  0.94720000  0.45363000  1.0 -0.0493814436
S  S38  1  0.80180000  0.94720000  0.54637000  1.0 -0.0493814436
S  S39  1  0.19690000  0.05480000  0.51140000  1.0 0.0316156783
S  S40  1  0.80310000  0.05480000  0.48860000  1.0 0.0316156783
O  O1  1  0.05080000  0.48270000  0.40350000  1.0 -0.4908291749
O  O2  1  0.94920000  0.48270000  0.59650000  1.0 -0.4908291749
O  O3  1  0.07410000  0.63370000  0.35510000  1.0 -0.5104601085
O  O4  1  0.92590000  0.63370000  0.64490000  1.0 -0.5104601085
O  O5  1  0.10000000  0.71700000  0.59960000  1.0 -0.4985495123
O  O6  1  0.90000000  0.71700000  0.40040000  1.0 -0.4985495123
O  O7  1  0.05860000  0.54720000  0.57010000  1.0 -0.4985495123
O  O8  1  0.94140000  0.54720000  0.42990000  1.0 -0.4985495123
O  O9  1  0.03250000  0.83050000  0.68090000  1.0 -0.4612513035
O  O10  1  0.96750000  0.83050000  0.31910000  1.0 -0.4612513035
O  O11  1  0.93280000  0.36430000  0.70160000  1.0 -0.5488266224
O  O12  1  0.06720000  0.36430000  0.29840000  1.0 -0.5488266224
O  O13  1  0.00160000  0.27270000  0.65750000  1.0 -0.4908291749
O  O14  1  0.99840000  0.27270000  0.34250000  1.0 -0.4908291749
O  O15  1  0.97930000  0.72420000  0.72990000  1.0 -0.4786425009
O  O16  1  0.02070000  0.72420000  0.27010000  1.0 -0.4786425009
O  O17  1  0.15250000  0.64990000  0.69180000  1.0 -0.4985495123
O  O18  1  0.84750000  0.64990000  0.30820000  1.0 -0.4985495123
O  O19  1  0.10140000  0.64700000  0.75740000  1.0 -0.5104601085
O  O20  1  0.89860000  0.64700000  0.24260000  1.0 -0.5104601085
O  O21  1  0.34270000  0.49230000  0.69290000  1.0 -0.5173139721
O  O22  1  0.65730000  0.49230000  0.30710000  1.0 -0.5173139721
O  O23  1  0.38320000  0.42760000  0.75720000  1.0 -0.4786425009
O  O24  1  0.61680000  0.42760000  0.24280000  1.0 -0.4786425009
O  O25  1  0.39230000  0.50170000  0.59550000  1.0 -0.4908291749
O  O26  1  0.60770000  0.50170000  0.40450000  1.0 -0.4908291749
O  O27  1  0.42120000  0.32220000  0.57050000  1.0 -0.4786425009
O  O28  1  0.57880000  0.32220000  0.42950000  1.0 -0.4786425009
O  O29  1  0.44450000  0.41470000  0.35430000  1.0 -0.5488266224
O  O30  1  0.55550000  0.41470000  0.64570000  1.0 -0.5488266224
O  O31  1  0.47290000  0.27630000  0.40720000  1.0 -0.4612513035
O  O32  1  0.52710000  0.27630000  0.59280000  1.0 -0.4612513035
O  O33  1  0.46260000  0.61240000  0.67410000  1.0 -0.4985495123
O  O34  1  0.53740000  0.61240000  0.32590000  1.0 -0.4985495123
O  O35  1  0.51170000  0.51050000  0.73120000  1.0 -0.5400585606
O  O36  1  0.48830000  0.51050000  0.26880000  1.0 -0.5400585606
O  O37  1  0.49150000  0.05240000  0.65380000  1.0 -0.4111153557
O  O38  1  0.50850000  0.05240000  0.34620000  1.0 -0.4111153557
O  O39  1  0.55300000  0.15390000  0.69960000  1.0 -0.5600715651
O  O40  1  0.44700000  0.15390000  0.30040000  1.0 -0.5600715651
O  O41  1  0.56710000  0.63660000  0.19880000  1.0 -0.4908291749
O  O42  1  0.43290000  0.63660000  0.80120000  1.0 -0.4908291749
O  O43  1  0.50200000  0.72930000  0.15530000  1.0 -0.4985495123
O  O44  1  0.49800000  0.72930000  0.84470000  1.0 -0.4985495123
O  O45  1  0.46550000  0.17610000  0.17860000  1.0 -0.5300206318
O  O46  1  0.53450000  0.17610000  0.82140000  1.0 -0.5300206318
O  O47  1  0.52000000  0.27940000  0.23100000  1.0 -0.5661988034
O  O48  1  0.48000000  0.27940000  0.76900000  1.0 -0.5661988034
O  O49  1  0.40790000  0.27720000  0.09980000  1.0 -0.5400585606
O  O50  1  0.59210000  0.27720000  0.90020000  1.0 -0.5400585606
O  O51  1  0.42870000  0.46280000  0.07170000  1.0 -0.5104601085
O  O52  1  0.57130000  0.46280000  0.92830000  1.0 -0.5104601085
O  O53  1  0.45510000  0.51760000  0.90450000  1.0 -0.5858783498
O  O54  1  0.54490000  0.51760000  0.09550000  1.0 -0.5858783498
O  O55  1  0.41900000  0.37080000  0.85510000  1.0 -0.4908291749
O  O56  1  0.58100000  0.37080000  0.14490000  1.0 -0.4908291749
O  O57  1  0.39940000  0.35360000  0.25630000  1.0 -0.4681299701
O  O58  1  0.60060000  0.35360000  0.74370000  1.0 -0.4681299701
O  O59  1  0.34750000  0.34100000  0.19420000  1.0 -0.4985495123
O  O60  1  0.65250000  0.34100000  0.80580000  1.0 -0.4985495123
O  O61  1  0.15550000  0.49010000  0.19490000  1.0 -0.5173139721
O  O62  1  0.84450000  0.49010000  0.80510000  1.0 -0.5173139721
O  O63  1  0.11560000  0.57220000  0.25750000  1.0 -0.5173139721
O  O64  1  0.88440000  0.57220000  0.74250000  1.0 -0.5173139721
O  O65  1  0.03320000  0.38990000  0.17460000  1.0 -0.4908291749
O  O66  1  0.96680000  0.38990000  0.82540000  1.0 -0.4908291749
O  O67  1  0.95000000  0.84650000  0.19800000  1.0 -0.4431660398
O  O68  1  0.05000000  0.84650000  0.80200000  1.0 -0.4431660398
O  O69  1  0.99180000  0.49010000  0.23060000  1.0 -0.5300206318
O  O70  1  0.00820000  0.49010000  0.76940000  1.0 -0.5300206318
O  O71  1  0.01360000  0.94300000  0.15290000  1.0 -0.5173139721
O  O72  1  0.98640000  0.94300000  0.84710000  1.0 -0.5173139721
O  O73  1  0.10080000  0.48800000  0.09610000  1.0 -0.5104601085
O  O74  1  0.89920000  0.48800000  0.90390000  1.0 -0.5104601085
O  O75  1  0.09040000  0.69000000  0.07050000  1.0 -0.5488266224
O  O76  1  0.90960000  0.69000000  0.92950000  1.0 -0.5488266224
O  O77  1  0.06360000  0.59080000  0.85430000  1.0 -0.4908291749
O  O78  1  0.93640000  0.59080000  0.14570000  1.0 -0.4985495123
O  O79  1  0.03450000  0.73290000  0.90430000  1.0 -0.5600715651
O  O80  1  0.96550000  0.73290000  0.09570000  1.0 -0.5600715651
O  O81  1  0.11580000  0.36610000  0.62860000  1.0 -0.2738434299
O  O82  1  0.88420000  0.36610000  0.37140000  1.0 -0.2738434299
O  O83  1  0.02720000  0.29600000  0.55940000  1.0 -0.342541553
O  O84  1  0.97280000  0.29600000  0.44060000  1.0 -0.342541553
O  O85  1  0.03350000  0.53020000  0.67410000  1.0 -0.7678230181
O  O86  1  0.96650000  0.53020000  0.32590000  1.0 -0.7678230181
O  O87  1  0.44790000  0.31310000  0.67340000  1.0 -0.7678230181
O  O88  1  0.55210000  0.31310000  0.32660000  1.0 -0.7678230181
O  O89  1  0.46250000  0.71940000  0.06600000  1.0 -0.2738434299
O  O90  1  0.53750000  0.71940000  0.93400000  1.0 -0.2738434299
O  O91  1  0.38120000  0.62500000  0.13350000  1.0 -0.1207150423
O  O92  1  0.61880000  0.62500000  0.86650000  1.0 -0.1286843612
O  O93  1  0.37330000  0.12670000  0.63720000  1.0 -0.3046942129
O  O94  1  0.62670000  0.12670000  0.36280000  1.0 -0.3046942129
O  O95  1  0.45510000  0.07940000  0.55960000  1.0 -0.2800404652
O  O96  1  0.54490000  0.07940000  0.44040000  1.0 -0.2800404652
O  O97  1  0.46580000  0.47120000  0.17360000  1.0 -0.7975389733
O  O98  1  0.53420000  0.47120000  0.82640000  1.0 -0.7949058785
O  O99  1  0.04630000  0.92170000  0.05720000  1.0 -0.2305447592
O  O100  1  0.95370000  0.92170000  0.94280000  1.0 -0.2357033118
O  O101  1  0.05010000  0.68840000  0.17360000  1.0 -0.8268421664
O  O102  1  0.94990000  0.68840000  0.82640000  1.0 -0.8268421664
O  O103  1  0.12750000  0.87070000  0.13900000  1.0 -0.2305447592
O  O104  1  0.87250000  0.87070000  0.86100000  1.0 -0.2305447592
