# DDEC6 charges by PACMAN v1.1 (https://github.com/mtap-research/PACMAN-charge/)
data_cg801267m_si_003_ion_pacman
_symmetry_space_group_name_H-M   'P 1'
_cell_length_a   16.63340000
_cell_length_b   16.63340000
_cell_length_c   25.07620000
_cell_angle_alpha   90.00000000
_cell_angle_beta   90.00000000
_cell_angle_gamma   90.00000000
_symmetry_Int_Tables_number   1
_chemical_formula_structural   Zn4Fe2H80C136N18.08O22.24
_chemical_formula_sum   'Zn4 Fe2 H80 C136 N18.08 O22.24'
_cell_volume   6937.83214266
_cell_formula_units_Z   1
loop_
 _symmetry_equiv_pos_site_id
 _symmetry_equiv_pos_as_xyz
  1  'x, y, z'
loop_
 _atom_site_type_symbol
 _atom_site_label
 _atom_site_symmetry_multiplicity
 _atom_site_fract_x
 _atom_site_fract_y
 _atom_site_fract_z
 _atom_site_occupancy
 _atom_site_charge
Zn  Zn1  1  0.50000000  0.50000000  0.05777000  1.0 0.7405484161
Zn  Zn2  1  0.50000000  0.50000000  0.94223000  1.0 0.7405484161
Zn  Zn3  1  0.00000000  0.00000000  0.55777000  1.0 0.7405484161
Zn  Zn4  1  0.00000000  0.00000000  0.44223000  1.0 0.7405484161
Fe  Fe1  1  0.00000000  0.00000000  0.00000000  1.0 0.3126336476
Fe  Fe2  1  0.50000000  0.50000000  0.50000000  1.0 0.3156189761
H  H1  1  0.07430000  0.29880000  0.00000000  1.0 0.1295320631
H  H2  1  0.92570000  0.70120000  0.00000000  1.0 0.1295320631
H  H3  1  0.70120000  0.07430000  0.00000000  1.0 0.1295320631
H  H4  1  0.29880000  0.92570000  0.00000000  1.0 0.1295320631
H  H5  1  0.92570000  0.29880000  0.00000000  1.0 0.1295320631
H  H6  1  0.07430000  0.70120000  0.00000000  1.0 0.1295320631
H  H7  1  0.29880000  0.07430000  0.00000000  1.0 0.1295320631
H  H8  1  0.70120000  0.92570000  0.00000000  1.0 0.1295320631
H  H9  1  0.57430000  0.79880000  0.50000000  1.0 0.1295320631
H  H10  1  0.42570000  0.20120000  0.50000000  1.0 0.1295320631
H  H11  1  0.20120000  0.57430000  0.50000000  1.0 0.1295320631
H  H12  1  0.79880000  0.42570000  0.50000000  1.0 0.1295320631
H  H13  1  0.42570000  0.79880000  0.50000000  1.0 0.1295320631
H  H14  1  0.57430000  0.20120000  0.50000000  1.0 0.1295320631
H  H15  1  0.79880000  0.57430000  0.50000000  1.0 0.1295320631
H  H16  1  0.20120000  0.42570000  0.50000000  1.0 0.1295320631
H  H17  1  0.21900000  0.21900000  0.07960000  1.0 0.1295320631
H  H18  1  0.78100000  0.78100000  0.07960000  1.0 0.1295320631
H  H19  1  0.78100000  0.21900000  0.07960000  1.0 0.1295320631
H  H20  1  0.21900000  0.78100000  0.07960000  1.0 0.1295320631
H  H21  1  0.78100000  0.21900000  0.92040000  1.0 0.1295320631
H  H22  1  0.21900000  0.78100000  0.92040000  1.0 0.1295320631
H  H23  1  0.21900000  0.21900000  0.92040000  1.0 0.1295320631
H  H24  1  0.78100000  0.78100000  0.92040000  1.0 0.1295320631
H  H25  1  0.71900000  0.71900000  0.57960000  1.0 0.1295320631
H  H26  1  0.28100000  0.28100000  0.57960000  1.0 0.1295320631
H  H27  1  0.28100000  0.71900000  0.57960000  1.0 0.1295320631
H  H28  1  0.71900000  0.28100000  0.57960000  1.0 0.1295320631
H  H29  1  0.28100000  0.71900000  0.42040000  1.0 0.1295320631
H  H30  1  0.71900000  0.28100000  0.42040000  1.0 0.1295320631
H  H31  1  0.71900000  0.71900000  0.42040000  1.0 0.1295320631
H  H32  1  0.28100000  0.28100000  0.42040000  1.0 0.1295320631
H  H33  1  0.31750000  0.31750000  0.07970000  1.0 0.1295320631
H  H34  1  0.68250000  0.68250000  0.07970000  1.0 0.1295320631
H  H35  1  0.68250000  0.31750000  0.07970000  1.0 0.1295320631
H  H36  1  0.31750000  0.68250000  0.07970000  1.0 0.1295320631
H  H37  1  0.68250000  0.31750000  0.92030000  1.0 0.1295320631
H  H38  1  0.31750000  0.68250000  0.92030000  1.0 0.1295320631
H  H39  1  0.31750000  0.31750000  0.92030000  1.0 0.1295320631
H  H40  1  0.68250000  0.68250000  0.92030000  1.0 0.1295320631
H  H41  1  0.81750000  0.81750000  0.57970000  1.0 0.1295320631
H  H42  1  0.18250000  0.18250000  0.57970000  1.0 0.1295320631
H  H43  1  0.18250000  0.81750000  0.57970000  1.0 0.1295320631
H  H44  1  0.81750000  0.18250000  0.57970000  1.0 0.1295320631
H  H45  1  0.18250000  0.81750000  0.42030000  1.0 0.1295320631
H  H46  1  0.81750000  0.18250000  0.42030000  1.0 0.1295320631
H  H47  1  0.81750000  0.81750000  0.42030000  1.0 0.1295320631
H  H48  1  0.18250000  0.18250000  0.42030000  1.0 0.1295320631
H  H81  1  0.04850000  0.11080000  0.26230000  0.25 0.0799500075
H  H82  1  0.95150000  0.88920000  0.26230000  0.25 0.0799500075
H  H83  1  0.88920000  0.04850000  0.26230000  0.25 0.0799500075
H  H84  1  0.11080000  0.95150000  0.26230000  0.25 0.0799500075
H  H85  1  0.95150000  0.11080000  0.73770000  0.25 0.0799500075
H  H86  1  0.04850000  0.88920000  0.73770000  0.25 0.0799500075
H  H87  1  0.11080000  0.04850000  0.73770000  0.25 0.0799500075
H  H88  1  0.88920000  0.95150000  0.73770000  0.25 0.0799500075
H  H89  1  0.54850000  0.61080000  0.76230000  0.25 0.0799500075
H  H90  1  0.45150000  0.38920000  0.76230000  0.25 0.0799500075
H  H91  1  0.38920000  0.54850000  0.76230000  0.25 0.0799500075
H  H92  1  0.61080000  0.45150000  0.76230000  0.25 0.0799500075
H  H93  1  0.45150000  0.61080000  0.23770000  0.25 0.0799500075
H  H94  1  0.54850000  0.38920000  0.23770000  0.25 0.0799500075
H  H95  1  0.61080000  0.54850000  0.23770000  0.25 0.0799500075
H  H96  1  0.38920000  0.45150000  0.23770000  0.25 0.0799500075
H  H97  1  0.95150000  0.88920000  0.73770000  0.25 0.0799500075
H  H98  1  0.04850000  0.11080000  0.73770000  0.25 0.0799500075
H  H99  1  0.11080000  0.95150000  0.73770000  0.25 0.0799500075
H  H100  1  0.88920000  0.04850000  0.73770000  0.25 0.0799500075
H  H101  1  0.04850000  0.88920000  0.26230000  0.25 0.0799500075
H  H102  1  0.95150000  0.11080000  0.26230000  0.25 0.0799500075
H  H103  1  0.88920000  0.95150000  0.26230000  0.25 0.0799500075
H  H104  1  0.11080000  0.04850000  0.26230000  0.25 0.0799500075
H  H105  1  0.45150000  0.38920000  0.23770000  0.25 0.0799500075
H  H106  1  0.54850000  0.61080000  0.23770000  0.25 0.0799500075
H  H107  1  0.61080000  0.45150000  0.23770000  0.25 0.0799500075
H  H108  1  0.38920000  0.54850000  0.23770000  0.25 0.0799500075
H  H109  1  0.54850000  0.38920000  0.76230000  0.25 0.0799500075
H  H110  1  0.45150000  0.61080000  0.76230000  0.25 0.0799500075
H  H111  1  0.38920000  0.45150000  0.76230000  0.25 0.0799500075
H  H112  1  0.61080000  0.54850000  0.76230000  0.25 0.0799500075
H  H113  1  0.04780000  0.10730000  0.35200000  0.25 0.0799500075
H  H114  1  0.95220000  0.89270000  0.35200000  0.25 0.0799500075
H  H115  1  0.89270000  0.04780000  0.35200000  0.25 0.0799500075
H  H116  1  0.10730000  0.95220000  0.35200000  0.25 0.0799500075
H  H117  1  0.95220000  0.10730000  0.64800000  0.25 0.0799500075
H  H118  1  0.04780000  0.89270000  0.64800000  0.25 0.0799500075
H  H119  1  0.10730000  0.04780000  0.64800000  0.25 0.0799500075
H  H120  1  0.89270000  0.95220000  0.64800000  0.25 0.0799500075
H  H121  1  0.54780000  0.60730000  0.85200000  0.25 0.0799500075
H  H122  1  0.45220000  0.39270000  0.85200000  0.25 0.0799500075
H  H123  1  0.39270000  0.54780000  0.85200000  0.25 0.0799500075
H  H124  1  0.60730000  0.45220000  0.85200000  0.25 0.0799500075
H  H125  1  0.45220000  0.60730000  0.14800000  0.25 0.0799500075
H  H126  1  0.54780000  0.39270000  0.14800000  0.25 0.0799500075
H  H127  1  0.60730000  0.54780000  0.14800000  0.25 0.0799500075
H  H128  1  0.39270000  0.45220000  0.14800000  0.25 0.0799500075
H  H129  1  0.95220000  0.89270000  0.64800000  0.25 0.0799500075
H  H130  1  0.04780000  0.10730000  0.64800000  0.25 0.0799500075
H  H131  1  0.10730000  0.95220000  0.64800000  0.25 0.0799500075
H  H132  1  0.89270000  0.04780000  0.64800000  0.25 0.0799500075
H  H133  1  0.04780000  0.89270000  0.35200000  0.25 0.0799500075
H  H134  1  0.95220000  0.10730000  0.35200000  0.25 0.0799500075
H  H135  1  0.89270000  0.95220000  0.35200000  0.25 0.0799500075
H  H136  1  0.10730000  0.04780000  0.35200000  0.25 0.0799500075
H  H137  1  0.45220000  0.39270000  0.14800000  0.25 0.0799500075
H  H138  1  0.54780000  0.60730000  0.14800000  0.25 0.0799500075
H  H139  1  0.60730000  0.45220000  0.14800000  0.25 0.0799500075
H  H140  1  0.39270000  0.54780000  0.14800000  0.25 0.0799500075
H  H141  1  0.54780000  0.39270000  0.85200000  0.25 0.0799500075
H  H142  1  0.45220000  0.60730000  0.85200000  0.25 0.0799500075
H  H143  1  0.39270000  0.45220000  0.85200000  0.25 0.0799500075
H  H144  1  0.60730000  0.54780000  0.85200000  0.25 0.0799500075
H  H49  1  0.08360000  0.08360000  0.08810000  0.5 0.1232475141
H  H50  1  0.91640000  0.91640000  0.08810000  0.5 0.1232475141
H  H51  1  0.91640000  0.08360000  0.08810000  0.5 0.1232475141
H  H52  1  0.08360000  0.91640000  0.08810000  0.5 0.1232475141
H  H53  1  0.91640000  0.08360000  0.91190000  0.5 0.1232475141
H  H54  1  0.08360000  0.91640000  0.91190000  0.5 0.1232475141
H  H55  1  0.08360000  0.08360000  0.91190000  0.5 0.1232475141
H  H56  1  0.91640000  0.91640000  0.91190000  0.5 0.1232475141
H  H57  1  0.58360000  0.58360000  0.58810000  0.5 0.1232475141
H  H58  1  0.41640000  0.41640000  0.58810000  0.5 0.1232475141
H  H59  1  0.41640000  0.58360000  0.58810000  0.5 0.1232475141
H  H60  1  0.58360000  0.41640000  0.58810000  0.5 0.1232475141
H  H61  1  0.41640000  0.58360000  0.41190000  0.5 0.1232475141
H  H62  1  0.58360000  0.41640000  0.41190000  0.5 0.1232475141
H  H63  1  0.58360000  0.58360000  0.41190000  0.5 0.1232475141
H  H64  1  0.41640000  0.41640000  0.41190000  0.5 0.1232475141
H  H65  1  0.08510000  0.08510000  0.18050000  0.5 0.1094133277
H  H66  1  0.91490000  0.91490000  0.18050000  0.5 0.1094133277
H  H67  1  0.91490000  0.08510000  0.18050000  0.5 0.1094133277
H  H68  1  0.08510000  0.91490000  0.18050000  0.5 0.1094133277
H  H69  1  0.91490000  0.08510000  0.81950000  0.5 0.1094133277
H  H70  1  0.08510000  0.91490000  0.81950000  0.5 0.1094133277
H  H71  1  0.08510000  0.08510000  0.81950000  0.5 0.1094133277
H  H72  1  0.91490000  0.91490000  0.81950000  0.5 0.1094133277
H  H73  1  0.58510000  0.58510000  0.68050000  0.5 0.1094133277
H  H74  1  0.41490000  0.41490000  0.68050000  0.5 0.1094133277
H  H75  1  0.41490000  0.58510000  0.68050000  0.5 0.1094133277
H  H76  1  0.58510000  0.41490000  0.68050000  0.5 0.1094133277
H  H77  1  0.41490000  0.58510000  0.31950000  0.5 0.1094133277
H  H78  1  0.58510000  0.41490000  0.31950000  0.5 0.1094133277
H  H79  1  0.58510000  0.58510000  0.31950000  0.5 0.1094133277
H  H80  1  0.41490000  0.41490000  0.31950000  0.5 0.1094133277
C  C1  1  0.06584000  0.16995000  0.00000000  1.0 0.1586048893
C  C2  1  0.93416000  0.83005000  0.00000000  1.0 0.1586048893
C  C3  1  0.83005000  0.06584000  0.00000000  1.0 0.1586048893
C  C4  1  0.16995000  0.93416000  0.00000000  1.0 0.1586048893
C  C5  1  0.93416000  0.16995000  0.00000000  1.0 0.1586048893
C  C6  1  0.06584000  0.83005000  0.00000000  1.0 0.1586048893
C  C7  1  0.16995000  0.06584000  0.00000000  1.0 0.1586048893
C  C8  1  0.83005000  0.93416000  0.00000000  1.0 0.1586048893
C  C9  1  0.56584000  0.66995000  0.50000000  1.0 0.1586048893
C  C10  1  0.43416000  0.33005000  0.50000000  1.0 0.1586048893
C  C11  1  0.33005000  0.56584000  0.50000000  1.0 0.1586048893
C  C12  1  0.66995000  0.43416000  0.50000000  1.0 0.1586048893
C  C13  1  0.43416000  0.66995000  0.50000000  1.0 0.1586048893
C  C14  1  0.56584000  0.33005000  0.50000000  1.0 0.1586048893
C  C15  1  0.66995000  0.56584000  0.50000000  1.0 0.1586048893
C  C16  1  0.33005000  0.43416000  0.50000000  1.0 0.1586048893
C  C17  1  0.04030000  0.25287000  0.00000000  1.0 -0.1807851348
C  C18  1  0.95970000  0.74713000  0.00000000  1.0 -0.1807851348
C  C19  1  0.74713000  0.04030000  0.00000000  1.0 -0.1807851348
C  C20  1  0.25287000  0.95970000  0.00000000  1.0 -0.1807851348
C  C21  1  0.95970000  0.25287000  0.00000000  1.0 -0.1807851348
C  C22  1  0.04030000  0.74713000  0.00000000  1.0 -0.1807851348
C  C23  1  0.25287000  0.04030000  0.00000000  1.0 -0.1807851348
C  C24  1  0.74713000  0.95970000  0.00000000  1.0 -0.1807851348
C  C25  1  0.54030000  0.75287000  0.50000000  1.0 -0.1807851348
C  C26  1  0.45970000  0.24713000  0.50000000  1.0 -0.1807851348
C  C27  1  0.24713000  0.54030000  0.50000000  1.0 -0.1807851348
C  C28  1  0.75287000  0.45970000  0.50000000  1.0 -0.1807851348
C  C29  1  0.45970000  0.75287000  0.50000000  1.0 -0.1807851348
C  C30  1  0.54030000  0.24713000  0.50000000  1.0 -0.1807851348
C  C31  1  0.75287000  0.54030000  0.50000000  1.0 -0.1807851348
C  C32  1  0.24713000  0.45970000  0.50000000  1.0 -0.1807851348
C  C33  1  0.14564000  0.14564000  0.00000000  1.0 -0.1004046232
C  C34  1  0.85436000  0.85436000  0.00000000  1.0 -0.1004046232
C  C35  1  0.85436000  0.14564000  0.00000000  1.0 -0.1004046232
C  C36  1  0.14564000  0.85436000  0.00000000  1.0 -0.1004046232
C  C37  1  0.64564000  0.64564000  0.50000000  1.0 -0.1004046232
C  C38  1  0.35436000  0.35436000  0.50000000  1.0 -0.1004046232
C  C39  1  0.35436000  0.64564000  0.50000000  1.0 -0.1004046232
C  C40  1  0.64564000  0.35436000  0.50000000  1.0 -0.1004046232
C  C41  1  0.20894000  0.20894000  0.00000000  1.0 0.0851371684
C  C42  1  0.79106000  0.79106000  0.00000000  1.0 0.0851371684
C  C43  1  0.79106000  0.20894000  0.00000000  1.0 0.0851371684
C  C44  1  0.20894000  0.79106000  0.00000000  1.0 0.0851371684
C  C45  1  0.70894000  0.70894000  0.50000000  1.0 0.0851371684
C  C46  1  0.29106000  0.29106000  0.50000000  1.0 0.0851371684
C  C47  1  0.29106000  0.70894000  0.50000000  1.0 0.0851371684
C  C48  1  0.70894000  0.29106000  0.50000000  1.0 0.0799500075
C  C49  1  0.23887000  0.23887000  0.04663000  1.0 -0.1436104578
C  C50  1  0.76113000  0.76113000  0.04663000  1.0 -0.1436104578
C  C51  1  0.76113000  0.23887000  0.04663000  1.0 -0.1436104578
C  C52  1  0.23887000  0.76113000  0.04663000  1.0 -0.1436104578
C  C53  1  0.76113000  0.23887000  0.95337000  1.0 -0.1436104578
C  C54  1  0.23887000  0.76113000  0.95337000  1.0 -0.1436104578
C  C55  1  0.23887000  0.23887000  0.95337000  1.0 -0.1436104578
C  C56  1  0.76113000  0.76113000  0.95337000  1.0 -0.1436104578
C  C57  1  0.73887000  0.73887000  0.54663000  1.0 -0.1436104578
C  C58  1  0.26113000  0.26113000  0.54663000  1.0 -0.1436104578
C  C59  1  0.26113000  0.73887000  0.54663000  1.0 -0.1436104578
C  C60  1  0.73887000  0.26113000  0.54663000  1.0 -0.1436104578
C  C61  1  0.26113000  0.73887000  0.45337000  1.0 -0.1436104578
C  C62  1  0.73887000  0.26113000  0.45337000  1.0 -0.1436104578
C  C63  1  0.73887000  0.73887000  0.45337000  1.0 -0.1436104578
C  C64  1  0.26113000  0.26113000  0.45337000  1.0 -0.1436104578
C  C65  1  0.29760000  0.29760000  0.04677000  1.0 -0.1071600289
C  C66  1  0.70240000  0.70240000  0.04677000  1.0 -0.1071600289
C  C67  1  0.70240000  0.29760000  0.04677000  1.0 -0.1071600289
C  C68  1  0.29760000  0.70240000  0.04677000  1.0 -0.1071600289
C  C69  1  0.70240000  0.29760000  0.95323000  1.0 -0.1071600289
C  C70  1  0.29760000  0.70240000  0.95323000  1.0 -0.1071600289
C  C71  1  0.29760000  0.29760000  0.95323000  1.0 -0.1071600289
C  C72  1  0.70240000  0.70240000  0.95323000  1.0 -0.1071600289
C  C73  1  0.79760000  0.79760000  0.54677000  1.0 -0.1071600289
C  C74  1  0.20240000  0.20240000  0.54677000  1.0 -0.1071600289
C  C75  1  0.20240000  0.79760000  0.54677000  1.0 -0.1071600289
C  C76  1  0.79760000  0.20240000  0.54677000  1.0 -0.1071600289
C  C77  1  0.20240000  0.79760000  0.45323000  1.0 -0.1071600289
C  C78  1  0.79760000  0.20240000  0.45323000  1.0 -0.1071600289
C  C79  1  0.79760000  0.79760000  0.45323000  1.0 -0.1071600289
C  C80  1  0.20240000  0.20240000  0.45323000  1.0 -0.1071600289
C  C81  1  0.32726000  0.32726000  0.00000000  1.0 0.0095149842
C  C82  1  0.67274000  0.67274000  0.00000000  1.0 0.0095149842
C  C83  1  0.67274000  0.32726000  0.00000000  1.0 0.0095149842
C  C84  1  0.32726000  0.67274000  0.00000000  1.0 0.0095149842
C  C85  1  0.82726000  0.82726000  0.50000000  1.0 0.0095149842
C  C86  1  0.17274000  0.17274000  0.50000000  1.0 0.0095149842
C  C87  1  0.17274000  0.82726000  0.50000000  1.0 0.0095149842
C  C88  1  0.82726000  0.17274000  0.50000000  1.0 0.0095149842
C  C89  1  0.39134000  0.39134000  0.00000000  1.0 0.5564612812
C  C90  1  0.60866000  0.60866000  0.00000000  1.0 0.5564612812
C  C91  1  0.60866000  0.39134000  0.00000000  1.0 0.5564612812
C  C92  1  0.39134000  0.60866000  0.00000000  1.0 0.5564612812
C  C93  1  0.89134000  0.89134000  0.50000000  1.0 0.5564612812
C  C94  1  0.10866000  0.10866000  0.50000000  1.0 0.5564612812
C  C95  1  0.10866000  0.89134000  0.50000000  1.0 0.5564612812
C  C96  1  0.89134000  0.10866000  0.50000000  1.0 0.5564612812
C  C129  1  0.00000000  0.00000000  0.19170000  1.0 0.0095149842
C  C130  1  0.00000000  0.00000000  0.80830000  1.0 0.0095149842
C  C131  1  0.50000000  0.50000000  0.69170000  1.0 0.0095149842
C  C132  1  0.50000000  0.50000000  0.30830000  1.0 0.0095149842
C  C133  1  0.00000000  0.00000000  0.25070000  1.0 -0.0120457785
C  C134  1  0.00000000  0.00000000  0.74930000  1.0 -0.0120457785
C  C135  1  0.50000000  0.50000000  0.75070000  1.0 -0.0120457785
C  C136  1  0.50000000  0.50000000  0.24930000  1.0 -0.0120457785
C  C137  1  0.02840000  0.06460000  0.28010000  0.25 -0.0266730267
C  C138  1  0.97160000  0.93540000  0.28010000  0.25 -0.0266730267
C  C139  1  0.93540000  0.02840000  0.28010000  0.25 -0.0266730267
C  C140  1  0.06460000  0.97160000  0.28010000  0.25 -0.0266730267
C  C141  1  0.97160000  0.06460000  0.71990000  0.25 -0.0245784502
C  C142  1  0.02840000  0.93540000  0.71990000  0.25 -0.0266730267
C  C143  1  0.06460000  0.02840000  0.71990000  0.25 -0.0266730267
C  C144  1  0.93540000  0.97160000  0.71990000  0.25 -0.0266730267
C  C145  1  0.52840000  0.56460000  0.78010000  0.25 -0.0266730267
C  C146  1  0.47160000  0.43540000  0.78010000  0.25 -0.0266730267
C  C147  1  0.43540000  0.52840000  0.78010000  0.25 -0.0266730267
C  C148  1  0.56460000  0.47160000  0.78010000  0.25 -0.0266730267
C  C149  1  0.47160000  0.56460000  0.21990000  0.25 -0.0266730267
C  C150  1  0.52840000  0.43540000  0.21990000  0.25 -0.0266730267
C  C151  1  0.56460000  0.52840000  0.21990000  0.25 -0.0266730267
C  C152  1  0.43540000  0.47160000  0.21990000  0.25 -0.0266730267
C  C153  1  0.97160000  0.93540000  0.71990000  0.25 -0.0266730267
C  C154  1  0.02840000  0.06460000  0.71990000  0.25 -0.0266730267
C  C155  1  0.06460000  0.97160000  0.71990000  0.25 -0.0266730267
C  C156  1  0.93540000  0.02840000  0.71990000  0.25 -0.0266730267
C  C157  1  0.02840000  0.93540000  0.28010000  0.25 -0.0266730267
C  C158  1  0.97160000  0.06460000  0.28010000  0.25 -0.0245784502
C  C159  1  0.93540000  0.97160000  0.28010000  0.25 -0.0266730267
C  C160  1  0.06460000  0.02840000  0.28010000  0.25 -0.0266730267
C  C161  1  0.47160000  0.43540000  0.21990000  0.25 -0.0266730267
C  C162  1  0.52840000  0.56460000  0.21990000  0.25 -0.0266730267
C  C163  1  0.56460000  0.47160000  0.21990000  0.25 -0.0266730267
C  C164  1  0.43540000  0.52840000  0.21990000  0.25 -0.0266730267
C  C165  1  0.52840000  0.43540000  0.78010000  0.25 -0.0266730267
C  C166  1  0.47160000  0.56460000  0.78010000  0.25 -0.0266730267
C  C167  1  0.43540000  0.47160000  0.78010000  0.25 -0.0266730267
C  C168  1  0.56460000  0.52840000  0.78010000  0.25 -0.0266730267
C  C169  1  0.02750000  0.06200000  0.33320000  0.25 0.0095149842
C  C170  1  0.97250000  0.93800000  0.33320000  0.25 0.0095149842
C  C171  1  0.93800000  0.02750000  0.33320000  0.25 0.0095149842
C  C172  1  0.06200000  0.97250000  0.33320000  0.25 0.0095149842
C  C173  1  0.97250000  0.06200000  0.66680000  0.25 0.0095149842
C  C174  1  0.02750000  0.93800000  0.66680000  0.25 0.0095149842
C  C175  1  0.06200000  0.02750000  0.66680000  0.25 0.0095149842
C  C176  1  0.93800000  0.97250000  0.66680000  0.25 0.0095149842
C  C177  1  0.52750000  0.56200000  0.83320000  0.25 0.0095149842
C  C178  1  0.47250000  0.43800000  0.83320000  0.25 0.0095149842
C  C179  1  0.43800000  0.52750000  0.83320000  0.25 0.0095149842
C  C180  1  0.56200000  0.47250000  0.83320000  0.25 0.0095149842
C  C181  1  0.47250000  0.56200000  0.16680000  0.25 0.0095149842
C  C182  1  0.52750000  0.43800000  0.16680000  0.25 0.0095149842
C  C183  1  0.56200000  0.52750000  0.16680000  0.25 0.0095149842
C  C184  1  0.43800000  0.47250000  0.16680000  0.25 0.0095149842
C  C185  1  0.97250000  0.93800000  0.66680000  0.25 0.0095149842
C  C186  1  0.02750000  0.06200000  0.66680000  0.25 0.0095149842
C  C187  1  0.06200000  0.97250000  0.66680000  0.25 0.0095149842
C  C188  1  0.93800000  0.02750000  0.66680000  0.25 0.0095149842
C  C189  1  0.02750000  0.93800000  0.33320000  0.25 0.0095149842
C  C190  1  0.97250000  0.06200000  0.33320000  0.25 0.0095149842
C  C191  1  0.93800000  0.97250000  0.33320000  0.25 0.0095149842
C  C192  1  0.06200000  0.02750000  0.33320000  0.25 0.0095149842
C  C193  1  0.47250000  0.43800000  0.16680000  0.25 0.0095149842
C  C194  1  0.52750000  0.56200000  0.16680000  0.25 0.0095149842
C  C195  1  0.56200000  0.47250000  0.16680000  0.25 0.0095149842
C  C196  1  0.43800000  0.52750000  0.16680000  0.25 0.0095149842
C  C197  1  0.52750000  0.43800000  0.83320000  0.25 0.0095149842
C  C198  1  0.47250000  0.56200000  0.83320000  0.25 0.0095149842
C  C199  1  0.43800000  0.47250000  0.83320000  0.25 0.0095149842
C  C200  1  0.56200000  0.52750000  0.83320000  0.25 0.0095149842
C  C97  1  0.04860000  0.04860000  0.10710000  0.5 -0.0030320142
C  C98  1  0.95140000  0.95140000  0.10710000  0.5 -0.0030320142
C  C99  1  0.95140000  0.04860000  0.10710000  0.5 -0.0030320142
C  C100  1  0.04860000  0.95140000  0.10710000  0.5 -0.0030320142
C  C101  1  0.95140000  0.04860000  0.89290000  0.5 -0.0030320142
C  C102  1  0.04860000  0.95140000  0.89290000  0.5 -0.0030320142
C  C103  1  0.04860000  0.04860000  0.89290000  0.5 -0.0030320142
C  C104  1  0.95140000  0.95140000  0.89290000  0.5 -0.0030320142
C  C105  1  0.54860000  0.54860000  0.60710000  0.5 -0.0030320142
C  C106  1  0.45140000  0.45140000  0.60710000  0.5 -0.0030320142
C  C107  1  0.45140000  0.54860000  0.60710000  0.5 -0.0030320142
C  C108  1  0.54860000  0.45140000  0.60710000  0.5 -0.0030320142
C  C109  1  0.45140000  0.54860000  0.39290000  0.5 -0.0030320142
C  C110  1  0.54860000  0.45140000  0.39290000  0.5 -0.0030320142
C  C111  1  0.54860000  0.54860000  0.39290000  0.5 -0.0030320142
C  C112  1  0.45140000  0.45140000  0.39290000  0.5 -0.0030320142
C  C113  1  0.04960000  0.04960000  0.16250000  0.5 -0.1004046232
C  C114  1  0.95040000  0.95040000  0.16250000  0.5 -0.1004046232
C  C115  1  0.95040000  0.04960000  0.16250000  0.5 -0.1004046232
C  C116  1  0.04960000  0.95040000  0.16250000  0.5 -0.1004046232
C  C117  1  0.95040000  0.04960000  0.83750000  0.5 -0.1004046232
C  C118  1  0.04960000  0.95040000  0.83750000  0.5 -0.1004046232
C  C119  1  0.04960000  0.04960000  0.83750000  0.5 -0.1004046232
C  C120  1  0.95040000  0.95040000  0.83750000  0.5 -0.1004046232
C  C121  1  0.54960000  0.54960000  0.66250000  0.5 -0.1004046232
C  C122  1  0.45040000  0.45040000  0.66250000  0.5 -0.1004046232
C  C123  1  0.45040000  0.54960000  0.66250000  0.5 -0.1004046232
C  C124  1  0.54960000  0.45040000  0.66250000  0.5 -0.1004046232
C  C125  1  0.45040000  0.54960000  0.33750000  0.5 -0.1004046232
C  C126  1  0.54960000  0.45040000  0.33750000  0.5 -0.1004046232
C  C127  1  0.54960000  0.54960000  0.33750000  0.5 -0.1004046232
C  C128  1  0.45040000  0.45040000  0.33750000  0.5 -0.1004046232
N  N1  1  0.00000000  0.11955000  0.00000000  1.0 -0.3197237932
N  N2  1  0.00000000  0.88045000  0.00000000  1.0 -0.3197237932
N  N3  1  0.88045000  0.00000000  0.00000000  1.0 -0.3197237932
N  N4  1  0.11955000  0.00000000  0.00000000  1.0 -0.3197237932
N  N5  1  0.50000000  0.61955000  0.50000000  1.0 -0.3197237932
N  N6  1  0.50000000  0.38045000  0.50000000  1.0 -0.3197237932
N  N7  1  0.38045000  0.50000000  0.50000000  1.0 -0.3197237932
N  N8  1  0.61955000  0.50000000  0.50000000  1.0 -0.3197237932
N  N9  1  0.00000000  0.00000000  0.07979000  1.0 0.0287883217
N  N10  1  0.00000000  0.00000000  0.92021000  1.0 0.0287883217
N  N11  1  0.50000000  0.50000000  0.57979000  1.0 0.0287883217
N  N12  1  0.50000000  0.50000000  0.42021000  1.0 0.0287883217
N  N13  1  0.00000000  0.00000000  0.36160000  1.0 -0.2081322083
N  N14  1  0.00000000  0.00000000  0.63840000  1.0 -0.2081322083
N  N15  1  0.50000000  0.50000000  0.86160000  1.0 -0.2081322083
N  N16  1  0.50000000  0.50000000  0.13840000  1.0 -0.2081322083
N  N17  1  0.50000000  0.22260000  0.33110000  0.13 0.6244075677
N  N18  1  0.50000000  0.77740000  0.33110000  0.13 0.6244075677
N  N19  1  0.77740000  0.50000000  0.33110000  0.13 0.6244075677
N  N20  1  0.22260000  0.50000000  0.33110000  0.13 0.6244075677
N  N21  1  0.50000000  0.22260000  0.66890000  0.13 0.6244075677
N  N22  1  0.50000000  0.77740000  0.66890000  0.13 0.6244075677
N  N23  1  0.22260000  0.50000000  0.66890000  0.13 0.6244075677
N  N24  1  0.77740000  0.50000000  0.66890000  0.13 0.6244075677
N  N25  1  0.00000000  0.72260000  0.83110000  0.13 0.6244075677
N  N26  1  0.00000000  0.27740000  0.83110000  0.13 0.6244075677
N  N27  1  0.27740000  0.00000000  0.83110000  0.13 0.6258797786
N  N28  1  0.72260000  0.00000000  0.83110000  0.13 0.6244075677
N  N29  1  0.00000000  0.72260000  0.16890000  0.13 0.6244075677
N  N30  1  0.00000000  0.27740000  0.16890000  0.13 0.6244075677
N  N31  1  0.72260000  0.00000000  0.16890000  0.13 0.6244075677
N  N32  1  0.27740000  0.00000000  0.16890000  0.13 0.6244075677
O  O1  1  0.41576000  0.41576000  0.04396000  1.0 -0.5101843038
O  O2  1  0.58424000  0.58424000  0.04396000  1.0 -0.5101843038
O  O3  1  0.58424000  0.41576000  0.04396000  1.0 -0.5101843038
O  O4  1  0.41576000  0.58424000  0.04396000  1.0 -0.5101843038
O  O5  1  0.58424000  0.41576000  0.95604000  1.0 -0.5101843038
O  O6  1  0.41576000  0.58424000  0.95604000  1.0 -0.5101843038
O  O7  1  0.41576000  0.41576000  0.95604000  1.0 -0.5101843038
O  O8  1  0.58424000  0.58424000  0.95604000  1.0 -0.5101843038
O  O9  1  0.91576000  0.91576000  0.54396000  1.0 -0.5101843038
O  O10  1  0.08424000  0.08424000  0.54396000  1.0 -0.5101843038
O  O11  1  0.08424000  0.91576000  0.54396000  1.0 -0.5101843038
O  O12  1  0.91576000  0.08424000  0.54396000  1.0 -0.5101843038
O  O13  1  0.08424000  0.91576000  0.45604000  1.0 -0.5101843038
O  O14  1  0.91576000  0.08424000  0.45604000  1.0 -0.5101843038
O  O15  1  0.91576000  0.91576000  0.45604000  1.0 -0.5101843038
O  O16  1  0.08424000  0.08424000  0.45604000  1.0 -0.5101843038
O  O17  1  0.43660000  0.25890000  0.33300000  0.13 -0.3796590836
O  O18  1  0.56340000  0.25890000  0.33300000  0.13 -0.3796590836
O  O19  1  0.50000000  0.14970000  0.32590000  0.13 -0.1807851348
O  O20  1  0.56340000  0.74110000  0.33300000  0.13 -0.3796590836
O  O21  1  0.43660000  0.74110000  0.33300000  0.13 -0.3796590836
O  O22  1  0.50000000  0.85030000  0.32590000  0.13 -0.1807851348
O  O23  1  0.74110000  0.43660000  0.33300000  0.13 -0.3796590836
O  O24  1  0.74110000  0.56340000  0.33300000  0.13 -0.3796590836
O  O25  1  0.85030000  0.50000000  0.32590000  0.13 -0.1807851348
O  O26  1  0.25890000  0.56340000  0.33300000  0.13 -0.3796590836
O  O27  1  0.25890000  0.43660000  0.33300000  0.13 -0.3796590836
O  O28  1  0.14970000  0.50000000  0.32590000  0.13 -0.1807851348
O  O29  1  0.56340000  0.25890000  0.66700000  0.13 -0.3796590836
O  O30  1  0.43660000  0.25890000  0.66700000  0.13 -0.3796590836
O  O31  1  0.50000000  0.14970000  0.67410000  0.13 -0.1807851348
O  O32  1  0.43660000  0.74110000  0.66700000  0.13 -0.3796590836
O  O33  1  0.56340000  0.74110000  0.66700000  0.13 -0.3796590836
O  O34  1  0.50000000  0.85030000  0.67410000  0.13 -0.1807851348
O  O35  1  0.25890000  0.43660000  0.66700000  0.13 -0.3796590836
O  O36  1  0.25890000  0.56340000  0.66700000  0.13 -0.3796590836
O  O37  1  0.14970000  0.50000000  0.67410000  0.13 -0.1807851348
O  O38  1  0.74110000  0.56340000  0.66700000  0.13 -0.3796590836
O  O39  1  0.74110000  0.43660000  0.66700000  0.13 -0.3796590836
O  O40  1  0.85030000  0.50000000  0.67410000  0.13 -0.1807851348
O  O41  1  0.93660000  0.75890000  0.83300000  0.13 -0.3796590836
O  O42  1  0.06340000  0.75890000  0.83300000  0.13 -0.3796590836
O  O43  1  0.00000000  0.64970000  0.82590000  0.13 -0.1731735576
O  O44  1  0.06340000  0.24110000  0.83300000  0.13 -0.3796590836
O  O45  1  0.93660000  0.24110000  0.83300000  0.13 -0.3796590836
O  O46  1  0.00000000  0.35030000  0.82590000  0.13 -0.1807851348
O  O47  1  0.24110000  0.93660000  0.83300000  0.13 -0.3796590836
O  O48  1  0.24110000  0.06340000  0.83300000  0.13 -0.3796590836
O  O49  1  0.35030000  0.00000000  0.82590000  0.13 -0.1864988664
O  O50  1  0.75890000  0.06340000  0.83300000  0.13 -0.3796590836
O  O51  1  0.75890000  0.93660000  0.83300000  0.13 -0.3796590836
O  O52  1  0.64970000  0.00000000  0.82590000  0.13 -0.1807851348
O  O53  1  0.06340000  0.75890000  0.16700000  0.13 -0.3796590836
O  O54  1  0.93660000  0.75890000  0.16700000  0.13 -0.3796590836
O  O55  1  0.00000000  0.64970000  0.17410000  0.13 -0.1731735576
O  O56  1  0.93660000  0.24110000  0.16700000  0.13 -0.3796590836
O  O57  1  0.06340000  0.24110000  0.16700000  0.13 -0.3796590836
O  O58  1  0.00000000  0.35030000  0.17410000  0.13 -0.1807851348
O  O59  1  0.75890000  0.93660000  0.16700000  0.13 -0.3796590836
O  O60  1  0.75890000  0.06340000  0.16700000  0.13 -0.3796590836
O  O61  1  0.64970000  0.00000000  0.17410000  0.13 -0.1731735576
O  O62  1  0.24110000  0.06340000  0.16700000  0.13 -0.3796590836
O  O63  1  0.24110000  0.93660000  0.16700000  0.13 -0.3796590836
O  O64  1  0.35030000  0.00000000  0.17410000  0.13 -0.1807851348
