# DDEC6 charges by PACMAN v1.1 (https://github.com/mtap-research/PACMAN-charge/)
data_ja6b12353_si_002_1_FSR_pacman
_symmetry_space_group_name_H-M   'P 1'
_cell_length_a   29.02020000
_cell_length_b   29.02020000
_cell_length_c   41.04080000
_cell_angle_alpha   90.00000000
_cell_angle_beta   90.00000000
_cell_angle_gamma   90.00000000
_symmetry_Int_Tables_number   1
_chemical_formula_structural   Fe48H255.36C384Cl15.84O240.16
_chemical_formula_sum   'Fe48 H255.36 C384 Cl15.84 O240.16'
_cell_volume   34563.41294757
_cell_formula_units_Z   1
loop_
 _symmetry_equiv_pos_site_id
 _symmetry_equiv_pos_as_xyz
  1  'x, y, z'
loop_
 _atom_site_type_symbol
 _atom_site_label
 _atom_site_symmetry_multiplicity
 _atom_site_fract_x
 _atom_site_fract_y
 _atom_site_fract_z
 _atom_site_occupancy
 _atom_site_charge
Fe  Fe1  1  0.55688000  0.81558000  0.62935000  1.0 1.0050046155
Fe  Fe2  1  0.00000000  0.25870000  0.81377000  1.0 1.0029193536
Fe  Fe3  1  0.18442000  0.44312000  0.37065000  1.0 1.0029193536
Fe  Fe4  1  0.74130000  0.00000000  0.18623000  1.0 1.0029193536
Fe  Fe5  1  0.81558000  0.44312000  0.62935000  1.0 1.0050046155
Fe  Fe6  1  0.44312000  0.18442000  0.62935000  1.0 1.0029193536
Fe  Fe7  1  0.18442000  0.55688000  0.62935000  1.0 1.0029193536
Fe  Fe8  1  0.55688000  0.81558000  0.37065000  1.0 1.0029193536
Fe  Fe9  1  0.81558000  0.55688000  0.37065000  1.0 1.0029193536
Fe  Fe10  1  0.81558000  0.55688000  0.62935000  1.0 1.0050046155
Fe  Fe11  1  0.81558000  0.44312000  0.37065000  1.0 1.0029193536
Fe  Fe12  1  0.00000000  0.74130000  0.18623000  1.0 1.0029193536
Fe  Fe13  1  0.25870000  0.00000000  0.81377000  1.0 1.0029193536
Fe  Fe14  1  0.18442000  0.55688000  0.37065000  1.0 1.0029193536
Fe  Fe15  1  0.74130000  0.00000000  0.81377000  1.0 1.0029193536
Fe  Fe16  1  0.55688000  0.18442000  0.62935000  1.0 1.0029193536
Fe  Fe17  1  0.44312000  0.81558000  0.62935000  1.0 1.0029193536
Fe  Fe18  1  0.00000000  0.25870000  0.18623000  1.0 1.0029193536
Fe  Fe19  1  0.25870000  0.00000000  0.18623000  1.0 1.0029193536
Fe  Fe20  1  0.00000000  0.74130000  0.81377000  1.0 1.0029193536
Fe  Fe21  1  0.55688000  0.18442000  0.37065000  1.0 1.0029193536
Fe  Fe22  1  0.44312000  0.81558000  0.37065000  1.0 1.0029193536
Fe  Fe23  1  0.44312000  0.18442000  0.37065000  1.0 1.0029193536
Fe  Fe24  1  0.18442000  0.44312000  0.62935000  1.0 1.0029193536
Fe  Fe25  1  0.05688000  0.31558000  0.12935000  1.0 1.0029193536
Fe  Fe26  1  0.50000000  0.75870000  0.31377000  1.0 1.0029193536
Fe  Fe27  1  0.68442000  0.94312000  0.87065000  1.0 1.0029193536
Fe  Fe28  1  0.24130000  0.50000000  0.68623000  1.0 1.0029193536
Fe  Fe29  1  0.31558000  0.94312000  0.12935000  1.0 1.0029193536
Fe  Fe30  1  0.94312000  0.68442000  0.12935000  1.0 1.0029193536
Fe  Fe31  1  0.68442000  0.05688000  0.12935000  1.0 1.0029193536
Fe  Fe32  1  0.05688000  0.31558000  0.87065000  1.0 1.0029193536
Fe  Fe33  1  0.31558000  0.05688000  0.87065000  1.0 1.0029193536
Fe  Fe34  1  0.31558000  0.05688000  0.12935000  1.0 1.0029193536
Fe  Fe35  1  0.31558000  0.94312000  0.87065000  1.0 1.0029193536
Fe  Fe36  1  0.50000000  0.24130000  0.68623000  1.0 1.0029193536
Fe  Fe37  1  0.75870000  0.50000000  0.31377000  1.0 1.0029193536
Fe  Fe38  1  0.68442000  0.05688000  0.87065000  1.0 1.0029193536
Fe  Fe39  1  0.24130000  0.50000000  0.31377000  1.0 1.0029193536
Fe  Fe40  1  0.05688000  0.68442000  0.12935000  1.0 1.0029193536
Fe  Fe41  1  0.94312000  0.31558000  0.12935000  1.0 1.0029193536
Fe  Fe42  1  0.50000000  0.75870000  0.68623000  1.0 1.0029193536
Fe  Fe43  1  0.75870000  0.50000000  0.68623000  1.0 1.0029193536
Fe  Fe44  1  0.50000000  0.24130000  0.31377000  1.0 1.0029193536
Fe  Fe45  1  0.05688000  0.68442000  0.87065000  1.0 1.0029193536
Fe  Fe46  1  0.94312000  0.31558000  0.87065000  1.0 1.0029193536
Fe  Fe47  1  0.94312000  0.68442000  0.87065000  1.0 1.0029193536
Fe  Fe48  1  0.68442000  0.94312000  0.12935000  1.0 1.0029193536
H  H1  1  0.65350000  0.71010000  0.61230000  1.0 0.102456668
H  H2  1  0.08400000  0.14060000  0.81820000  1.0 0.102456668
H  H3  1  0.28990000  0.34650000  0.38770000  1.0 0.102456668
H  H4  1  0.85940000  0.91600000  0.18180000  1.0 0.102456668
H  H5  1  0.71010000  0.34650000  0.61230000  1.0 0.102456668
H  H6  1  0.34650000  0.28990000  0.61230000  1.0 0.102456668
H  H7  1  0.28990000  0.65350000  0.61230000  1.0 0.102456668
H  H8  1  0.56950000  0.79410000  0.47170000  1.0 0.102456668
H  H9  1  0.71010000  0.65350000  0.38770000  1.0 0.102456668
H  H10  1  0.79410000  0.56950000  0.52830000  1.0 0.102456668
H  H11  1  0.79410000  0.43050000  0.47170000  1.0 0.102456668
H  H12  1  0.08400000  0.85940000  0.18180000  1.0 0.102456668
H  H13  1  0.14060000  0.91600000  0.81820000  1.0 0.102456668
H  H14  1  0.20590000  0.56950000  0.47170000  1.0 0.102456668
H  H15  1  0.85940000  0.08400000  0.81820000  1.0 0.102456668
H  H16  1  0.56950000  0.20590000  0.52830000  1.0 0.102456668
H  H17  1  0.43050000  0.79410000  0.52830000  1.0 0.102456668
H  H18  1  0.91600000  0.14060000  0.18180000  1.0 0.102456668
H  H19  1  0.14060000  0.08400000  0.18180000  1.0 0.102456668
H  H20  1  0.91600000  0.85940000  0.81820000  1.0 0.102456668
H  H21  1  0.65350000  0.28990000  0.38770000  1.0 0.102456668
H  H22  1  0.34650000  0.71010000  0.38770000  1.0 0.102456668
H  H23  1  0.43050000  0.20590000  0.47170000  1.0 0.102456668
H  H24  1  0.20590000  0.43050000  0.52830000  1.0 0.102456668
H  H25  1  0.15350000  0.21010000  0.11230000  1.0 0.102456668
H  H26  1  0.58400000  0.64060000  0.31820000  1.0 0.102456668
H  H27  1  0.78990000  0.84650000  0.88770000  1.0 0.102456668
H  H28  1  0.35940000  0.41600000  0.68180000  1.0 0.102456668
H  H29  1  0.21010000  0.84650000  0.11230000  1.0 0.102456668
H  H30  1  0.84650000  0.78990000  0.11230000  1.0 0.102456668
H  H31  1  0.78990000  0.15350000  0.11230000  1.0 0.102456668
H  H32  1  0.06950000  0.29410000  0.97170000  1.0 0.102456668
H  H33  1  0.21010000  0.15350000  0.88770000  1.0 0.102456668
H  H34  1  0.29410000  0.06950000  0.02830000  1.0 0.102456668
H  H35  1  0.29410000  0.93050000  0.97170000  1.0 0.102456668
H  H36  1  0.58400000  0.35940000  0.68180000  1.0 0.102456668
H  H37  1  0.64060000  0.41600000  0.31820000  1.0 0.102456668
H  H38  1  0.70590000  0.06950000  0.97170000  1.0 0.102456668
H  H39  1  0.35940000  0.58400000  0.31820000  1.0 0.102456668
H  H40  1  0.06950000  0.70590000  0.02830000  1.0 0.102456668
H  H41  1  0.93050000  0.29410000  0.02830000  1.0 0.102456668
H  H42  1  0.41600000  0.64060000  0.68180000  1.0 0.102456668
H  H43  1  0.64060000  0.58400000  0.68180000  1.0 0.102456668
H  H44  1  0.41600000  0.35940000  0.31820000  1.0 0.102456668
H  H45  1  0.15350000  0.78990000  0.88770000  1.0 0.102456668
H  H46  1  0.84650000  0.21010000  0.88770000  1.0 0.102456668
H  H47  1  0.93050000  0.70590000  0.97170000  1.0 0.102456668
H  H48  1  0.70590000  0.93050000  0.02830000  1.0 0.102456668
H  H49  1  0.34650000  0.28990000  0.38770000  1.0 0.102456668
H  H50  1  0.91600000  0.85940000  0.18180000  1.0 0.102456668
H  H51  1  0.71010000  0.65350000  0.61230000  1.0 0.102456668
H  H52  1  0.14060000  0.08400000  0.81820000  1.0 0.102456668
H  H53  1  0.28990000  0.65350000  0.38770000  1.0 0.102456668
H  H54  1  0.65350000  0.71010000  0.38770000  1.0 0.102456668
H  H55  1  0.71010000  0.34650000  0.38770000  1.0 0.102456668
H  H56  1  0.43050000  0.20590000  0.52830000  1.0 0.102456668
H  H57  1  0.28990000  0.34650000  0.61230000  1.0 0.102456668
H  H58  1  0.20590000  0.43050000  0.47170000  1.0 0.102456668
H  H59  1  0.20590000  0.56950000  0.52830000  1.0 0.102456668
H  H60  1  0.91600000  0.14060000  0.81820000  1.0 0.102456668
H  H61  1  0.85940000  0.08400000  0.18180000  1.0 0.102456668
H  H62  1  0.79410000  0.43050000  0.52830000  1.0 0.102456668
H  H63  1  0.14060000  0.91600000  0.18180000  1.0 0.102456668
H  H64  1  0.43050000  0.79410000  0.47170000  1.0 0.102456668
H  H65  1  0.56950000  0.20590000  0.47170000  1.0 0.102456668
H  H66  1  0.08400000  0.85940000  0.81820000  1.0 0.102456668
H  H67  1  0.85940000  0.91600000  0.81820000  1.0 0.102456668
H  H68  1  0.08400000  0.14060000  0.18180000  1.0 0.102456668
H  H69  1  0.34650000  0.71010000  0.61230000  1.0 0.102456668
H  H70  1  0.65350000  0.28990000  0.61230000  1.0 0.102456668
H  H71  1  0.56950000  0.79410000  0.52830000  1.0 0.102456668
H  H72  1  0.79410000  0.56950000  0.47170000  1.0 0.102456668
H  H73  1  0.84650000  0.78990000  0.88770000  1.0 0.102456668
H  H74  1  0.41600000  0.35940000  0.68180000  1.0 0.102456668
H  H75  1  0.21010000  0.15350000  0.11230000  1.0 0.102456668
H  H76  1  0.64060000  0.58400000  0.31820000  1.0 0.102456668
H  H77  1  0.78990000  0.15350000  0.88770000  1.0 0.102456668
H  H78  1  0.15350000  0.21010000  0.88770000  1.0 0.102456668
H  H79  1  0.21010000  0.84650000  0.88770000  1.0 0.102456668
H  H80  1  0.93050000  0.70590000  0.02830000  1.0 0.102456668
H  H81  1  0.78990000  0.84650000  0.11230000  1.0 0.102456668
H  H82  1  0.70590000  0.93050000  0.97170000  1.0 0.102456668
H  H83  1  0.70590000  0.06950000  0.02830000  1.0 0.102456668
H  H84  1  0.41600000  0.64060000  0.31820000  1.0 0.102456668
H  H85  1  0.35940000  0.58400000  0.68180000  1.0 0.102456668
H  H86  1  0.29410000  0.93050000  0.02830000  1.0 0.102456668
H  H87  1  0.64060000  0.41600000  0.68180000  1.0 0.102456668
H  H88  1  0.93050000  0.29410000  0.97170000  1.0 0.102456668
H  H89  1  0.06950000  0.70590000  0.97170000  1.0 0.102456668
H  H90  1  0.58400000  0.35940000  0.31820000  1.0 0.102456668
H  H91  1  0.35940000  0.41600000  0.31820000  1.0 0.102456668
H  H92  1  0.58400000  0.64060000  0.68180000  1.0 0.102456668
H  H93  1  0.84650000  0.21010000  0.11230000  1.0 0.102456668
H  H94  1  0.15350000  0.78990000  0.11230000  1.0 0.102456668
H  H95  1  0.06950000  0.29410000  0.02830000  1.0 0.102456668
H  H96  1  0.29410000  0.06950000  0.97170000  1.0 0.102456668
H  H97  1  0.62130000  0.86470000  0.60310000  0.33 0.195675795
H  H98  1  0.98140000  0.22480000  0.75700000  0.33 0.1948216566
H  H99  1  0.13530000  0.37870000  0.39690000  0.33 0.195675795
H  H100  1  0.77520000  0.01860000  0.24300000  0.33 0.195675795
H  H101  1  0.86470000  0.37870000  0.60310000  0.33 0.195675795
H  H102  1  0.37870000  0.13530000  0.60310000  0.33 0.195675795
H  H103  1  0.13530000  0.62130000  0.60310000  0.33 0.195675795
H  H104  1  0.63990000  0.84610000  0.37830000  0.33 0.195675795
H  H105  1  0.86470000  0.62130000  0.39690000  0.33 0.195675795
H  H106  1  0.84610000  0.63990000  0.62170000  0.33 0.195675795
H  H107  1  0.84610000  0.36010000  0.37830000  0.33 0.195675795
H  H108  1  0.98140000  0.77520000  0.24300000  0.33 0.195675795
H  H109  1  0.22480000  0.01860000  0.75700000  0.33 0.195675795
H  H110  1  0.15390000  0.63990000  0.37830000  0.33 0.195675795
H  H111  1  0.77520000  0.98140000  0.75700000  0.33 0.195675795
H  H112  1  0.63990000  0.15390000  0.62170000  0.33 0.195675795
H  H113  1  0.36010000  0.84610000  0.62170000  0.33 0.195675795
H  H114  1  0.01860000  0.22480000  0.24300000  0.33 0.195675795
H  H115  1  0.22480000  0.98140000  0.24300000  0.33 0.195675795
H  H116  1  0.01860000  0.77520000  0.75700000  0.33 0.195675795
H  H117  1  0.62130000  0.13530000  0.39690000  0.33 0.195675795
H  H118  1  0.37870000  0.86470000  0.39690000  0.33 0.195675795
H  H119  1  0.36010000  0.15390000  0.37830000  0.33 0.195675795
H  H120  1  0.15390000  0.36010000  0.62170000  0.33 0.195675795
H  H121  1  0.12130000  0.36470000  0.10310000  0.33 0.195675795
H  H122  1  0.48140000  0.72480000  0.25700000  0.33 0.195675795
H  H123  1  0.63530000  0.87870000  0.89690000  0.33 0.195675795
H  H124  1  0.27520000  0.51860000  0.74300000  0.33 0.195675795
H  H125  1  0.36470000  0.87870000  0.10310000  0.33 0.195675795
H  H126  1  0.87870000  0.63530000  0.10310000  0.33 0.195675795
H  H127  1  0.63530000  0.12130000  0.10310000  0.33 0.195675795
H  H128  1  0.13990000  0.34610000  0.87830000  0.33 0.195675795
H  H129  1  0.36470000  0.12130000  0.89690000  0.33 0.195675795
H  H130  1  0.34610000  0.13990000  0.12170000  0.33 0.195675795
H  H131  1  0.34610000  0.86010000  0.87830000  0.33 0.195675795
H  H132  1  0.48140000  0.27520000  0.74300000  0.33 0.195675795
H  H133  1  0.72480000  0.51860000  0.25700000  0.33 0.195675795
H  H134  1  0.65390000  0.13990000  0.87830000  0.33 0.195675795
H  H135  1  0.27520000  0.48140000  0.25700000  0.33 0.195675795
H  H136  1  0.13990000  0.65390000  0.12170000  0.33 0.195675795
H  H137  1  0.86010000  0.34610000  0.12170000  0.33 0.195675795
H  H138  1  0.51860000  0.72480000  0.74300000  0.33 0.195675795
H  H139  1  0.72480000  0.48140000  0.74300000  0.33 0.195675795
H  H140  1  0.51860000  0.27520000  0.25700000  0.33 0.195675795
H  H141  1  0.12130000  0.63530000  0.89690000  0.33 0.195675795
H  H142  1  0.87870000  0.36470000  0.89690000  0.33 0.195675795
H  H143  1  0.86010000  0.65390000  0.87830000  0.33 0.195675795
H  H144  1  0.65390000  0.86010000  0.12170000  0.33 0.195675795
H  H145  1  0.37870000  0.13530000  0.39690000  0.33 0.195675795
H  H146  1  0.01860000  0.77520000  0.24300000  0.33 0.195675795
H  H147  1  0.86470000  0.62130000  0.60310000  0.33 0.195675795
H  H148  1  0.22480000  0.98140000  0.75700000  0.33 0.195675795
H  H149  1  0.13530000  0.62130000  0.39690000  0.33 0.195675795
H  H150  1  0.62130000  0.86470000  0.39690000  0.33 0.195675795
H  H151  1  0.86470000  0.37870000  0.39690000  0.33 0.195675795
H  H152  1  0.36010000  0.15390000  0.62170000  0.33 0.195675795
H  H153  1  0.13530000  0.37870000  0.60310000  0.33 0.195675795
H  H154  1  0.15390000  0.36010000  0.37830000  0.33 0.195675795
H  H155  1  0.15390000  0.63990000  0.62170000  0.33 0.195675795
H  H156  1  0.01860000  0.22480000  0.75700000  0.33 0.195675795
H  H157  1  0.77520000  0.98140000  0.24300000  0.33 0.195675795
H  H158  1  0.84610000  0.36010000  0.62170000  0.33 0.195675795
H  H159  1  0.22480000  0.01860000  0.24300000  0.33 0.195675795
H  H160  1  0.36010000  0.84610000  0.37830000  0.33 0.195675795
H  H161  1  0.63990000  0.15390000  0.37830000  0.33 0.195675795
H  H162  1  0.98140000  0.77520000  0.75700000  0.33 0.1948216566
H  H163  1  0.77520000  0.01860000  0.75700000  0.33 0.195675795
H  H164  1  0.98140000  0.22480000  0.24300000  0.33 0.195675795
H  H165  1  0.37870000  0.86470000  0.60310000  0.33 0.195675795
H  H166  1  0.62130000  0.13530000  0.60310000  0.33 0.195675795
H  H167  1  0.63990000  0.84610000  0.62170000  0.33 0.195675795
H  H168  1  0.84610000  0.63990000  0.37830000  0.33 0.195675795
H  H169  1  0.87870000  0.63530000  0.89690000  0.33 0.195675795
H  H170  1  0.51860000  0.27520000  0.74300000  0.33 0.195675795
H  H171  1  0.36470000  0.12130000  0.10310000  0.33 0.195675795
H  H172  1  0.72480000  0.48140000  0.25700000  0.33 0.195675795
H  H173  1  0.63530000  0.12130000  0.89690000  0.33 0.195675795
H  H174  1  0.12130000  0.36470000  0.89690000  0.33 0.195675795
H  H175  1  0.36470000  0.87870000  0.89690000  0.33 0.195675795
H  H176  1  0.86010000  0.65390000  0.12170000  0.33 0.195675795
H  H177  1  0.63530000  0.87870000  0.10310000  0.33 0.195675795
H  H178  1  0.65390000  0.86010000  0.87830000  0.33 0.195675795
H  H179  1  0.65390000  0.13990000  0.12170000  0.33 0.195675795
H  H180  1  0.51860000  0.72480000  0.25700000  0.33 0.195675795
H  H181  1  0.27520000  0.48140000  0.74300000  0.33 0.195675795
H  H182  1  0.34610000  0.86010000  0.12170000  0.33 0.195675795
H  H183  1  0.72480000  0.51860000  0.74300000  0.33 0.195675795
H  H184  1  0.86010000  0.34610000  0.87830000  0.33 0.195675795
H  H185  1  0.13990000  0.65390000  0.87830000  0.33 0.195675795
H  H186  1  0.48140000  0.27520000  0.25700000  0.33 0.195675795
H  H187  1  0.27520000  0.51860000  0.25700000  0.33 0.195675795
H  H188  1  0.48140000  0.72480000  0.74300000  0.33 0.195675795
H  H189  1  0.87870000  0.36470000  0.10310000  0.33 0.195675795
H  H190  1  0.12130000  0.63530000  0.10310000  0.33 0.195675795
H  H191  1  0.13990000  0.34610000  0.12170000  0.33 0.195675795
H  H192  1  0.34610000  0.13990000  0.87830000  0.33 0.195675795
H  H193  1  0.64090000  0.82050000  0.60880000  0.33 0.1677067124
H  H194  1  0.01900000  0.19860000  0.76930000  0.33 0.1677067124
H  H195  1  0.17950000  0.35910000  0.39120000  0.33 0.1677067124
H  H196  1  0.80140000  0.98100000  0.23070000  0.33 0.1677067124
H  H197  1  0.82050000  0.35910000  0.60880000  0.33 0.1677067124
H  H198  1  0.35910000  0.17950000  0.60880000  0.33 0.1677067124
H  H199  1  0.17950000  0.64090000  0.60880000  0.33 0.1677067124
H  H200  1  0.62190000  0.83950000  0.41020000  0.33 0.1677067124
H  H201  1  0.82050000  0.64090000  0.39120000  0.33 0.1677067124
H  H202  1  0.83950000  0.62190000  0.58980000  0.33 0.1677067124
H  H203  1  0.83950000  0.37810000  0.41020000  0.33 0.1677067124
H  H204  1  0.01900000  0.80140000  0.23070000  0.33 0.1677067124
H  H205  1  0.19860000  0.98100000  0.76930000  0.33 0.1677067124
H  H206  1  0.16050000  0.62190000  0.41020000  0.33 0.1677067124
H  H207  1  0.80140000  0.01900000  0.76930000  0.33 0.1677067124
H  H208  1  0.62190000  0.16050000  0.58980000  0.33 0.1677067124
H  H209  1  0.37810000  0.83950000  0.58980000  0.33 0.1677067124
H  H210  1  0.98100000  0.19860000  0.23070000  0.33 0.1677067124
H  H211  1  0.19860000  0.01900000  0.23070000  0.33 0.1677067124
H  H212  1  0.98100000  0.80140000  0.76930000  0.33 0.1677067124
H  H213  1  0.64090000  0.17950000  0.39120000  0.33 0.1677067124
H  H214  1  0.35910000  0.82050000  0.39120000  0.33 0.1677067124
H  H215  1  0.37810000  0.16050000  0.41020000  0.33 0.1677067124
H  H216  1  0.16050000  0.37810000  0.58980000  0.33 0.1677067124
H  H217  1  0.14090000  0.32050000  0.10880000  0.33 0.1646278807
H  H218  1  0.51900000  0.69860000  0.26930000  0.33 0.1677067124
H  H219  1  0.67950000  0.85910000  0.89120000  0.33 0.1677067124
H  H220  1  0.30140000  0.48100000  0.73070000  0.33 0.1677067124
H  H221  1  0.32050000  0.85910000  0.10880000  0.33 0.1646278807
H  H222  1  0.85910000  0.67950000  0.10880000  0.33 0.1646278807
H  H223  1  0.67950000  0.14090000  0.10880000  0.33 0.1646278807
H  H224  1  0.12190000  0.33950000  0.91020000  0.33 0.1677067124
H  H225  1  0.32050000  0.14090000  0.89120000  0.33 0.1677067124
H  H226  1  0.33950000  0.12190000  0.08980000  0.33 0.1677067124
H  H227  1  0.33950000  0.87810000  0.91020000  0.33 0.1677067124
H  H228  1  0.51900000  0.30140000  0.73070000  0.33 0.1677067124
H  H229  1  0.69860000  0.48100000  0.26930000  0.33 0.1677067124
H  H230  1  0.66050000  0.12190000  0.91020000  0.33 0.1677067124
H  H231  1  0.30140000  0.51900000  0.26930000  0.33 0.1677067124
H  H232  1  0.12190000  0.66050000  0.08980000  0.33 0.1677067124
H  H233  1  0.87810000  0.33950000  0.08980000  0.33 0.1677067124
H  H234  1  0.48100000  0.69860000  0.73070000  0.33 0.1677067124
H  H235  1  0.69860000  0.51900000  0.73070000  0.33 0.1677067124
H  H236  1  0.48100000  0.30140000  0.26930000  0.33 0.1677067124
H  H237  1  0.14090000  0.67950000  0.89120000  0.33 0.1677067124
H  H238  1  0.85910000  0.32050000  0.89120000  0.33 0.1677067124
H  H239  1  0.87810000  0.66050000  0.91020000  0.33 0.1677067124
H  H240  1  0.66050000  0.87810000  0.08980000  0.33 0.1677067124
H  H241  1  0.35910000  0.17950000  0.39120000  0.33 0.1677067124
H  H242  1  0.98100000  0.80140000  0.23070000  0.33 0.1677067124
H  H243  1  0.82050000  0.64090000  0.60880000  0.33 0.1677067124
H  H244  1  0.19860000  0.01900000  0.76930000  0.33 0.1677067124
H  H245  1  0.17950000  0.64090000  0.39120000  0.33 0.1677067124
H  H246  1  0.64090000  0.82050000  0.39120000  0.33 0.1677067124
H  H247  1  0.82050000  0.35910000  0.39120000  0.33 0.1677067124
H  H248  1  0.37810000  0.16050000  0.58980000  0.33 0.1677067124
H  H249  1  0.17950000  0.35910000  0.60880000  0.33 0.1677067124
H  H250  1  0.16050000  0.37810000  0.41020000  0.33 0.1677067124
H  H251  1  0.16050000  0.62190000  0.58980000  0.33 0.1677067124
H  H252  1  0.98100000  0.19860000  0.76930000  0.33 0.1677067124
H  H253  1  0.80140000  0.01900000  0.23070000  0.33 0.1677067124
H  H254  1  0.83950000  0.37810000  0.58980000  0.33 0.1677067124
H  H255  1  0.19860000  0.98100000  0.23070000  0.33 0.1677067124
H  H256  1  0.37810000  0.83950000  0.41020000  0.33 0.1677067124
H  H257  1  0.62190000  0.16050000  0.41020000  0.33 0.1677067124
H  H258  1  0.01900000  0.80140000  0.76930000  0.33 0.1677067124
H  H259  1  0.80140000  0.98100000  0.76930000  0.33 0.1677067124
H  H260  1  0.01900000  0.19860000  0.23070000  0.33 0.1677067124
H  H261  1  0.35910000  0.82050000  0.60880000  0.33 0.1677067124
H  H262  1  0.64090000  0.17950000  0.60880000  0.33 0.1677067124
H  H263  1  0.62190000  0.83950000  0.58980000  0.33 0.1677067124
H  H264  1  0.83950000  0.62190000  0.41020000  0.33 0.1677067124
H  H265  1  0.85910000  0.67950000  0.89120000  0.33 0.1677067124
H  H266  1  0.48100000  0.30140000  0.73070000  0.33 0.1677067124
H  H267  1  0.32050000  0.14090000  0.10880000  0.33 0.1646278807
H  H268  1  0.69860000  0.51900000  0.26930000  0.33 0.1677067124
H  H269  1  0.67950000  0.14090000  0.89120000  0.33 0.1677067124
H  H270  1  0.14090000  0.32050000  0.89120000  0.33 0.1677067124
H  H271  1  0.32050000  0.85910000  0.89120000  0.33 0.1677067124
H  H272  1  0.87810000  0.66050000  0.08980000  0.33 0.1677067124
H  H273  1  0.67950000  0.85910000  0.10880000  0.33 0.1646278807
H  H274  1  0.66050000  0.87810000  0.91020000  0.33 0.1677067124
H  H275  1  0.66050000  0.12190000  0.08980000  0.33 0.1677067124
H  H276  1  0.48100000  0.69860000  0.26930000  0.33 0.1677067124
H  H277  1  0.30140000  0.51900000  0.73070000  0.33 0.1677067124
H  H278  1  0.33950000  0.87810000  0.08980000  0.33 0.1677067124
H  H279  1  0.69860000  0.48100000  0.73070000  0.33 0.1677067124
H  H280  1  0.87810000  0.33950000  0.91020000  0.33 0.1677067124
H  H281  1  0.12190000  0.66050000  0.91020000  0.33 0.1677067124
H  H282  1  0.51900000  0.30140000  0.26930000  0.33 0.1677067124
H  H283  1  0.30140000  0.48100000  0.26930000  0.33 0.1677067124
H  H284  1  0.51900000  0.69860000  0.73070000  0.33 0.1677067124
H  H285  1  0.85910000  0.32050000  0.10880000  0.33 0.1646278807
H  H286  1  0.14090000  0.67950000  0.10880000  0.33 0.1646278807
H  H287  1  0.12190000  0.33950000  0.08980000  0.33 0.1677067124
H  H288  1  0.33950000  0.12190000  0.91020000  0.33 0.1677067124
H  H289  1  0.65160000  0.87480000  0.69850000  0.5 0.081379901
H  H290  1  0.08690000  0.31010000  0.73680000  0.5 0.081379901
H  H291  1  0.12520000  0.34840000  0.30150000  0.5 0.081379901
H  H292  1  0.68990000  0.91310000  0.26320000  0.5 0.081379901
H  H293  1  0.87480000  0.34840000  0.69850000  0.5 0.081379901
H  H294  1  0.34840000  0.12520000  0.69850000  0.5 0.081379901
H  H295  1  0.12520000  0.65160000  0.69850000  0.5 0.081379901
H  H296  1  0.56470000  0.96170000  0.38840000  0.5 0.081379901
H  H297  1  0.87480000  0.65160000  0.30150000  0.5 0.081379901
H  H298  1  0.96170000  0.56470000  0.61160000  0.5 0.081379901
H  H299  1  0.96170000  0.43530000  0.38840000  0.5 0.081379901
H  H300  1  0.08690000  0.68990000  0.26320000  0.5 0.081379901
H  H301  1  0.31010000  0.91310000  0.73680000  0.5 0.081379901
H  H302  1  0.03830000  0.56470000  0.38840000  0.5 0.081379901
H  H303  1  0.68990000  0.08690000  0.73680000  0.5 0.081379901
H  H304  1  0.56470000  0.03830000  0.61160000  0.5 0.081379901
H  H305  1  0.43530000  0.96170000  0.61160000  0.5 0.081379901
H  H306  1  0.91310000  0.31010000  0.26320000  0.5 0.081379901
H  H307  1  0.31010000  0.08690000  0.26320000  0.5 0.081379901
H  H308  1  0.91310000  0.68990000  0.73680000  0.5 0.081379901
H  H309  1  0.65160000  0.12520000  0.30150000  0.5 0.081379901
H  H310  1  0.34840000  0.87480000  0.30150000  0.5 0.081379901
H  H311  1  0.43530000  0.03830000  0.38840000  0.5 0.081379901
H  H312  1  0.03830000  0.43530000  0.61160000  0.5 0.081379901
H  H313  1  0.15160000  0.37480000  0.19850000  0.5 0.081379901
H  H314  1  0.58690000  0.81010000  0.23680000  0.5 0.081379901
H  H315  1  0.62520000  0.84840000  0.80150000  0.5 0.081379901
H  H316  1  0.18990000  0.41310000  0.76320000  0.5 0.081379901
H  H317  1  0.37480000  0.84840000  0.19850000  0.5 0.081379901
H  H318  1  0.84840000  0.62520000  0.19850000  0.5 0.081379901
H  H319  1  0.62520000  0.15160000  0.19850000  0.5 0.081379901
H  H320  1  0.06470000  0.46170000  0.88840000  0.5 0.081379901
H  H321  1  0.37480000  0.15160000  0.80150000  0.5 0.081379901
H  H322  1  0.46170000  0.06470000  0.11160000  0.5 0.081379901
H  H323  1  0.46170000  0.93530000  0.88840000  0.5 0.081379901
H  H324  1  0.58690000  0.18990000  0.76320000  0.5 0.081379901
H  H325  1  0.81010000  0.41310000  0.23680000  0.5 0.081379901
H  H326  1  0.53830000  0.06470000  0.88840000  0.5 0.081379901
H  H327  1  0.18990000  0.58690000  0.23680000  0.5 0.081379901
H  H328  1  0.06470000  0.53830000  0.11160000  0.5 0.081379901
H  H329  1  0.93530000  0.46170000  0.11160000  0.5 0.081379901
H  H330  1  0.41310000  0.81010000  0.76320000  0.5 0.081379901
H  H331  1  0.81010000  0.58690000  0.76320000  0.5 0.081379901
H  H332  1  0.41310000  0.18990000  0.23680000  0.5 0.081379901
H  H333  1  0.15160000  0.62520000  0.80150000  0.5 0.081379901
H  H334  1  0.84840000  0.37480000  0.80150000  0.5 0.081379901
H  H335  1  0.93530000  0.53830000  0.88840000  0.5 0.081379901
H  H336  1  0.53830000  0.93530000  0.11160000  0.5 0.081379901
H  H337  1  0.34840000  0.12520000  0.30150000  0.5 0.081379901
H  H338  1  0.91310000  0.68990000  0.26320000  0.5 0.081379901
H  H339  1  0.87480000  0.65160000  0.69850000  0.5 0.081379901
H  H340  1  0.31010000  0.08690000  0.73680000  0.5 0.081379901
H  H341  1  0.12520000  0.65160000  0.30150000  0.5 0.081379901
H  H342  1  0.65160000  0.87480000  0.30150000  0.5 0.081379901
H  H343  1  0.87480000  0.34840000  0.30150000  0.5 0.081379901
H  H344  1  0.43530000  0.03830000  0.61160000  0.5 0.081379901
H  H345  1  0.12520000  0.34840000  0.69850000  0.5 0.081379901
H  H346  1  0.03830000  0.43530000  0.38840000  0.5 0.081379901
H  H347  1  0.03830000  0.56470000  0.61160000  0.5 0.081379901
H  H348  1  0.91310000  0.31010000  0.73680000  0.5 0.081379901
H  H349  1  0.68990000  0.08690000  0.26320000  0.5 0.081379901
H  H350  1  0.96170000  0.43530000  0.61160000  0.5 0.081379901
H  H351  1  0.31010000  0.91310000  0.26320000  0.5 0.081379901
H  H352  1  0.43530000  0.96170000  0.38840000  0.5 0.081379901
H  H353  1  0.56470000  0.03830000  0.38840000  0.5 0.081379901
H  H354  1  0.08690000  0.68990000  0.73680000  0.5 0.081379901
H  H355  1  0.68990000  0.91310000  0.73680000  0.5 0.081379901
H  H356  1  0.08690000  0.31010000  0.26320000  0.5 0.081379901
H  H357  1  0.34840000  0.87480000  0.69850000  0.5 0.081379901
H  H358  1  0.65160000  0.12520000  0.69850000  0.5 0.081379901
H  H359  1  0.56470000  0.96170000  0.61160000  0.5 0.081379901
H  H360  1  0.96170000  0.56470000  0.38840000  0.5 0.081379901
H  H361  1  0.84840000  0.62520000  0.80150000  0.5 0.081379901
H  H362  1  0.41310000  0.18990000  0.76320000  0.5 0.081379901
H  H363  1  0.37480000  0.15160000  0.19850000  0.5 0.081379901
H  H364  1  0.81010000  0.58690000  0.23680000  0.5 0.081379901
H  H365  1  0.62520000  0.15160000  0.80150000  0.5 0.081379901
H  H366  1  0.15160000  0.37480000  0.80150000  0.5 0.081379901
H  H367  1  0.37480000  0.84840000  0.80150000  0.5 0.081379901
H  H368  1  0.93530000  0.53830000  0.11160000  0.5 0.081379901
H  H369  1  0.62520000  0.84840000  0.19850000  0.5 0.081379901
H  H370  1  0.53830000  0.93530000  0.88840000  0.5 0.081379901
H  H371  1  0.53830000  0.06470000  0.11160000  0.5 0.081379901
H  H372  1  0.41310000  0.81010000  0.23680000  0.5 0.081379901
H  H373  1  0.18990000  0.58690000  0.76320000  0.5 0.081379901
H  H374  1  0.46170000  0.93530000  0.11160000  0.5 0.081379901
H  H375  1  0.81010000  0.41310000  0.76320000  0.5 0.081379901
H  H376  1  0.93530000  0.46170000  0.88840000  0.5 0.081379901
H  H377  1  0.06470000  0.53830000  0.88840000  0.5 0.081379901
H  H378  1  0.58690000  0.18990000  0.23680000  0.5 0.081379901
H  H379  1  0.18990000  0.41310000  0.23680000  0.5 0.081379901
H  H380  1  0.58690000  0.81010000  0.76320000  0.5 0.081379901
H  H381  1  0.84840000  0.37480000  0.19850000  0.5 0.081379901
H  H382  1  0.15160000  0.62520000  0.19850000  0.5 0.081379901
H  H383  1  0.06470000  0.46170000  0.11160000  0.5 0.081379901
H  H384  1  0.46170000  0.06470000  0.88840000  0.5 0.081379901
H  H385  1  0.63420000  0.89420000  0.69390000  0.5 0.0688487325
H  H386  1  0.06390000  0.32390000  0.73580000  0.5 0.0688487325
H  H387  1  0.10580000  0.36580000  0.30610000  0.5 0.0688487325
H  H388  1  0.67610000  0.93610000  0.26420000  0.5 0.0688487325
H  H389  1  0.89420000  0.36580000  0.69390000  0.5 0.0688487325
H  H390  1  0.36580000  0.10580000  0.69390000  0.5 0.0688487325
H  H391  1  0.10580000  0.63420000  0.69390000  0.5 0.0688487325
H  H392  1  0.57030000  0.95810000  0.37000000  0.5 0.0688487325
H  H393  1  0.89420000  0.63420000  0.30610000  0.5 0.0688487325
H  H394  1  0.95810000  0.57030000  0.63000000  0.5 0.0688487325
H  H395  1  0.95810000  0.42970000  0.37000000  0.5 0.0688487325
H  H396  1  0.06390000  0.67610000  0.26420000  0.5 0.0688487325
H  H397  1  0.32390000  0.93610000  0.73580000  0.5 0.0688487325
H  H398  1  0.04190000  0.57030000  0.37000000  0.5 0.0688487325
H  H399  1  0.67610000  0.06390000  0.73580000  0.5 0.0688487325
H  H400  1  0.57030000  0.04190000  0.63000000  0.5 0.0688487325
H  H401  1  0.42970000  0.95810000  0.63000000  0.5 0.0688487325
H  H402  1  0.93610000  0.32390000  0.26420000  0.5 0.0688487325
H  H403  1  0.32390000  0.06390000  0.26420000  0.5 0.0688487325
H  H404  1  0.93610000  0.67610000  0.73580000  0.5 0.0688487325
H  H405  1  0.63420000  0.10580000  0.30610000  0.5 0.0688487325
H  H406  1  0.36580000  0.89420000  0.30610000  0.5 0.0688487325
H  H407  1  0.42970000  0.04190000  0.37000000  0.5 0.0688487325
H  H408  1  0.04190000  0.42970000  0.63000000  0.5 0.0688487325
H  H409  1  0.13420000  0.39420000  0.19390000  0.5 0.0688487325
H  H410  1  0.56390000  0.82390000  0.23580000  0.5 0.0688487325
H  H411  1  0.60580000  0.86580000  0.80610000  0.5 0.0688487325
H  H412  1  0.17610000  0.43610000  0.76420000  0.5 0.0688487325
H  H413  1  0.39420000  0.86580000  0.19390000  0.5 0.0688487325
H  H414  1  0.86580000  0.60580000  0.19390000  0.5 0.0688487325
H  H415  1  0.60580000  0.13420000  0.19390000  0.5 0.0688487325
H  H416  1  0.07030000  0.45810000  0.87000000  0.5 0.0688487325
H  H417  1  0.39420000  0.13420000  0.80610000  0.5 0.0688487325
H  H418  1  0.45810000  0.07030000  0.13000000  0.5 0.0688487325
H  H419  1  0.45810000  0.92970000  0.87000000  0.5 0.0688487325
H  H420  1  0.56390000  0.17610000  0.76420000  0.5 0.0688487325
H  H421  1  0.82390000  0.43610000  0.23580000  0.5 0.0688487325
H  H422  1  0.54190000  0.07030000  0.87000000  0.5 0.0688487325
H  H423  1  0.17610000  0.56390000  0.23580000  0.5 0.0688487325
H  H424  1  0.07030000  0.54190000  0.13000000  0.5 0.0688487325
H  H425  1  0.92970000  0.45810000  0.13000000  0.5 0.0688487325
H  H426  1  0.43610000  0.82390000  0.76420000  0.5 0.0688487325
H  H427  1  0.82390000  0.56390000  0.76420000  0.5 0.0688487325
H  H428  1  0.43610000  0.17610000  0.23580000  0.5 0.0688487325
H  H429  1  0.13420000  0.60580000  0.80610000  0.5 0.0688487325
H  H430  1  0.86580000  0.39420000  0.80610000  0.5 0.0688487325
H  H431  1  0.92970000  0.54190000  0.87000000  0.5 0.0688487325
H  H432  1  0.54190000  0.92970000  0.13000000  0.5 0.0688487325
H  H433  1  0.36580000  0.10580000  0.30610000  0.5 0.0688487325
H  H434  1  0.93610000  0.67610000  0.26420000  0.5 0.0688487325
H  H435  1  0.89420000  0.63420000  0.69390000  0.5 0.0688487325
H  H436  1  0.32390000  0.06390000  0.73580000  0.5 0.0688487325
H  H437  1  0.10580000  0.63420000  0.30610000  0.5 0.0688487325
H  H438  1  0.63420000  0.89420000  0.30610000  0.5 0.0688487325
H  H439  1  0.89420000  0.36580000  0.30610000  0.5 0.0688487325
H  H440  1  0.42970000  0.04190000  0.63000000  0.5 0.0688487325
H  H441  1  0.10580000  0.36580000  0.69390000  0.5 0.0688487325
H  H442  1  0.04190000  0.42970000  0.37000000  0.5 0.0688487325
H  H443  1  0.04190000  0.57030000  0.63000000  0.5 0.0688487325
H  H444  1  0.93610000  0.32390000  0.73580000  0.5 0.0688487325
H  H445  1  0.67610000  0.06390000  0.26420000  0.5 0.0688487325
H  H446  1  0.95810000  0.42970000  0.63000000  0.5 0.0688487325
H  H447  1  0.32390000  0.93610000  0.26420000  0.5 0.0688487325
H  H448  1  0.42970000  0.95810000  0.37000000  0.5 0.0688487325
H  H449  1  0.57030000  0.04190000  0.37000000  0.5 0.0688487325
H  H450  1  0.06390000  0.67610000  0.73580000  0.5 0.0688487325
H  H451  1  0.67610000  0.93610000  0.73580000  0.5 0.0688487325
H  H452  1  0.06390000  0.32390000  0.26420000  0.5 0.0688487325
H  H453  1  0.36580000  0.89420000  0.69390000  0.5 0.0688487325
H  H454  1  0.63420000  0.10580000  0.69390000  0.5 0.0688487325
H  H455  1  0.57030000  0.95810000  0.63000000  0.5 0.0688487325
H  H456  1  0.95810000  0.57030000  0.37000000  0.5 0.0688487325
H  H457  1  0.86580000  0.60580000  0.80610000  0.5 0.0688487325
H  H458  1  0.43610000  0.17610000  0.76420000  0.5 0.0688487325
H  H459  1  0.39420000  0.13420000  0.19390000  0.5 0.0688487325
H  H460  1  0.82390000  0.56390000  0.23580000  0.5 0.0688487325
H  H461  1  0.60580000  0.13420000  0.80610000  0.5 0.0688487325
H  H462  1  0.13420000  0.39420000  0.80610000  0.5 0.0688487325
H  H463  1  0.39420000  0.86580000  0.80610000  0.5 0.0688487325
H  H464  1  0.92970000  0.54190000  0.13000000  0.5 0.0688487325
H  H465  1  0.60580000  0.86580000  0.19390000  0.5 0.0688487325
H  H466  1  0.54190000  0.92970000  0.87000000  0.5 0.0688487325
H  H467  1  0.54190000  0.07030000  0.13000000  0.5 0.0688487325
H  H468  1  0.43610000  0.82390000  0.23580000  0.5 0.0688487325
H  H469  1  0.17610000  0.56390000  0.76420000  0.5 0.0688487325
H  H470  1  0.45810000  0.92970000  0.13000000  0.5 0.0688487325
H  H471  1  0.82390000  0.43610000  0.76420000  0.5 0.0688487325
H  H472  1  0.92970000  0.45810000  0.87000000  0.5 0.0688487325
H  H473  1  0.07030000  0.54190000  0.87000000  0.5 0.0688487325
H  H474  1  0.56390000  0.17610000  0.23580000  0.5 0.0688487325
H  H475  1  0.17610000  0.43610000  0.23580000  0.5 0.0688487325
H  H476  1  0.56390000  0.82390000  0.76420000  0.5 0.0688487325
H  H477  1  0.86580000  0.39420000  0.19390000  0.5 0.0688487325
H  H478  1  0.13420000  0.60580000  0.19390000  0.5 0.0688487325
H  H479  1  0.07030000  0.45810000  0.13000000  0.5 0.0688487325
H  H480  1  0.45810000  0.07030000  0.87000000  0.5 0.0688487325
C  C1  1  0.57969000  0.71959000  0.64964000  1.0 0.5291137133
C  C2  1  0.07969000  0.21959000  0.85036000  1.0 0.5291137133
C  C3  1  0.28041000  0.42031000  0.35036000  1.0 0.5291137133
C  C4  1  0.78041000  0.92031000  0.14964000  1.0 0.5291137133
C  C5  1  0.71959000  0.42031000  0.64964000  1.0 0.5291137133
C  C6  1  0.42031000  0.28041000  0.64964000  1.0 0.5291137133
C  C7  1  0.28041000  0.57969000  0.64964000  1.0 0.5291137133
C  C8  1  0.50000000  0.79928000  0.43005000  1.0 0.5291137133
C  C9  1  0.71959000  0.57969000  0.35036000  1.0 0.5291137133
C  C10  1  0.79928000  0.50000000  0.56995000  1.0 0.5291137133
C  C11  1  0.79928000  0.50000000  0.43005000  1.0 0.5291137133
C  C12  1  0.07969000  0.78041000  0.14964000  1.0 0.5291137133
C  C13  1  0.21959000  0.92031000  0.85036000  1.0 0.5291137133
C  C14  1  0.20072000  0.50000000  0.43005000  1.0 0.5291137133
C  C15  1  0.78041000  0.07969000  0.85036000  1.0 0.5291137133
C  C16  1  0.50000000  0.20072000  0.56995000  1.0 0.5291137133
C  C17  1  0.50000000  0.79928000  0.56995000  1.0 0.5291137133
C  C18  1  0.92031000  0.21959000  0.14964000  1.0 0.5291137133
C  C19  1  0.21959000  0.07969000  0.14964000  1.0 0.5291137133
C  C20  1  0.92031000  0.78041000  0.85036000  1.0 0.5291137133
C  C21  1  0.57969000  0.28041000  0.35036000  1.0 0.5291137133
C  C22  1  0.42031000  0.71959000  0.35036000  1.0 0.5291137133
C  C23  1  0.50000000  0.20072000  0.43005000  1.0 0.5291137133
C  C24  1  0.20072000  0.50000000  0.56995000  1.0 0.5291137133
C  C25  1  0.07969000  0.21959000  0.14964000  1.0 0.5291137133
C  C26  1  0.57969000  0.71959000  0.35036000  1.0 0.5291137133
C  C27  1  0.78041000  0.92031000  0.85036000  1.0 0.5291137133
C  C28  1  0.28041000  0.42031000  0.64964000  1.0 0.5291137133
C  C29  1  0.21959000  0.92031000  0.14964000  1.0 0.5291137133
C  C30  1  0.92031000  0.78041000  0.14964000  1.0 0.5291137133
C  C31  1  0.78041000  0.07969000  0.14964000  1.0 0.5291137133
C  C32  1  0.00000000  0.29928000  0.93005000  1.0 0.5291137133
C  C33  1  0.21959000  0.07969000  0.85036000  1.0 0.5291137133
C  C34  1  0.29928000  0.00000000  0.06995000  1.0 0.5291137133
C  C35  1  0.29928000  0.00000000  0.93005000  1.0 0.5291137133
C  C36  1  0.57969000  0.28041000  0.64964000  1.0 0.5291137133
C  C37  1  0.71959000  0.42031000  0.35036000  1.0 0.5291137133
C  C38  1  0.70072000  0.00000000  0.93005000  1.0 0.5291137133
C  C39  1  0.28041000  0.57969000  0.35036000  1.0 0.5291137133
C  C40  1  0.00000000  0.70072000  0.06995000  1.0 0.5291137133
C  C41  1  0.00000000  0.29928000  0.06995000  1.0 0.5291137133
C  C42  1  0.42031000  0.71959000  0.64964000  1.0 0.5291137133
C  C43  1  0.71959000  0.57969000  0.64964000  1.0 0.5291137133
C  C44  1  0.42031000  0.28041000  0.35036000  1.0 0.5291137133
C  C45  1  0.07969000  0.78041000  0.85036000  1.0 0.5291137133
C  C46  1  0.92031000  0.21959000  0.85036000  1.0 0.5291137133
C  C47  1  0.00000000  0.70072000  0.93005000  1.0 0.5291137133
C  C48  1  0.70072000  0.00000000  0.06995000  1.0 0.5291137133
C  C49  1  0.57660000  0.82430000  0.70045000  1.0 0.4545319387
C  C50  1  0.07660000  0.32430000  0.79955000  1.0 0.4550842652
C  C51  1  0.17570000  0.42340000  0.29955000  1.0 0.4550842652
C  C52  1  0.67570000  0.92340000  0.20045000  1.0 0.4550842652
C  C53  1  0.82430000  0.42340000  0.70045000  1.0 0.4550842652
C  C54  1  0.42340000  0.17570000  0.70045000  1.0 0.4545319387
C  C55  1  0.17570000  0.57660000  0.70045000  1.0 0.4545319387
C  C56  1  0.50000000  0.90090000  0.37615000  1.0 0.4545319387
C  C57  1  0.82430000  0.57660000  0.29955000  1.0 0.4550842652
C  C58  1  0.90090000  0.50000000  0.62385000  1.0 0.4545319387
C  C59  1  0.90090000  0.50000000  0.37615000  1.0 0.4545319387
C  C60  1  0.07660000  0.67570000  0.20045000  1.0 0.4550842652
C  C61  1  0.32430000  0.92340000  0.79955000  1.0 0.4545319387
C  C62  1  0.09910000  0.50000000  0.37615000  1.0 0.4545319387
C  C63  1  0.67570000  0.07660000  0.79955000  1.0 0.4550842652
C  C64  1  0.50000000  0.09910000  0.62385000  1.0 0.4545319387
C  C65  1  0.50000000  0.90090000  0.62385000  1.0 0.4545319387
C  C66  1  0.92340000  0.32430000  0.20045000  1.0 0.4550842652
C  C67  1  0.32430000  0.07660000  0.20045000  1.0 0.4550842652
C  C68  1  0.92340000  0.67570000  0.79955000  1.0 0.4550842652
C  C69  1  0.57660000  0.17570000  0.29955000  1.0 0.4550842652
C  C70  1  0.42340000  0.82430000  0.29955000  1.0 0.4550842652
C  C71  1  0.50000000  0.09910000  0.37615000  1.0 0.4545319387
C  C72  1  0.09910000  0.50000000  0.62385000  1.0 0.4545319387
C  C73  1  0.07660000  0.32430000  0.20045000  1.0 0.4550842652
C  C74  1  0.57660000  0.82430000  0.29955000  1.0 0.4550842652
C  C75  1  0.67570000  0.92340000  0.79955000  1.0 0.4550842652
C  C76  1  0.17570000  0.42340000  0.70045000  1.0 0.4545319387
C  C77  1  0.32430000  0.92340000  0.20045000  1.0 0.4545319387
C  C78  1  0.92340000  0.67570000  0.20045000  1.0 0.4550842652
C  C79  1  0.67570000  0.07660000  0.20045000  1.0 0.4550842652
C  C80  1  0.00000000  0.40090000  0.87615000  1.0 0.4545319387
C  C81  1  0.32430000  0.07660000  0.79955000  1.0 0.4550842652
C  C82  1  0.40090000  0.00000000  0.12385000  1.0 0.4545319387
C  C83  1  0.40090000  0.00000000  0.87615000  1.0 0.4545319387
C  C84  1  0.57660000  0.17570000  0.70045000  1.0 0.4545319387
C  C85  1  0.82430000  0.42340000  0.29955000  1.0 0.4550842652
C  C86  1  0.59910000  0.00000000  0.87615000  1.0 0.4545319387
C  C87  1  0.17570000  0.57660000  0.29955000  1.0 0.4550842652
C  C88  1  0.00000000  0.59910000  0.12385000  1.0 0.4545319387
C  C89  1  0.00000000  0.40090000  0.12385000  1.0 0.4545319387
C  C90  1  0.42340000  0.82430000  0.70045000  1.0 0.4545319387
C  C91  1  0.82430000  0.57660000  0.70045000  1.0 0.4545319387
C  C92  1  0.42340000  0.17570000  0.29955000  1.0 0.4550842652
C  C93  1  0.07660000  0.67570000  0.79955000  1.0 0.4550842652
C  C94  1  0.92340000  0.32430000  0.79955000  1.0 0.4550842652
C  C95  1  0.00000000  0.59910000  0.87615000  1.0 0.4545319387
C  C96  1  0.59910000  0.00000000  0.12385000  1.0 0.4550842652
C  C97  1  0.60285000  0.84923000  0.72604000  1.0 -0.0486566894
C  C98  1  0.10285000  0.34923000  0.77396000  1.0 -0.0486566894
C  C99  1  0.15077000  0.39715000  0.27396000  1.0 -0.0486566894
C  C100  1  0.65077000  0.89715000  0.22604000  1.0 -0.0486566894
C  C101  1  0.84923000  0.39715000  0.72604000  1.0 -0.0486566894
C  C102  1  0.39715000  0.15077000  0.72604000  1.0 -0.0486566894
C  C103  1  0.15077000  0.60285000  0.72604000  1.0 -0.0486566894
C  C104  1  0.50000000  0.95208000  0.37681000  1.0 -0.0486566894
C  C105  1  0.84923000  0.60285000  0.27396000  1.0 -0.0486566894
C  C106  1  0.95208000  0.50000000  0.62319000  1.0 -0.0486566894
C  C107  1  0.95208000  0.50000000  0.37681000  1.0 -0.0486566894
C  C108  1  0.10285000  0.65077000  0.22604000  1.0 -0.0486566894
C  C109  1  0.34923000  0.89715000  0.77396000  1.0 -0.0486566894
C  C110  1  0.04792000  0.50000000  0.37681000  1.0 -0.0486566894
C  C111  1  0.65077000  0.10285000  0.77396000  1.0 -0.0486566894
C  C112  1  0.50000000  0.04792000  0.62319000  1.0 -0.0486566894
C  C113  1  0.50000000  0.95208000  0.62319000  1.0 -0.0486566894
C  C114  1  0.89715000  0.34923000  0.22604000  1.0 -0.0486566894
C  C115  1  0.34923000  0.10285000  0.22604000  1.0 -0.0486566894
C  C116  1  0.89715000  0.65077000  0.77396000  1.0 -0.0486566894
C  C117  1  0.60285000  0.15077000  0.27396000  1.0 -0.0486566894
C  C118  1  0.39715000  0.84923000  0.27396000  1.0 -0.0486566894
C  C119  1  0.50000000  0.04792000  0.37681000  1.0 -0.0486566894
C  C120  1  0.04792000  0.50000000  0.62319000  1.0 -0.0486566894
C  C121  1  0.10285000  0.34923000  0.22604000  1.0 -0.0486566894
C  C122  1  0.60285000  0.84923000  0.27396000  1.0 -0.0486566894
C  C123  1  0.65077000  0.89715000  0.77396000  1.0 -0.0486566894
C  C124  1  0.15077000  0.39715000  0.72604000  1.0 -0.0486566894
C  C125  1  0.34923000  0.89715000  0.22604000  1.0 -0.0486566894
C  C126  1  0.89715000  0.65077000  0.22604000  1.0 -0.0486566894
C  C127  1  0.65077000  0.10285000  0.22604000  1.0 -0.0486566894
C  C128  1  0.00000000  0.45208000  0.87681000  1.0 -0.0486566894
C  C129  1  0.34923000  0.10285000  0.77396000  1.0 -0.0486566894
C  C130  1  0.45208000  0.00000000  0.12319000  1.0 -0.0486566894
C  C131  1  0.45208000  0.00000000  0.87681000  1.0 -0.0486566894
C  C132  1  0.60285000  0.15077000  0.72604000  1.0 -0.0486566894
C  C133  1  0.84923000  0.39715000  0.27396000  1.0 -0.0486566894
C  C134  1  0.54792000  0.00000000  0.87681000  1.0 -0.0486566894
C  C135  1  0.15077000  0.60285000  0.27396000  1.0 -0.0486566894
C  C136  1  0.00000000  0.54792000  0.12319000  1.0 -0.0486566894
C  C137  1  0.00000000  0.45208000  0.12319000  1.0 -0.0486566894
C  C138  1  0.39715000  0.84923000  0.72604000  1.0 -0.0486566894
C  C139  1  0.84923000  0.60285000  0.72604000  1.0 -0.0486566894
C  C140  1  0.39715000  0.15077000  0.27396000  1.0 -0.0486566894
C  C141  1  0.10285000  0.65077000  0.77396000  1.0 -0.0486566894
C  C142  1  0.89715000  0.34923000  0.77396000  1.0 -0.0486566894
C  C143  1  0.00000000  0.54792000  0.87681000  1.0 -0.0486566894
C  C144  1  0.54792000  0.00000000  0.12319000  1.0 -0.0486566894
C  C145  1  0.65103000  0.68457000  0.62671000  1.0 -0.1189704712
C  C146  1  0.10994000  0.14348000  0.83220000  1.0 -0.1189704712
C  C147  1  0.31543000  0.34897000  0.37329000  1.0 -0.1189704712
C  C148  1  0.85652000  0.89006000  0.16780000  1.0 -0.1189704712
C  C149  1  0.68457000  0.34897000  0.62671000  1.0 -0.1189704712
C  C150  1  0.34897000  0.31543000  0.62671000  1.0 -0.1189704712
C  C151  1  0.31543000  0.65103000  0.62671000  1.0 -0.1189704712
C  C152  1  0.54109000  0.79451000  0.48323000  1.0 -0.1189704712
C  C153  1  0.68457000  0.65103000  0.37329000  1.0 -0.1189704712
C  C154  1  0.79451000  0.54109000  0.51677000  1.0 -0.1189704712
C  C155  1  0.79451000  0.45891000  0.48323000  1.0 -0.1189704712
C  C156  1  0.10994000  0.85652000  0.16780000  1.0 -0.1189704712
C  C157  1  0.14348000  0.89006000  0.83220000  1.0 -0.1189704712
C  C158  1  0.20549000  0.54109000  0.48323000  1.0 -0.1189704712
C  C159  1  0.85652000  0.10994000  0.83220000  1.0 -0.1189704712
C  C160  1  0.54109000  0.20549000  0.51677000  1.0 -0.1189704712
C  C161  1  0.45891000  0.79451000  0.51677000  1.0 -0.1189704712
C  C162  1  0.89006000  0.14348000  0.16780000  1.0 -0.1189704712
C  C163  1  0.14348000  0.10994000  0.16780000  1.0 -0.1189704712
C  C164  1  0.89006000  0.85652000  0.83220000  1.0 -0.1189704712
C  C165  1  0.65103000  0.31543000  0.37329000  1.0 -0.1189704712
C  C166  1  0.34897000  0.68457000  0.37329000  1.0 -0.1189704712
C  C167  1  0.45891000  0.20549000  0.48323000  1.0 -0.1189704712
C  C168  1  0.20549000  0.45891000  0.51677000  1.0 -0.1189704712
C  C169  1  0.15103000  0.18457000  0.12671000  1.0 -0.1189704712
C  C170  1  0.60994000  0.64348000  0.33220000  1.0 -0.1189704712
C  C171  1  0.81543000  0.84897000  0.87329000  1.0 -0.1189704712
C  C172  1  0.35652000  0.39006000  0.66780000  1.0 -0.1189704712
C  C173  1  0.18457000  0.84897000  0.12671000  1.0 -0.1189704712
C  C174  1  0.84897000  0.81543000  0.12671000  1.0 -0.1189704712
C  C175  1  0.81543000  0.15103000  0.12671000  1.0 -0.1189704712
C  C176  1  0.04109000  0.29451000  0.98323000  1.0 -0.1189704712
C  C177  1  0.18457000  0.15103000  0.87329000  1.0 -0.1189704712
C  C178  1  0.29451000  0.04109000  0.01677000  1.0 -0.1189704712
C  C179  1  0.29451000  0.95891000  0.98323000  1.0 -0.1189704712
C  C180  1  0.60994000  0.35652000  0.66780000  1.0 -0.1189704712
C  C181  1  0.64348000  0.39006000  0.33220000  1.0 -0.1189704712
C  C182  1  0.70549000  0.04109000  0.98323000  1.0 -0.1189704712
C  C183  1  0.35652000  0.60994000  0.33220000  1.0 -0.1189704712
C  C184  1  0.04109000  0.70549000  0.01677000  1.0 -0.1189704712
C  C185  1  0.95891000  0.29451000  0.01677000  1.0 -0.1189704712
C  C186  1  0.39006000  0.64348000  0.66780000  1.0 -0.1189704712
C  C187  1  0.64348000  0.60994000  0.66780000  1.0 -0.1189704712
C  C188  1  0.39006000  0.35652000  0.33220000  1.0 -0.1189704712
C  C189  1  0.15103000  0.81543000  0.87329000  1.0 -0.1189704712
C  C190  1  0.84897000  0.18457000  0.87329000  1.0 -0.1189704712
C  C191  1  0.95891000  0.70549000  0.98323000  1.0 -0.1189704712
C  C192  1  0.70549000  0.95891000  0.01677000  1.0 -0.1189704712
C  C193  1  0.34897000  0.31543000  0.37329000  1.0 -0.1189704712
C  C194  1  0.89006000  0.85652000  0.16780000  1.0 -0.1189704712
C  C195  1  0.68457000  0.65103000  0.62671000  1.0 -0.1189704712
C  C196  1  0.14348000  0.10994000  0.83220000  1.0 -0.1189704712
C  C197  1  0.31543000  0.65103000  0.37329000  1.0 -0.1189704712
C  C198  1  0.65103000  0.68457000  0.37329000  1.0 -0.1189704712
C  C199  1  0.68457000  0.34897000  0.37329000  1.0 -0.1189704712
C  C200  1  0.45891000  0.20549000  0.51677000  1.0 -0.1189704712
C  C201  1  0.31543000  0.34897000  0.62671000  1.0 -0.1189704712
C  C202  1  0.20549000  0.45891000  0.48323000  1.0 -0.1189704712
C  C203  1  0.20549000  0.54109000  0.51677000  1.0 -0.1189704712
C  C204  1  0.89006000  0.14348000  0.83220000  1.0 -0.1189704712
C  C205  1  0.85652000  0.10994000  0.16780000  1.0 -0.1189704712
C  C206  1  0.79451000  0.45891000  0.51677000  1.0 -0.1189704712
C  C207  1  0.14348000  0.89006000  0.16780000  1.0 -0.1189704712
C  C208  1  0.45891000  0.79451000  0.48323000  1.0 -0.1189704712
C  C209  1  0.54109000  0.20549000  0.48323000  1.0 -0.1189704712
C  C210  1  0.10994000  0.85652000  0.83220000  1.0 -0.1189704712
C  C211  1  0.85652000  0.89006000  0.83220000  1.0 -0.1189704712
C  C212  1  0.10994000  0.14348000  0.16780000  1.0 -0.1189704712
C  C213  1  0.34897000  0.68457000  0.62671000  1.0 -0.1189704712
C  C214  1  0.65103000  0.31543000  0.62671000  1.0 -0.1189704712
C  C215  1  0.54109000  0.79451000  0.51677000  1.0 -0.1189704712
C  C216  1  0.79451000  0.54109000  0.48323000  1.0 -0.1189704712
C  C217  1  0.84897000  0.81543000  0.87329000  1.0 -0.1189704712
C  C218  1  0.39006000  0.35652000  0.66780000  1.0 -0.1189704712
C  C219  1  0.18457000  0.15103000  0.12671000  1.0 -0.1189704712
C  C220  1  0.64348000  0.60994000  0.33220000  1.0 -0.1189704712
C  C221  1  0.81543000  0.15103000  0.87329000  1.0 -0.1189704712
C  C222  1  0.15103000  0.18457000  0.87329000  1.0 -0.1189704712
C  C223  1  0.18457000  0.84897000  0.87329000  1.0 -0.1189704712
C  C224  1  0.95891000  0.70549000  0.01677000  1.0 -0.1189704712
C  C225  1  0.81543000  0.84897000  0.12671000  1.0 -0.1189704712
C  C226  1  0.70549000  0.95891000  0.98323000  1.0 -0.1189704712
C  C227  1  0.70549000  0.04109000  0.01677000  1.0 -0.1189704712
C  C228  1  0.39006000  0.64348000  0.33220000  1.0 -0.1189704712
C  C229  1  0.35652000  0.60994000  0.66780000  1.0 -0.1189704712
C  C230  1  0.29451000  0.95891000  0.01677000  1.0 -0.1189704712
C  C231  1  0.64348000  0.39006000  0.66780000  1.0 -0.1189704712
C  C232  1  0.95891000  0.29451000  0.98323000  1.0 -0.1189704712
C  C233  1  0.04109000  0.70549000  0.98323000  1.0 -0.1189704712
C  C234  1  0.60994000  0.35652000  0.33220000  1.0 -0.1189704712
C  C235  1  0.35652000  0.39006000  0.33220000  1.0 -0.1189704712
C  C236  1  0.60994000  0.64348000  0.66780000  1.0 -0.1189704712
C  C237  1  0.84897000  0.18457000  0.12671000  1.0 -0.1189704712
C  C238  1  0.15103000  0.81543000  0.12671000  1.0 -0.1189704712
C  C239  1  0.04109000  0.29451000  0.01677000  1.0 -0.1189704712
C  C240  1  0.29451000  0.04109000  0.98323000  1.0 -0.1189704712
C  C241  1  0.61395000  0.68115000  0.64755000  1.0 -0.0168940526
C  C242  1  0.11395000  0.18115000  0.85245000  1.0 -0.0168940526
C  C243  1  0.31885000  0.38605000  0.35245000  1.0 -0.0168940526
C  C244  1  0.81885000  0.88605000  0.14755000  1.0 -0.0168940526
C  C245  1  0.68115000  0.38605000  0.64755000  1.0 -0.0168940526
C  C246  1  0.38605000  0.31885000  0.64755000  1.0 -0.0168940526
C  C247  1  0.31885000  0.61395000  0.64755000  1.0 -0.0168940526
C  C248  1  0.50000000  0.79510000  0.46640000  1.0 -0.0168940526
C  C249  1  0.68115000  0.61395000  0.35245000  1.0 -0.0168940526
C  C250  1  0.79510000  0.50000000  0.53360000  1.0 -0.0168940526
C  C251  1  0.79510000  0.50000000  0.46640000  1.0 -0.0168940526
C  C252  1  0.11395000  0.81885000  0.14755000  1.0 -0.0168940526
C  C253  1  0.18115000  0.88605000  0.85245000  1.0 -0.0168940526
C  C254  1  0.20490000  0.50000000  0.46640000  1.0 -0.0168940526
C  C255  1  0.81885000  0.11395000  0.85245000  1.0 -0.0168940526
C  C256  1  0.50000000  0.20490000  0.53360000  1.0 -0.0168940526
C  C257  1  0.50000000  0.79510000  0.53360000  1.0 -0.0168940526
C  C258  1  0.88605000  0.18115000  0.14755000  1.0 -0.0168940526
C  C259  1  0.18115000  0.11395000  0.14755000  1.0 -0.0168940526
C  C260  1  0.88605000  0.81885000  0.85245000  1.0 -0.0168940526
C  C261  1  0.61395000  0.31885000  0.35245000  1.0 -0.0168940526
C  C262  1  0.38605000  0.68115000  0.35245000  1.0 -0.0168940526
C  C263  1  0.50000000  0.20490000  0.46640000  1.0 -0.0168940526
C  C264  1  0.20490000  0.50000000  0.53360000  1.0 -0.0168940526
C  C265  1  0.11395000  0.18115000  0.14755000  1.0 -0.0168940526
C  C266  1  0.61395000  0.68115000  0.35245000  1.0 -0.0168940526
C  C267  1  0.81885000  0.88605000  0.85245000  1.0 -0.0168940526
C  C268  1  0.31885000  0.38605000  0.64755000  1.0 -0.0168940526
C  C269  1  0.18115000  0.88605000  0.14755000  1.0 -0.0168940526
C  C270  1  0.88605000  0.81885000  0.14755000  1.0 -0.0168940526
C  C271  1  0.81885000  0.11395000  0.14755000  1.0 -0.0168940526
C  C272  1  0.00000000  0.29510000  0.96640000  1.0 -0.0168940526
C  C273  1  0.18115000  0.11395000  0.85245000  1.0 -0.0168940526
C  C274  1  0.29510000  0.00000000  0.03360000  1.0 -0.0168940526
C  C275  1  0.29510000  0.00000000  0.96640000  1.0 -0.0168940526
C  C276  1  0.61395000  0.31885000  0.64755000  1.0 -0.0168940526
C  C277  1  0.68115000  0.38605000  0.35245000  1.0 -0.0168940526
C  C278  1  0.70490000  0.00000000  0.96640000  1.0 -0.0168940526
C  C279  1  0.31885000  0.61395000  0.35245000  1.0 -0.0168940526
C  C280  1  0.00000000  0.70490000  0.03360000  1.0 -0.0168940526
C  C281  1  0.00000000  0.29510000  0.03360000  1.0 -0.0168940526
C  C282  1  0.38605000  0.68115000  0.64755000  1.0 -0.0168940526
C  C283  1  0.68115000  0.61395000  0.64755000  1.0 -0.0168940526
C  C284  1  0.38605000  0.31885000  0.35245000  1.0 -0.0168940526
C  C285  1  0.11395000  0.81885000  0.85245000  1.0 -0.0168940526
C  C286  1  0.88605000  0.18115000  0.85245000  1.0 -0.0168940526
C  C287  1  0.00000000  0.70490000  0.96640000  1.0 -0.0168940526
C  C288  1  0.70490000  0.00000000  0.03360000  1.0 -0.0168940526
C  C289  1  0.64040000  0.87360000  0.72020000  0.5 -0.0592890325
C  C290  1  0.10360000  0.33680000  0.74300000  0.5 -0.0592890325
C  C291  1  0.12640000  0.35960000  0.27980000  0.5 -0.0592890325
C  C292  1  0.66320000  0.89640000  0.25700000  0.5 -0.0592890325
C  C293  1  0.87360000  0.35960000  0.72020000  0.5 -0.0592890325
C  C294  1  0.35960000  0.12640000  0.72020000  0.5 -0.0592890325
C  C295  1  0.12640000  0.64040000  0.72020000  0.5 -0.0592890325
C  C296  1  0.53680000  0.97720000  0.38340000  0.5 -0.0592890325
C  C297  1  0.87360000  0.64040000  0.27980000  0.5 -0.0592890325
C  C298  1  0.97720000  0.53680000  0.61660000  0.5 -0.0592890325
C  C299  1  0.97720000  0.46320000  0.38340000  0.5 -0.0592890325
C  C300  1  0.10360000  0.66320000  0.25700000  0.5 -0.0592890325
C  C301  1  0.33680000  0.89640000  0.74300000  0.5 -0.0592890325
C  C302  1  0.02280000  0.53680000  0.38340000  0.5 -0.0592890325
C  C303  1  0.66320000  0.10360000  0.74300000  0.5 -0.0592890325
C  C304  1  0.53680000  0.02280000  0.61660000  0.5 -0.0592890325
C  C305  1  0.46320000  0.97720000  0.61660000  0.5 -0.0592890325
C  C306  1  0.89640000  0.33680000  0.25700000  0.5 -0.0592890325
C  C307  1  0.33680000  0.10360000  0.25700000  0.5 -0.0592890325
C  C308  1  0.89640000  0.66320000  0.74300000  0.5 -0.0592890325
C  C309  1  0.64040000  0.12640000  0.27980000  0.5 -0.0592890325
C  C310  1  0.35960000  0.87360000  0.27980000  0.5 -0.0592890325
C  C311  1  0.46320000  0.02280000  0.38340000  0.5 -0.0592890325
C  C312  1  0.02280000  0.46320000  0.61660000  0.5 -0.0592890325
C  C313  1  0.14040000  0.37360000  0.22020000  0.5 -0.0592890325
C  C314  1  0.60360000  0.83680000  0.24300000  0.5 -0.0592890325
C  C315  1  0.62640000  0.85960000  0.77980000  0.5 -0.0592890325
C  C316  1  0.16320000  0.39640000  0.75700000  0.5 -0.0592890325
C  C317  1  0.37360000  0.85960000  0.22020000  0.5 -0.0592890325
C  C318  1  0.85960000  0.62640000  0.22020000  0.5 -0.0592890325
C  C319  1  0.62640000  0.14040000  0.22020000  0.5 -0.0592890325
C  C320  1  0.03680000  0.47720000  0.88340000  0.5 -0.0592890325
C  C321  1  0.37360000  0.14040000  0.77980000  0.5 -0.0592890325
C  C322  1  0.47720000  0.03680000  0.11660000  0.5 -0.0592890325
C  C323  1  0.47720000  0.96320000  0.88340000  0.5 -0.0592890325
C  C324  1  0.60360000  0.16320000  0.75700000  0.5 -0.0592890325
C  C325  1  0.83680000  0.39640000  0.24300000  0.5 -0.0592890325
C  C326  1  0.52280000  0.03680000  0.88340000  0.5 -0.0592890325
C  C327  1  0.16320000  0.60360000  0.24300000  0.5 -0.0592890325
C  C328  1  0.03680000  0.52280000  0.11660000  0.5 -0.0592890325
C  C329  1  0.96320000  0.47720000  0.11660000  0.5 -0.0592890325
C  C330  1  0.39640000  0.83680000  0.75700000  0.5 -0.0592890325
C  C331  1  0.83680000  0.60360000  0.75700000  0.5 -0.0592890325
C  C332  1  0.39640000  0.16320000  0.24300000  0.5 -0.0592890325
C  C333  1  0.14040000  0.62640000  0.77980000  0.5 -0.0592890325
C  C334  1  0.85960000  0.37360000  0.77980000  0.5 -0.0592890325
C  C335  1  0.96320000  0.52280000  0.88340000  0.5 -0.0592890325
C  C336  1  0.52280000  0.96320000  0.11660000  0.5 -0.0592890325
C  C337  1  0.35960000  0.12640000  0.27980000  0.5 -0.0592890325
C  C338  1  0.89640000  0.66320000  0.25700000  0.5 -0.0592890325
C  C339  1  0.87360000  0.64040000  0.72020000  0.5 -0.0592890325
C  C340  1  0.33680000  0.10360000  0.74300000  0.5 -0.0592890325
C  C341  1  0.12640000  0.64040000  0.27980000  0.5 -0.0592890325
C  C342  1  0.64040000  0.87360000  0.27980000  0.5 -0.0592890325
C  C343  1  0.87360000  0.35960000  0.27980000  0.5 -0.0592890325
C  C344  1  0.46320000  0.02280000  0.61660000  0.5 -0.0592890325
C  C345  1  0.12640000  0.35960000  0.72020000  0.5 -0.0592890325
C  C346  1  0.02280000  0.46320000  0.38340000  0.5 -0.0592890325
C  C347  1  0.02280000  0.53680000  0.61660000  0.5 -0.0592890325
C  C348  1  0.89640000  0.33680000  0.74300000  0.5 -0.0592890325
C  C349  1  0.66320000  0.10360000  0.25700000  0.5 -0.0592890325
C  C350  1  0.97720000  0.46320000  0.61660000  0.5 -0.0592890325
C  C351  1  0.33680000  0.89640000  0.25700000  0.5 -0.0592890325
C  C352  1  0.46320000  0.97720000  0.38340000  0.5 -0.0592890325
C  C353  1  0.53680000  0.02280000  0.38340000  0.5 -0.0592890325
C  C354  1  0.10360000  0.66320000  0.74300000  0.5 -0.0592890325
C  C355  1  0.66320000  0.89640000  0.74300000  0.5 -0.0592890325
C  C356  1  0.10360000  0.33680000  0.25700000  0.5 -0.0592890325
C  C357  1  0.35960000  0.87360000  0.72020000  0.5 -0.0592890325
C  C358  1  0.64040000  0.12640000  0.72020000  0.5 -0.0592890325
C  C359  1  0.53680000  0.97720000  0.61660000  0.5 -0.0592890325
C  C360  1  0.97720000  0.53680000  0.38340000  0.5 -0.0592890325
C  C361  1  0.85960000  0.62640000  0.77980000  0.5 -0.0592890325
C  C362  1  0.39640000  0.16320000  0.75700000  0.5 -0.0592890325
C  C363  1  0.37360000  0.14040000  0.22020000  0.5 -0.0592890325
C  C364  1  0.83680000  0.60360000  0.24300000  0.5 -0.0592890325
C  C365  1  0.62640000  0.14040000  0.77980000  0.5 -0.0592890325
C  C366  1  0.14040000  0.37360000  0.77980000  0.5 -0.0592890325
C  C367  1  0.37360000  0.85960000  0.77980000  0.5 -0.0592890325
C  C368  1  0.96320000  0.52280000  0.11660000  0.5 -0.0592890325
C  C369  1  0.62640000  0.85960000  0.22020000  0.5 -0.0592890325
C  C370  1  0.52280000  0.96320000  0.88340000  0.5 -0.0592890325
C  C371  1  0.52280000  0.03680000  0.11660000  0.5 -0.0592890325
C  C372  1  0.39640000  0.83680000  0.24300000  0.5 -0.0592890325
C  C373  1  0.16320000  0.60360000  0.75700000  0.5 -0.0592890325
C  C374  1  0.47720000  0.96320000  0.11660000  0.5 -0.0592890325
C  C375  1  0.83680000  0.39640000  0.75700000  0.5 -0.0592890325
C  C376  1  0.96320000  0.47720000  0.88340000  0.5 -0.0592890325
C  C377  1  0.03680000  0.52280000  0.88340000  0.5 -0.0592890325
C  C378  1  0.60360000  0.16320000  0.24300000  0.5 -0.0592890325
C  C379  1  0.16320000  0.39640000  0.24300000  0.5 -0.0592890325
C  C380  1  0.60360000  0.83680000  0.75700000  0.5 -0.0592890325
C  C381  1  0.85960000  0.37360000  0.22020000  0.5 -0.0592890325
C  C382  1  0.14040000  0.62640000  0.22020000  0.5 -0.0592890325
C  C383  1  0.03680000  0.47720000  0.11660000  0.5 -0.0592890325
C  C384  1  0.47720000  0.03680000  0.88340000  0.5 -0.0592890325
C  C385  1  0.63140000  0.88600000  0.71620000  0.5 -0.0592890325
C  C386  1  0.08890000  0.34350000  0.74130000  0.5 -0.0592890325
C  C387  1  0.11400000  0.36860000  0.28380000  0.5 -0.0592890325
C  C388  1  0.65650000  0.91110000  0.25870000  0.5 -0.0592890325
C  C389  1  0.88600000  0.36860000  0.71620000  0.5 -0.0592890325
C  C390  1  0.36860000  0.11400000  0.71620000  0.5 -0.0592890325
C  C391  1  0.11400000  0.63140000  0.71620000  0.5 -0.0592890325
C  C392  1  0.54250000  0.97490000  0.37270000  0.5 -0.0592890325
C  C393  1  0.88600000  0.63140000  0.28380000  0.5 -0.0592890325
C  C394  1  0.97490000  0.54250000  0.62730000  0.5 -0.0592890325
C  C395  1  0.97490000  0.45750000  0.37270000  0.5 -0.0592890325
C  C396  1  0.08890000  0.65650000  0.25870000  0.5 -0.0592890325
C  C397  1  0.34350000  0.91110000  0.74130000  0.5 -0.0592890325
C  C398  1  0.02510000  0.54250000  0.37270000  0.5 -0.0592890325
C  C399  1  0.65650000  0.08890000  0.74130000  0.5 -0.0592890325
C  C400  1  0.54250000  0.02510000  0.62730000  0.5 -0.0592890325
C  C401  1  0.45750000  0.97490000  0.62730000  0.5 -0.0592890325
C  C402  1  0.91110000  0.34350000  0.25870000  0.5 -0.0592890325
C  C403  1  0.34350000  0.08890000  0.25870000  0.5 -0.0592890325
C  C404  1  0.91110000  0.65650000  0.74130000  0.5 -0.0592890325
C  C405  1  0.63140000  0.11400000  0.28380000  0.5 -0.0592890325
C  C406  1  0.36860000  0.88600000  0.28380000  0.5 -0.0592890325
C  C407  1  0.45750000  0.02510000  0.37270000  0.5 -0.0592890325
C  C408  1  0.02510000  0.45750000  0.62730000  0.5 -0.0592890325
C  C409  1  0.13140000  0.38600000  0.21620000  0.5 -0.0592890325
C  C410  1  0.58890000  0.84350000  0.24130000  0.5 -0.0592890325
C  C411  1  0.61400000  0.86860000  0.78380000  0.5 -0.0592890325
C  C412  1  0.15650000  0.41110000  0.75870000  0.5 -0.0592890325
C  C413  1  0.38600000  0.86860000  0.21620000  0.5 -0.0592890325
C  C414  1  0.86860000  0.61400000  0.21620000  0.5 -0.0592890325
C  C415  1  0.61400000  0.13140000  0.21620000  0.5 -0.0592890325
C  C416  1  0.04250000  0.47490000  0.87270000  0.5 -0.0592890325
C  C417  1  0.38600000  0.13140000  0.78380000  0.5 -0.0592890325
C  C418  1  0.47490000  0.04250000  0.12730000  0.5 -0.0592890325
C  C419  1  0.47490000  0.95750000  0.87270000  0.5 -0.0592890325
C  C420  1  0.58890000  0.15650000  0.75870000  0.5 -0.0592890325
C  C421  1  0.84350000  0.41110000  0.24130000  0.5 -0.0592890325
C  C422  1  0.52510000  0.04250000  0.87270000  0.5 -0.0592890325
C  C423  1  0.15650000  0.58890000  0.24130000  0.5 -0.0592890325
C  C424  1  0.04250000  0.52510000  0.12730000  0.5 -0.0592890325
C  C425  1  0.95750000  0.47490000  0.12730000  0.5 -0.0592890325
C  C426  1  0.41110000  0.84350000  0.75870000  0.5 -0.0592890325
C  C427  1  0.84350000  0.58890000  0.75870000  0.5 -0.0592890325
C  C428  1  0.41110000  0.15650000  0.24130000  0.5 -0.0592890325
C  C429  1  0.13140000  0.61400000  0.78380000  0.5 -0.0592890325
C  C430  1  0.86860000  0.38600000  0.78380000  0.5 -0.0592890325
C  C431  1  0.95750000  0.52510000  0.87270000  0.5 -0.0592890325
C  C432  1  0.52510000  0.95750000  0.12730000  0.5 -0.0592890325
C  C433  1  0.36860000  0.11400000  0.28380000  0.5 -0.0592890325
C  C434  1  0.91110000  0.65650000  0.25870000  0.5 -0.0592890325
C  C435  1  0.88600000  0.63140000  0.71620000  0.5 -0.0592890325
C  C436  1  0.34350000  0.08890000  0.74130000  0.5 -0.0592890325
C  C437  1  0.11400000  0.63140000  0.28380000  0.5 -0.0592890325
C  C438  1  0.63140000  0.88600000  0.28380000  0.5 -0.0592890325
C  C439  1  0.88600000  0.36860000  0.28380000  0.5 -0.0592890325
C  C440  1  0.45750000  0.02510000  0.62730000  0.5 -0.0592890325
C  C441  1  0.11400000  0.36860000  0.71620000  0.5 -0.0592890325
C  C442  1  0.02510000  0.45750000  0.37270000  0.5 -0.0592890325
C  C443  1  0.02510000  0.54250000  0.62730000  0.5 -0.0592890325
C  C444  1  0.91110000  0.34350000  0.74130000  0.5 -0.0592890325
C  C445  1  0.65650000  0.08890000  0.25870000  0.5 -0.0592890325
C  C446  1  0.97490000  0.45750000  0.62730000  0.5 -0.0592890325
C  C447  1  0.34350000  0.91110000  0.25870000  0.5 -0.0592890325
C  C448  1  0.45750000  0.97490000  0.37270000  0.5 -0.0592890325
C  C449  1  0.54250000  0.02510000  0.37270000  0.5 -0.0592890325
C  C450  1  0.08890000  0.65650000  0.74130000  0.5 -0.0592890325
C  C451  1  0.65650000  0.91110000  0.74130000  0.5 -0.0592890325
C  C452  1  0.08890000  0.34350000  0.25870000  0.5 -0.0592890325
C  C453  1  0.36860000  0.88600000  0.71620000  0.5 -0.0592890325
C  C454  1  0.63140000  0.11400000  0.71620000  0.5 -0.0592890325
C  C455  1  0.54250000  0.97490000  0.62730000  0.5 -0.0592890325
C  C456  1  0.97490000  0.54250000  0.37270000  0.5 -0.0592890325
C  C457  1  0.86860000  0.61400000  0.78380000  0.5 -0.0592890325
C  C458  1  0.41110000  0.15650000  0.75870000  0.5 -0.0592890325
C  C459  1  0.38600000  0.13140000  0.21620000  0.5 -0.0592890325
C  C460  1  0.84350000  0.58890000  0.24130000  0.5 -0.0592890325
C  C461  1  0.61400000  0.13140000  0.78380000  0.5 -0.0592890325
C  C462  1  0.13140000  0.38600000  0.78380000  0.5 -0.0592890325
C  C463  1  0.38600000  0.86860000  0.78380000  0.5 -0.0592890325
C  C464  1  0.95750000  0.52510000  0.12730000  0.5 -0.0592890325
C  C465  1  0.61400000  0.86860000  0.21620000  0.5 -0.0592890325
C  C466  1  0.52510000  0.95750000  0.87270000  0.5 -0.0592890325
C  C467  1  0.52510000  0.04250000  0.12730000  0.5 -0.0592890325
C  C468  1  0.41110000  0.84350000  0.24130000  0.5 -0.0592890325
C  C469  1  0.15650000  0.58890000  0.75870000  0.5 -0.0592890325
C  C470  1  0.47490000  0.95750000  0.12730000  0.5 -0.0592890325
C  C471  1  0.84350000  0.41110000  0.75870000  0.5 -0.0592890325
C  C472  1  0.95750000  0.47490000  0.87270000  0.5 -0.0592890325
C  C473  1  0.04250000  0.52510000  0.87270000  0.5 -0.0592890325
C  C474  1  0.58890000  0.15650000  0.24130000  0.5 -0.0592890325
C  C475  1  0.15650000  0.41110000  0.24130000  0.5 -0.0592890325
C  C476  1  0.58890000  0.84350000  0.75870000  0.5 -0.0592890325
C  C477  1  0.86860000  0.38600000  0.21620000  0.5 -0.0592890325
C  C478  1  0.13140000  0.61400000  0.21620000  0.5 -0.0592890325
C  C479  1  0.04250000  0.47490000  0.12730000  0.5 -0.0592890325
C  C480  1  0.47490000  0.04250000  0.87270000  0.5 -0.0592890325
Cl  Cl1  1  0.62550000  0.83704000  0.60577000  0.33 -0.2857074729
Cl  Cl2  1  0.00000000  0.21154000  0.76873000  0.33 -0.2793050892
Cl  Cl3  1  0.16296000  0.37450000  0.39423000  0.33 -0.2793050892
Cl  Cl4  1  0.78846000  0.00000000  0.23127000  0.33 -0.2793050892
Cl  Cl5  1  0.83704000  0.37450000  0.60577000  0.33 -0.2857074729
Cl  Cl6  1  0.37450000  0.16296000  0.60577000  0.33 -0.2857074729
Cl  Cl7  1  0.16296000  0.62550000  0.60577000  0.33 -0.2857074729
Cl  Cl8  1  0.62550000  0.83704000  0.39423000  0.33 -0.2793050892
Cl  Cl9  1  0.83704000  0.62550000  0.39423000  0.33 -0.2793050892
Cl  Cl10  1  0.83704000  0.62550000  0.60577000  0.33 -0.2857074729
Cl  Cl11  1  0.83704000  0.37450000  0.39423000  0.33 -0.2793050892
Cl  Cl12  1  0.00000000  0.78846000  0.23127000  0.33 -0.2793050892
Cl  Cl13  1  0.21154000  0.00000000  0.76873000  0.33 -0.2793050892
Cl  Cl14  1  0.16296000  0.62550000  0.39423000  0.33 -0.2793050892
Cl  Cl15  1  0.78846000  0.00000000  0.76873000  0.33 -0.2793050892
Cl  Cl16  1  0.62550000  0.16296000  0.60577000  0.33 -0.2857074729
Cl  Cl17  1  0.37450000  0.83704000  0.60577000  0.33 -0.2857074729
Cl  Cl18  1  0.00000000  0.21154000  0.23127000  0.33 -0.2793050892
Cl  Cl19  1  0.21154000  0.00000000  0.23127000  0.33 -0.2793050892
Cl  Cl20  1  0.00000000  0.78846000  0.76873000  0.33 -0.2793050892
Cl  Cl21  1  0.62550000  0.16296000  0.39423000  0.33 -0.2793050892
Cl  Cl22  1  0.37450000  0.83704000  0.39423000  0.33 -0.2793050892
Cl  Cl23  1  0.37450000  0.16296000  0.39423000  0.33 -0.2793050892
Cl  Cl24  1  0.16296000  0.37450000  0.60577000  0.33 -0.2857074729
Cl  Cl25  1  0.12550000  0.33704000  0.10577000  0.33 -0.2793050892
Cl  Cl26  1  0.50000000  0.71154000  0.26873000  0.33 -0.2793050892
Cl  Cl27  1  0.66296000  0.87450000  0.89423000  0.33 -0.2793050892
Cl  Cl28  1  0.28846000  0.50000000  0.73127000  0.33 -0.2793050892
Cl  Cl29  1  0.33704000  0.87450000  0.10577000  0.33 -0.2793050892
Cl  Cl30  1  0.87450000  0.66296000  0.10577000  0.33 -0.2793050892
Cl  Cl31  1  0.66296000  0.12550000  0.10577000  0.33 -0.2793050892
Cl  Cl32  1  0.12550000  0.33704000  0.89423000  0.33 -0.2793050892
Cl  Cl33  1  0.33704000  0.12550000  0.89423000  0.33 -0.2793050892
Cl  Cl34  1  0.33704000  0.12550000  0.10577000  0.33 -0.2793050892
Cl  Cl35  1  0.33704000  0.87450000  0.89423000  0.33 -0.2793050892
Cl  Cl36  1  0.50000000  0.28846000  0.73127000  0.33 -0.2793050892
Cl  Cl37  1  0.71154000  0.50000000  0.26873000  0.33 -0.2793050892
Cl  Cl38  1  0.66296000  0.12550000  0.89423000  0.33 -0.2793050892
Cl  Cl39  1  0.28846000  0.50000000  0.26873000  0.33 -0.2793050892
Cl  Cl40  1  0.12550000  0.66296000  0.10577000  0.33 -0.2793050892
Cl  Cl41  1  0.87450000  0.33704000  0.10577000  0.33 -0.2793050892
Cl  Cl42  1  0.50000000  0.71154000  0.73127000  0.33 -0.2793050892
Cl  Cl43  1  0.71154000  0.50000000  0.73127000  0.33 -0.2793050892
Cl  Cl44  1  0.50000000  0.28846000  0.26873000  0.33 -0.2793050892
Cl  Cl45  1  0.12550000  0.66296000  0.89423000  0.33 -0.2793050892
Cl  Cl46  1  0.87450000  0.33704000  0.89423000  0.33 -0.2793050892
Cl  Cl47  1  0.87450000  0.66296000  0.89423000  0.33 -0.2793050892
Cl  Cl48  1  0.66296000  0.87450000  0.10577000  0.33 -0.2793050892
O  O1  1  0.50000000  0.79716000  0.64858000  1.0 -0.7043510369
O  O2  1  0.00000000  0.29716000  0.85142000  1.0 -0.7043510369
O  O3  1  0.20284000  0.50000000  0.35142000  1.0 -0.7043510369
O  O4  1  0.70284000  0.00000000  0.14858000  1.0 -0.7062232039
O  O5  1  0.79716000  0.50000000  0.64858000  1.0 -0.7043510369
O  O6  1  0.50000000  0.20284000  0.64858000  1.0 -0.7043510369
O  O7  1  0.20284000  0.50000000  0.64858000  1.0 -0.7043510369
O  O8  1  0.50000000  0.79716000  0.35142000  1.0 -0.7043510369
O  O9  1  0.79716000  0.50000000  0.35142000  1.0 -0.7043510369
O  O10  1  0.00000000  0.70284000  0.14858000  1.0 -0.7062232039
O  O11  1  0.29716000  0.00000000  0.85142000  1.0 -0.7043510369
O  O12  1  0.70284000  0.00000000  0.85142000  1.0 -0.7043510369
O  O13  1  0.00000000  0.29716000  0.14858000  1.0 -0.7062232039
O  O14  1  0.29716000  0.00000000  0.14858000  1.0 -0.7062232039
O  O15  1  0.00000000  0.70284000  0.85142000  1.0 -0.7043510369
O  O16  1  0.50000000  0.20284000  0.35142000  1.0 -0.7043510369
O  O17  1  0.58609000  0.75335000  0.63155000  1.0 -0.4815412785
O  O18  1  0.04792000  0.21518000  0.83028000  1.0 -0.4815412785
O  O19  1  0.24665000  0.41391000  0.36845000  1.0 -0.4815412785
O  O20  1  0.78482000  0.95208000  0.16972000  1.0 -0.4815412785
O  O21  1  0.75335000  0.41391000  0.63155000  1.0 -0.4815412785
O  O22  1  0.41391000  0.24665000  0.63155000  1.0 -0.4815412785
O  O23  1  0.24665000  0.58609000  0.63155000  1.0 -0.4815412785
O  O24  1  0.53817000  0.80127000  0.41637000  1.0 -0.4815412785
O  O25  1  0.75335000  0.58609000  0.36845000  1.0 -0.4815412785
O  O26  1  0.80127000  0.53817000  0.58363000  1.0 -0.4815412785
O  O27  1  0.80127000  0.46183000  0.41637000  1.0 -0.4815412785
O  O28  1  0.04792000  0.78482000  0.16972000  1.0 -0.4815412785
O  O29  1  0.21518000  0.95208000  0.83028000  1.0 -0.4815412785
O  O30  1  0.19873000  0.53817000  0.41637000  1.0 -0.4815412785
O  O31  1  0.78482000  0.04792000  0.83028000  1.0 -0.4815412785
O  O32  1  0.53817000  0.19873000  0.58363000  1.0 -0.4815412785
O  O33  1  0.46183000  0.80127000  0.58363000  1.0 -0.4815412785
O  O34  1  0.95208000  0.21518000  0.16972000  1.0 -0.4815412785
O  O35  1  0.21518000  0.04792000  0.16972000  1.0 -0.4815412785
O  O36  1  0.95208000  0.78482000  0.83028000  1.0 -0.4815412785
O  O37  1  0.58609000  0.24665000  0.36845000  1.0 -0.4815412785
O  O38  1  0.41391000  0.75335000  0.36845000  1.0 -0.4815412785
O  O39  1  0.46183000  0.19873000  0.41637000  1.0 -0.4815412785
O  O40  1  0.19873000  0.46183000  0.58363000  1.0 -0.4815412785
O  O41  1  0.08609000  0.25335000  0.13155000  1.0 -0.4815412785
O  O42  1  0.54792000  0.71518000  0.33028000  1.0 -0.4815412785
O  O43  1  0.74665000  0.91391000  0.86845000  1.0 -0.4815412785
O  O44  1  0.28482000  0.45208000  0.66972000  1.0 -0.4815412785
O  O45  1  0.25335000  0.91391000  0.13155000  1.0 -0.4815412785
O  O46  1  0.91391000  0.74665000  0.13155000  1.0 -0.4815412785
O  O47  1  0.74665000  0.08609000  0.13155000  1.0 -0.4815412785
O  O48  1  0.03817000  0.30127000  0.91637000  1.0 -0.4815412785
O  O49  1  0.25335000  0.08609000  0.86845000  1.0 -0.4815412785
O  O50  1  0.30127000  0.03817000  0.08363000  1.0 -0.4815412785
O  O51  1  0.30127000  0.96183000  0.91637000  1.0 -0.4815412785
O  O52  1  0.54792000  0.28482000  0.66972000  1.0 -0.4815412785
O  O53  1  0.71518000  0.45208000  0.33028000  1.0 -0.4815412785
O  O54  1  0.69873000  0.03817000  0.91637000  1.0 -0.4815412785
O  O55  1  0.28482000  0.54792000  0.33028000  1.0 -0.4815412785
O  O56  1  0.03817000  0.69873000  0.08363000  1.0 -0.4815412785
O  O57  1  0.96183000  0.30127000  0.08363000  1.0 -0.4815412785
O  O58  1  0.45208000  0.71518000  0.66972000  1.0 -0.4815412785
O  O59  1  0.71518000  0.54792000  0.66972000  1.0 -0.4815412785
O  O60  1  0.45208000  0.28482000  0.33028000  1.0 -0.4815412785
O  O61  1  0.08609000  0.74665000  0.86845000  1.0 -0.4815412785
O  O62  1  0.91391000  0.25335000  0.86845000  1.0 -0.4815412785
O  O63  1  0.96183000  0.69873000  0.91637000  1.0 -0.4815412785
O  O64  1  0.69873000  0.96183000  0.08363000  1.0 -0.4815412785
O  O65  1  0.41391000  0.24665000  0.36845000  1.0 -0.4815412785
O  O66  1  0.95208000  0.78482000  0.16972000  1.0 -0.4815412785
O  O67  1  0.75335000  0.58609000  0.63155000  1.0 -0.4815412785
O  O68  1  0.21518000  0.04792000  0.83028000  1.0 -0.4815412785
O  O69  1  0.24665000  0.58609000  0.36845000  1.0 -0.4815412785
O  O70  1  0.58609000  0.75335000  0.36845000  1.0 -0.4815412785
O  O71  1  0.75335000  0.41391000  0.36845000  1.0 -0.4815412785
O  O72  1  0.46183000  0.19873000  0.58363000  1.0 -0.4815412785
O  O73  1  0.24665000  0.41391000  0.63155000  1.0 -0.4815412785
O  O74  1  0.19873000  0.46183000  0.41637000  1.0 -0.4815412785
O  O75  1  0.19873000  0.53817000  0.58363000  1.0 -0.4815412785
O  O76  1  0.95208000  0.21518000  0.83028000  1.0 -0.4815412785
O  O77  1  0.78482000  0.04792000  0.16972000  1.0 -0.4815412785
O  O78  1  0.80127000  0.46183000  0.58363000  1.0 -0.4815412785
O  O79  1  0.21518000  0.95208000  0.16972000  1.0 -0.4815412785
O  O80  1  0.46183000  0.80127000  0.41637000  1.0 -0.4815412785
O  O81  1  0.53817000  0.19873000  0.41637000  1.0 -0.4815412785
O  O82  1  0.04792000  0.78482000  0.83028000  1.0 -0.4815412785
O  O83  1  0.78482000  0.95208000  0.83028000  1.0 -0.4815412785
O  O84  1  0.04792000  0.21518000  0.16972000  1.0 -0.4815412785
O  O85  1  0.41391000  0.75335000  0.63155000  1.0 -0.4815412785
O  O86  1  0.58609000  0.24665000  0.63155000  1.0 -0.4815412785
O  O87  1  0.53817000  0.80127000  0.58363000  1.0 -0.4815412785
O  O88  1  0.80127000  0.53817000  0.41637000  1.0 -0.4815412785
O  O89  1  0.91391000  0.74665000  0.86845000  1.0 -0.4815412785
O  O90  1  0.45208000  0.28482000  0.66972000  1.0 -0.4815412785
O  O91  1  0.25335000  0.08609000  0.13155000  1.0 -0.4815412785
O  O92  1  0.71518000  0.54792000  0.33028000  1.0 -0.4815412785
O  O93  1  0.74665000  0.08609000  0.86845000  1.0 -0.4815412785
O  O94  1  0.08609000  0.25335000  0.86845000  1.0 -0.4815412785
O  O95  1  0.25335000  0.91391000  0.86845000  1.0 -0.4815412785
O  O96  1  0.96183000  0.69873000  0.08363000  1.0 -0.4815412785
O  O97  1  0.74665000  0.91391000  0.13155000  1.0 -0.4815412785
O  O98  1  0.69873000  0.96183000  0.91637000  1.0 -0.4815412785
O  O99  1  0.69873000  0.03817000  0.08363000  1.0 -0.4815412785
O  O100  1  0.45208000  0.71518000  0.33028000  1.0 -0.4815412785
O  O101  1  0.28482000  0.54792000  0.66972000  1.0 -0.4815412785
O  O102  1  0.30127000  0.96183000  0.08363000  1.0 -0.4815412785
O  O103  1  0.71518000  0.45208000  0.66972000  1.0 -0.4815412785
O  O104  1  0.96183000  0.30127000  0.91637000  1.0 -0.4815412785
O  O105  1  0.03817000  0.69873000  0.91637000  1.0 -0.4815412785
O  O106  1  0.54792000  0.28482000  0.33028000  1.0 -0.4815412785
O  O107  1  0.28482000  0.45208000  0.33028000  1.0 -0.4815412785
O  O108  1  0.54792000  0.71518000  0.66972000  1.0 -0.4815412785
O  O109  1  0.91391000  0.25335000  0.13155000  1.0 -0.4815412785
O  O110  1  0.08609000  0.74665000  0.13155000  1.0 -0.4815412785
O  O111  1  0.03817000  0.30127000  0.08363000  1.0 -0.4815412785
O  O112  1  0.30127000  0.03817000  0.91637000  1.0 -0.4815412785
O  O113  1  0.58600000  0.83306000  0.67210000  1.0 -0.4380191295
O  O114  1  0.04857000  0.29563000  0.79047000  1.0 -0.4380191295
O  O115  1  0.16694000  0.41400000  0.32790000  1.0 -0.4380191295
O  O116  1  0.70437000  0.95143000  0.20953000  1.0 -0.4380191295
O  O117  1  0.83306000  0.41400000  0.67210000  1.0 -0.4380191295
O  O118  1  0.41400000  0.16694000  0.67210000  1.0 -0.4380191295
O  O119  1  0.16694000  0.58600000  0.67210000  1.0 -0.4380191295
O  O120  1  0.53743000  0.88163000  0.37647000  1.0 -0.4380191295
O  O121  1  0.83306000  0.58600000  0.32790000  1.0 -0.4380191295
O  O122  1  0.88163000  0.53743000  0.62353000  1.0 -0.4380191295
O  O123  1  0.88163000  0.46257000  0.37647000  1.0 -0.4380191295
O  O124  1  0.04857000  0.70437000  0.20953000  1.0 -0.4380191295
O  O125  1  0.29563000  0.95143000  0.79047000  1.0 -0.4380191295
O  O126  1  0.11837000  0.53743000  0.37647000  1.0 -0.4380191295
O  O127  1  0.70437000  0.04857000  0.79047000  1.0 -0.4380191295
O  O128  1  0.53743000  0.11837000  0.62353000  1.0 -0.4380191295
O  O129  1  0.46257000  0.88163000  0.62353000  1.0 -0.4380191295
O  O130  1  0.95143000  0.29563000  0.20953000  1.0 -0.4380191295
O  O131  1  0.29563000  0.04857000  0.20953000  1.0 -0.4380191295
O  O132  1  0.95143000  0.70437000  0.79047000  1.0 -0.4380191295
O  O133  1  0.58600000  0.16694000  0.32790000  1.0 -0.4380191295
O  O134  1  0.41400000  0.83306000  0.32790000  1.0 -0.4380191295
O  O135  1  0.46257000  0.11837000  0.37647000  1.0 -0.4380191295
O  O136  1  0.11837000  0.46257000  0.62353000  1.0 -0.4380191295
O  O137  1  0.08600000  0.33306000  0.17210000  1.0 -0.4380191295
O  O138  1  0.54857000  0.79563000  0.29047000  1.0 -0.4380191295
O  O139  1  0.66694000  0.91400000  0.82790000  1.0 -0.4380191295
O  O140  1  0.20437000  0.45143000  0.70953000  1.0 -0.4380191295
O  O141  1  0.33306000  0.91400000  0.17210000  1.0 -0.4380191295
O  O142  1  0.91400000  0.66694000  0.17210000  1.0 -0.4380191295
O  O143  1  0.66694000  0.08600000  0.17210000  1.0 -0.4380191295
O  O144  1  0.03743000  0.38163000  0.87647000  1.0 -0.4380191295
O  O145  1  0.33306000  0.08600000  0.82790000  1.0 -0.4380191295
O  O146  1  0.38163000  0.03743000  0.12353000  1.0 -0.4380191295
O  O147  1  0.38163000  0.96257000  0.87647000  1.0 -0.4380191295
O  O148  1  0.54857000  0.20437000  0.70953000  1.0 -0.4380191295
O  O149  1  0.79563000  0.45143000  0.29047000  1.0 -0.4380191295
O  O150  1  0.61837000  0.03743000  0.87647000  1.0 -0.4380191295
O  O151  1  0.20437000  0.54857000  0.29047000  1.0 -0.4380191295
O  O152  1  0.03743000  0.61837000  0.12353000  1.0 -0.4380191295
O  O153  1  0.96257000  0.38163000  0.12353000  1.0 -0.4380191295
O  O154  1  0.45143000  0.79563000  0.70953000  1.0 -0.4380191295
O  O155  1  0.79563000  0.54857000  0.70953000  1.0 -0.4380191295
O  O156  1  0.45143000  0.20437000  0.29047000  1.0 -0.4380191295
O  O157  1  0.08600000  0.66694000  0.82790000  1.0 -0.4380191295
O  O158  1  0.91400000  0.33306000  0.82790000  1.0 -0.4380191295
O  O159  1  0.96257000  0.61837000  0.87647000  1.0 -0.4380191295
O  O160  1  0.61837000  0.96257000  0.12353000  1.0 -0.4380191295
O  O161  1  0.41400000  0.16694000  0.32790000  1.0 -0.4380191295
O  O162  1  0.95143000  0.70437000  0.20953000  1.0 -0.4380191295
O  O163  1  0.83306000  0.58600000  0.67210000  1.0 -0.4380191295
O  O164  1  0.29563000  0.04857000  0.79047000  1.0 -0.4380191295
O  O165  1  0.16694000  0.58600000  0.32790000  1.0 -0.4380191295
O  O166  1  0.58600000  0.83306000  0.32790000  1.0 -0.4380191295
O  O167  1  0.83306000  0.41400000  0.32790000  1.0 -0.4380191295
O  O168  1  0.46257000  0.11837000  0.62353000  1.0 -0.4380191295
O  O169  1  0.16694000  0.41400000  0.67210000  1.0 -0.4380191295
O  O170  1  0.11837000  0.46257000  0.37647000  1.0 -0.4380191295
O  O171  1  0.11837000  0.53743000  0.62353000  1.0 -0.4380191295
O  O172  1  0.95143000  0.29563000  0.79047000  1.0 -0.4380191295
O  O173  1  0.70437000  0.04857000  0.20953000  1.0 -0.4380191295
O  O174  1  0.88163000  0.46257000  0.62353000  1.0 -0.4380191295
O  O175  1  0.29563000  0.95143000  0.20953000  1.0 -0.4380191295
O  O176  1  0.46257000  0.88163000  0.37647000  1.0 -0.4380191295
O  O177  1  0.53743000  0.11837000  0.37647000  1.0 -0.4380191295
O  O178  1  0.04857000  0.70437000  0.79047000  1.0 -0.4380191295
O  O179  1  0.70437000  0.95143000  0.79047000  1.0 -0.4380191295
O  O180  1  0.04857000  0.29563000  0.20953000  1.0 -0.4380191295
O  O181  1  0.41400000  0.83306000  0.67210000  1.0 -0.4380191295
O  O182  1  0.58600000  0.16694000  0.67210000  1.0 -0.4380191295
O  O183  1  0.53743000  0.88163000  0.62353000  1.0 -0.4380191295
O  O184  1  0.88163000  0.53743000  0.37647000  1.0 -0.4380191295
O  O185  1  0.91400000  0.66694000  0.82790000  1.0 -0.4380191295
O  O186  1  0.45143000  0.20437000  0.70953000  1.0 -0.4380191295
O  O187  1  0.33306000  0.08600000  0.17210000  1.0 -0.4380191295
O  O188  1  0.79563000  0.54857000  0.29047000  1.0 -0.4380191295
O  O189  1  0.66694000  0.08600000  0.82790000  1.0 -0.4380191295
O  O190  1  0.08600000  0.33306000  0.82790000  1.0 -0.4380191295
O  O191  1  0.33306000  0.91400000  0.82790000  1.0 -0.4380191295
O  O192  1  0.96257000  0.61837000  0.12353000  1.0 -0.4380191295
O  O193  1  0.66694000  0.91400000  0.17210000  1.0 -0.4380191295
O  O194  1  0.61837000  0.96257000  0.87647000  1.0 -0.4380191295
O  O195  1  0.61837000  0.03743000  0.12353000  1.0 -0.4380191295
O  O196  1  0.45143000  0.79563000  0.29047000  1.0 -0.4380191295
O  O197  1  0.20437000  0.54857000  0.70953000  1.0 -0.4380191295
O  O198  1  0.38163000  0.96257000  0.12353000  1.0 -0.4380191295
O  O199  1  0.79563000  0.45143000  0.70953000  1.0 -0.4380191295
O  O200  1  0.96257000  0.38163000  0.87647000  1.0 -0.4380191295
O  O201  1  0.03743000  0.61837000  0.87647000  1.0 -0.4380191295
O  O202  1  0.54857000  0.20437000  0.29047000  1.0 -0.4380191295
O  O203  1  0.20437000  0.45143000  0.29047000  1.0 -0.4380191295
O  O204  1  0.54857000  0.79563000  0.70953000  1.0 -0.4380191295
O  O205  1  0.91400000  0.33306000  0.17210000  1.0 -0.4380191295
O  O206  1  0.08600000  0.66694000  0.17210000  1.0 -0.4380191295
O  O207  1  0.03743000  0.38163000  0.12353000  1.0 -0.4380191295
O  O208  1  0.38163000  0.03743000  0.87647000  1.0 -0.4380191295
O  O209  1  0.61593000  0.83737000  0.61072000  0.67 -0.3233436987
O  O210  1  0.00000000  0.22144000  0.77335000  0.67 -0.3233436987
O  O211  1  0.16263000  0.38407000  0.38928000  0.67 -0.3233436987
O  O212  1  0.77856000  0.00000000  0.22665000  0.67 -0.3233436987
O  O213  1  0.83737000  0.38407000  0.61072000  0.67 -0.3233436987
O  O214  1  0.38407000  0.16263000  0.61072000  0.67 -0.3233436987
O  O215  1  0.16263000  0.61593000  0.61072000  0.67 -0.3254910997
O  O216  1  0.61593000  0.83737000  0.38928000  0.67 -0.3233436987
O  O217  1  0.83737000  0.61593000  0.38928000  0.67 -0.3233436987
O  O218  1  0.83737000  0.61593000  0.61072000  0.67 -0.3233436987
O  O219  1  0.83737000  0.38407000  0.38928000  0.67 -0.3233436987
O  O220  1  0.00000000  0.77856000  0.22665000  0.67 -0.3233436987
O  O221  1  0.22144000  0.00000000  0.77335000  0.67 -0.3233436987
O  O222  1  0.16263000  0.61593000  0.38928000  0.67 -0.3233436987
O  O223  1  0.77856000  0.00000000  0.77335000  0.67 -0.3233436987
O  O224  1  0.61593000  0.16263000  0.61072000  0.67 -0.3233436987
O  O225  1  0.38407000  0.83737000  0.61072000  0.67 -0.3254910997
O  O226  1  0.00000000  0.22144000  0.22665000  0.67 -0.3233436987
O  O227  1  0.22144000  0.00000000  0.22665000  0.67 -0.3233436987
O  O228  1  0.00000000  0.77856000  0.77335000  0.67 -0.3233436987
O  O229  1  0.61593000  0.16263000  0.38928000  0.67 -0.3233436987
O  O230  1  0.38407000  0.83737000  0.38928000  0.67 -0.3233436987
O  O231  1  0.38407000  0.16263000  0.38928000  0.67 -0.3233436987
O  O232  1  0.16263000  0.38407000  0.61072000  0.67 -0.3254910997
O  O233  1  0.11593000  0.33737000  0.11072000  0.67 -0.3233436987
O  O234  1  0.50000000  0.72144000  0.27335000  0.67 -0.3233436987
O  O235  1  0.66263000  0.88407000  0.88928000  0.67 -0.3233436987
O  O236  1  0.27856000  0.50000000  0.72665000  0.67 -0.3233436987
O  O237  1  0.33737000  0.88407000  0.11072000  0.67 -0.3233436987
O  O238  1  0.88407000  0.66263000  0.11072000  0.67 -0.3233436987
O  O239  1  0.66263000  0.11593000  0.11072000  0.67 -0.3233436987
O  O240  1  0.11593000  0.33737000  0.88928000  0.67 -0.3233436987
O  O241  1  0.33737000  0.11593000  0.88928000  0.67 -0.3233436987
O  O242  1  0.33737000  0.11593000  0.11072000  0.67 -0.3233436987
O  O243  1  0.33737000  0.88407000  0.88928000  0.67 -0.3233436987
O  O244  1  0.50000000  0.27856000  0.72665000  0.67 -0.3233436987
O  O245  1  0.72144000  0.50000000  0.27335000  0.67 -0.3233436987
O  O246  1  0.66263000  0.11593000  0.88928000  0.67 -0.3233436987
O  O247  1  0.27856000  0.50000000  0.27335000  0.67 -0.3233436987
O  O248  1  0.11593000  0.66263000  0.11072000  0.67 -0.3233436987
O  O249  1  0.88407000  0.33737000  0.11072000  0.67 -0.3233436987
O  O250  1  0.50000000  0.72144000  0.72665000  0.67 -0.3233436987
O  O251  1  0.72144000  0.50000000  0.72665000  0.67 -0.3233436987
O  O252  1  0.50000000  0.27856000  0.27335000  0.67 -0.3233436987
O  O253  1  0.11593000  0.66263000  0.88928000  0.67 -0.3233436987
O  O254  1  0.88407000  0.33737000  0.88928000  0.67 -0.3233436987
O  O255  1  0.88407000  0.66263000  0.88928000  0.67 -0.3233436987
O  O256  1  0.66263000  0.88407000  0.11072000  0.67 -0.3233436987
