# DDEC6 charges by PACMAN v1.1 (https://github.com/mtap-research/PACMAN-charge/)
data_c9ce01481k2_ASR_pacman
_symmetry_space_group_name_H-M   'P 1'
_cell_length_a   14.33430000
_cell_length_b   18.19240000
_cell_length_c   25.12300000
_cell_angle_alpha   90.00000000
_cell_angle_beta   90.00000000
_cell_angle_gamma   90.00000000
_symmetry_Int_Tables_number   1
_chemical_formula_structural   Zn3H33C52(NO3)4
_chemical_formula_sum   'Zn12 H132 C208 N16 O48'
_cell_volume   6551.45834728
_cell_formula_units_Z   4
loop_
 _symmetry_equiv_pos_site_id
 _symmetry_equiv_pos_as_xyz
  1  'x, y, z'
loop_
 _atom_site_type_symbol
 _atom_site_label
 _atom_site_symmetry_multiplicity
 _atom_site_fract_x
 _atom_site_fract_y
 _atom_site_fract_z
 _atom_site_occupancy
 _atom_site_charge
Zn  Zn1  1  0.46816000  0.94412000  0.64100000  1.0 0.775752117
Zn  Zn2  1  0.53184000  0.55588000  0.64100000  1.0 0.775752117
Zn  Zn3  1  0.96816000  0.55588000  0.14100000  1.0 0.775752117
Zn  Zn4  1  0.03184000  0.94412000  0.14100000  1.0 0.775752117
Zn  Zn5  1  0.00000000  0.75000000  0.14148000  1.0 0.817089622
Zn  Zn6  1  0.50000000  0.75000000  0.64148000  1.0 0.8136344302
Zn  Zn7  1  0.03184000  0.44412000  0.85900000  1.0 0.775752117
Zn  Zn8  1  0.96816000  0.05588000  0.85900000  1.0 0.775752117
Zn  Zn9  1  0.53184000  0.05588000  0.35900000  1.0 0.775752117
Zn  Zn10  1  0.46816000  0.44412000  0.35900000  1.0 0.775752117
Zn  Zn11  1  0.50000000  0.25000000  0.35852000  1.0 0.8136344302
Zn  Zn12  1  0.00000000  0.25000000  0.85852000  1.0 0.817089622
H  H1  1  0.77300000  0.97200000  0.92600000  1.0 0.1109384854
H  H2  1  0.86440000  0.97490000  0.00120000  1.0 0.1192025143
H  H3  1  0.76100000  0.77960000  0.12810000  1.0 0.1109384854
H  H4  1  0.61440000  0.82670000  0.12570000  1.0 0.1192025143
H  H5  1  0.65800000  0.58150000  0.15820000  1.0 0.0922659993
H  H6  1  0.84280000  0.75660000  0.01180000  1.0 0.1109384854
H  H7  1  0.75420000  0.75540000  0.93770000  1.0 0.1109384854
H  H8  1  0.40270000  0.07200000  0.70450000  1.0 0.1109384854
H  H9  1  0.56500000  0.19120000  0.57540000  1.0 0.1284744415
H  H10  1  0.55110000  0.06660000  0.57530000  1.0 0.1109384854
H  H11  1  0.40010000  0.18660000  0.75870000  1.0 0.1284744415
H  H12  1  0.40380000  0.26110000  0.72740000  1.0 0.1405386078
H  H13  1  0.32170000  0.20580000  0.71760000  1.0 0.1109384854
H  H14  1  0.22700000  0.52800000  0.92600000  1.0 0.1109384854
H  H15  1  0.13560000  0.52510000  0.00120000  1.0 0.1192025143
H  H16  1  0.23900000  0.72040000  0.12810000  1.0 0.1109384854
H  H17  1  0.38560000  0.67330000  0.12570000  1.0 0.1192025143
H  H18  1  0.34200000  0.91850000  0.15820000  1.0 0.0922659993
H  H19  1  0.15720000  0.74340000  0.01180000  1.0 0.1109384854
H  H20  1  0.24580000  0.74460000  0.93770000  1.0 0.1109384854
H  H21  1  0.59730000  0.42800000  0.70450000  1.0 0.1109384854
H  H22  1  0.43500000  0.30880000  0.57540000  1.0 0.1284744415
H  H23  1  0.44890000  0.43340000  0.57530000  1.0 0.1109384854
H  H24  1  0.59990000  0.31340000  0.75870000  1.0 0.1284744415
H  H25  1  0.59620000  0.23890000  0.72740000  1.0 0.1405386078
H  H26  1  0.67830000  0.29420000  0.71760000  1.0 0.1109384854
H  H27  1  0.27300000  0.52800000  0.42600000  1.0 0.1109384854
H  H28  1  0.36440000  0.52510000  0.50120000  1.0 0.1192025143
H  H29  1  0.26100000  0.72040000  0.62810000  1.0 0.1109384854
H  H30  1  0.11440000  0.67330000  0.62570000  1.0 0.1192025143
H  H31  1  0.15800000  0.91850000  0.65820000  1.0 0.0922659993
H  H32  1  0.34280000  0.74340000  0.51180000  1.0 0.1109384854
H  H33  1  0.25420000  0.74460000  0.43770000  1.0 0.1109384854
H  H34  1  0.90270000  0.42800000  0.20450000  1.0 0.1109384854
H  H35  1  0.06500000  0.30880000  0.07540000  1.0 0.1284744415
H  H36  1  0.05110000  0.43340000  0.07530000  1.0 0.1109384854
H  H37  1  0.90010000  0.31340000  0.25870000  1.0 0.1284744415
H  H38  1  0.90380000  0.23890000  0.22740000  1.0 0.1405386078
H  H39  1  0.82170000  0.29420000  0.21760000  1.0 0.1109384854
H  H40  1  0.72700000  0.97200000  0.42600000  1.0 0.1109384854
H  H41  1  0.63560000  0.97490000  0.50120000  1.0 0.1192025143
H  H42  1  0.73900000  0.77960000  0.62810000  1.0 0.1109384854
H  H43  1  0.88560000  0.82670000  0.62570000  1.0 0.1192025143
H  H44  1  0.84200000  0.58150000  0.65820000  1.0 0.0922659993
H  H45  1  0.65720000  0.75660000  0.51180000  1.0 0.1109384854
H  H46  1  0.74580000  0.75540000  0.43770000  1.0 0.1109384854
H  H47  1  0.09730000  0.07200000  0.20450000  1.0 0.1109384854
H  H48  1  0.93500000  0.19120000  0.07540000  1.0 0.1284744415
H  H49  1  0.94890000  0.06660000  0.07530000  1.0 0.1109384854
H  H50  1  0.09990000  0.18660000  0.25870000  1.0 0.1284744415
H  H51  1  0.09620000  0.26110000  0.22740000  1.0 0.1405386078
H  H52  1  0.17830000  0.20580000  0.21760000  1.0 0.1109384854
H  H81  1  0.72700000  0.47200000  0.57400000  1.0 0.1109384854
H  H82  1  0.63560000  0.47490000  0.49880000  1.0 0.1192025143
H  H83  1  0.73900000  0.27960000  0.37190000  1.0 0.1109384854
H  H84  1  0.88560000  0.32670000  0.37430000  1.0 0.1192025143
H  H85  1  0.84200000  0.08150000  0.34180000  1.0 0.0922659993
H  H86  1  0.65720000  0.25660000  0.48820000  1.0 0.1109384854
H  H87  1  0.74580000  0.25540000  0.56230000  1.0 0.1109384854
H  H88  1  0.09730000  0.57200000  0.79550000  1.0 0.1109384854
H  H89  1  0.93500000  0.69120000  0.92460000  1.0 0.1284744415
H  H90  1  0.94890000  0.56660000  0.92470000  1.0 0.1109384854
H  H91  1  0.09990000  0.68660000  0.74130000  1.0 0.1284744415
H  H92  1  0.09620000  0.76110000  0.77260000  1.0 0.1405386078
H  H93  1  0.17830000  0.70580000  0.78240000  1.0 0.1109384854
H  H94  1  0.27300000  0.02800000  0.57400000  1.0 0.1109384854
H  H95  1  0.36440000  0.02510000  0.49880000  1.0 0.1192025143
H  H96  1  0.26100000  0.22040000  0.37190000  1.0 0.1109384854
H  H97  1  0.11440000  0.17330000  0.37430000  1.0 0.1192025143
H  H98  1  0.15800000  0.41850000  0.34180000  1.0 0.0922659993
H  H99  1  0.34280000  0.24340000  0.48820000  1.0 0.1109384854
H  H100  1  0.25420000  0.24460000  0.56230000  1.0 0.1109384854
H  H101  1  0.90270000  0.92800000  0.79550000  1.0 0.1109384854
H  H102  1  0.06500000  0.80880000  0.92460000  1.0 0.1284744415
H  H103  1  0.05110000  0.93340000  0.92470000  1.0 0.1109384854
H  H104  1  0.90010000  0.81340000  0.74130000  1.0 0.1284744415
H  H105  1  0.90380000  0.73890000  0.77260000  1.0 0.1405386078
H  H106  1  0.82170000  0.79420000  0.78240000  1.0 0.1109384854
H  H107  1  0.22700000  0.02800000  0.07400000  1.0 0.1109384854
H  H108  1  0.13560000  0.02510000  0.99880000  1.0 0.1192025143
H  H109  1  0.23900000  0.22040000  0.87190000  1.0 0.1109384854
H  H110  1  0.38560000  0.17330000  0.87430000  1.0 0.1192025143
H  H111  1  0.34200000  0.41850000  0.84180000  1.0 0.0922659993
H  H112  1  0.15720000  0.24340000  0.98820000  1.0 0.1109384854
H  H113  1  0.24580000  0.24460000  0.06230000  1.0 0.1109384854
H  H114  1  0.59730000  0.92800000  0.29550000  1.0 0.1109384854
H  H115  1  0.43500000  0.80880000  0.42460000  1.0 0.1284744415
H  H116  1  0.44890000  0.93340000  0.42470000  1.0 0.1109384854
H  H117  1  0.59990000  0.81340000  0.24130000  1.0 0.1284744415
H  H118  1  0.59620000  0.73890000  0.27260000  1.0 0.1405386078
H  H119  1  0.67830000  0.79420000  0.28240000  1.0 0.1109384854
H  H120  1  0.77300000  0.47200000  0.07400000  1.0 0.1109384854
H  H121  1  0.86440000  0.47490000  0.99880000  1.0 0.1192025143
H  H122  1  0.76100000  0.27960000  0.87190000  1.0 0.1109384854
H  H123  1  0.61440000  0.32670000  0.87430000  1.0 0.1192025143
H  H124  1  0.65800000  0.08150000  0.84180000  1.0 0.0922659993
H  H125  1  0.84280000  0.25660000  0.98820000  1.0 0.1109384854
H  H126  1  0.75420000  0.25540000  0.06230000  1.0 0.1109384854
H  H127  1  0.40270000  0.57200000  0.29550000  1.0 0.1109384854
H  H128  1  0.56500000  0.69120000  0.42460000  1.0 0.1284744415
H  H129  1  0.55110000  0.56660000  0.42470000  1.0 0.1109384854
H  H130  1  0.40010000  0.68660000  0.24130000  1.0 0.1284744415
H  H131  1  0.40380000  0.76110000  0.27260000  1.0 0.1405386078
H  H132  1  0.32170000  0.70580000  0.28240000  1.0 0.1109384854
H  H53  1  0.64010000  0.97400000  0.77890000  0.5 0.0922659993
H  H54  1  0.65680000  0.75800000  0.87980000  0.5 0.0963340524
H  H55  1  0.57860000  0.75920000  0.79950000  0.5 0.0814686428
H  H56  1  0.50870000  0.63070000  0.15720000  0.5 0.1192025143
H  H57  1  0.58440000  0.96570000  0.79480000  0.5 0.0963340524
H  H58  1  0.72290000  0.75750000  0.85260000  0.5 0.0922659993
H  H59  1  0.65510000  0.76240000  0.76900000  0.5 0.0922659993
H  H60  1  0.35990000  0.52600000  0.77890000  0.5 0.0922659993
H  H61  1  0.34320000  0.74200000  0.87980000  0.5 0.0963340524
H  H62  1  0.42140000  0.74080000  0.79950000  0.5 0.0814686428
H  H63  1  0.49130000  0.86930000  0.15720000  0.5 0.1192025143
H  H64  1  0.41560000  0.53430000  0.79480000  0.5 0.0963340524
H  H65  1  0.27710000  0.74250000  0.85260000  0.5 0.0922659993
H  H66  1  0.34490000  0.73760000  0.76900000  0.5 0.0922659993
H  H67  1  0.14010000  0.52600000  0.27890000  0.5 0.0922659993
H  H68  1  0.15680000  0.74200000  0.37980000  0.5 0.0963340524
H  H69  1  0.07860000  0.74080000  0.29950000  0.5 0.0814686428
H  H70  1  0.00870000  0.86930000  0.65720000  0.5 0.1192025143
H  H71  1  0.08440000  0.53430000  0.29480000  0.5 0.0963340524
H  H72  1  0.22290000  0.74250000  0.35260000  0.5 0.0922659993
H  H73  1  0.15510000  0.73760000  0.26900000  0.5 0.0922659993
H  H74  1  0.85990000  0.97400000  0.27890000  0.5 0.0922659993
H  H75  1  0.84320000  0.75800000  0.37980000  0.5 0.0963340524
H  H76  1  0.92140000  0.75920000  0.29950000  0.5 0.0814686428
H  H77  1  0.99130000  0.63070000  0.65720000  0.5 0.1192025143
H  H78  1  0.91560000  0.96570000  0.29480000  0.5 0.0963340524
H  H79  1  0.77710000  0.75750000  0.35260000  0.5 0.0922659993
H  H80  1  0.84490000  0.76240000  0.26900000  0.5 0.0922659993
H  H133  1  0.85990000  0.47400000  0.72110000  0.5 0.0922659993
H  H134  1  0.84320000  0.25800000  0.62020000  0.5 0.0963340524
H  H135  1  0.92140000  0.25920000  0.70050000  0.5 0.0814686428
H  H136  1  0.99130000  0.13070000  0.34280000  0.5 0.1192025143
H  H137  1  0.91560000  0.46570000  0.70520000  0.5 0.0963340524
H  H138  1  0.77710000  0.25750000  0.64740000  0.5 0.0922659993
H  H139  1  0.84490000  0.26240000  0.73100000  0.5 0.0922659993
H  H140  1  0.14010000  0.02600000  0.72110000  0.5 0.0922659993
H  H141  1  0.15680000  0.24200000  0.62020000  0.5 0.0963340524
H  H142  1  0.07860000  0.24080000  0.70050000  0.5 0.0814686428
H  H143  1  0.00870000  0.36930000  0.34280000  0.5 0.1192025143
H  H144  1  0.08440000  0.03430000  0.70520000  0.5 0.0963340524
H  H145  1  0.22290000  0.24250000  0.64740000  0.5 0.0922659993
H  H146  1  0.15510000  0.23760000  0.73100000  0.5 0.0922659993
H  H147  1  0.35990000  0.02600000  0.22110000  0.5 0.0922659993
H  H148  1  0.34320000  0.24200000  0.12020000  0.5 0.0963340524
H  H149  1  0.42140000  0.24080000  0.20050000  0.5 0.0814686428
H  H150  1  0.49130000  0.36930000  0.84280000  0.5 0.1192025143
H  H151  1  0.41560000  0.03430000  0.20520000  0.5 0.0963340524
H  H152  1  0.27710000  0.24250000  0.14740000  0.5 0.0922659993
H  H153  1  0.34490000  0.23760000  0.23100000  0.5 0.0922659993
H  H154  1  0.64010000  0.47400000  0.22110000  0.5 0.0922659993
H  H155  1  0.65680000  0.25800000  0.12020000  0.5 0.0963340524
H  H156  1  0.57860000  0.25920000  0.20050000  0.5 0.0814686428
H  H157  1  0.50870000  0.13070000  0.84280000  0.5 0.1192025143
H  H158  1  0.58440000  0.46570000  0.20520000  0.5 0.0963340524
H  H159  1  0.72290000  0.25750000  0.14740000  0.5 0.0922659993
H  H160  1  0.65510000  0.26240000  0.23100000  0.5 0.0922659993
C  C1  1  0.56190000  0.86570000  0.72360000  1.0 0.4968296934
C  C2  1  0.60760000  0.86340000  0.77650000  1.0 -0.0887912936
C  C3  1  0.70070000  0.86280000  0.87371000  1.0 0.0963340524
C  C4  1  0.75450000  0.86430000  0.92385000  1.0 0.0361060374
C  C5  1  0.78730000  0.92830000  0.94336000  1.0 -0.1384665621
C  C6  1  0.84200000  0.93010000  0.98882000  1.0 -0.0953369689
C  C7  1  0.86300000  0.86850000  0.01508000  1.0 -0.051842868
C  C8  1  0.92490000  0.86740000  0.06310000  1.0 0.5095382381
C  C9  1  0.82220000  0.64390000  0.14350000  1.0 0.5095382381
C  C10  1  0.72600000  0.67480000  0.14300000  1.0 -0.0648163919
C  C11  1  0.71040000  0.74860000  0.13370000  1.0 -0.1247083274
C  C12  1  0.62280000  0.77680000  0.13240000  1.0 -0.1310510826
C  C13  1  0.54780000  0.73380000  0.14070000  1.0 0.0814686428
C  C14  1  0.56010000  0.66070000  0.15090000  1.0 -0.1502595813
C  C15  1  0.64980000  0.63140000  0.15170000  1.0 -0.1128908982
C  C16  1  0.82870000  0.80050000  0.99450000  1.0 -0.1310510826
C  C17  1  0.77640000  0.80000000  0.95060000  1.0 -0.1502595813
C  C18  1  0.43640000  0.09640000  0.67820000  1.0 -0.0137934805
C  C19  1  0.44300000  0.17340000  0.68160000  1.0 0.0814686428
C  C20  1  0.49430000  0.20900000  0.64321000  1.0 0.0563734408
C  C21  1  0.53260000  0.16800000  0.60275000  1.0 -0.1936785233
C  C22  1  0.52300000  0.09330000  0.60260000  1.0 0.0476994423
C  C23  1  0.38700000  0.21010000  0.72530000  1.0 -0.4725137938
C  C24  1  0.43810000  0.63430000  0.72360000  1.0 0.4968296934
C  C25  1  0.39240000  0.63660000  0.77650000  1.0 -0.0887912936
C  C26  1  0.29930000  0.63720000  0.87371000  1.0 0.0963340524
C  C27  1  0.24550000  0.63570000  0.92385000  1.0 0.0333813104
C  C28  1  0.21270000  0.57170000  0.94336000  1.0 -0.1384665621
C  C29  1  0.15800000  0.56990000  0.98882000  1.0 -0.0887912936
C  C30  1  0.13700000  0.63150000  0.01508000  1.0 -0.051842868
C  C31  1  0.07510000  0.63260000  0.06310000  1.0 0.5095382381
C  C32  1  0.17780000  0.85610000  0.14350000  1.0 0.5095382381
C  C33  1  0.27400000  0.82520000  0.14300000  1.0 -0.0648163919
C  C34  1  0.28960000  0.75140000  0.13370000  1.0 -0.1247083274
C  C35  1  0.37720000  0.72320000  0.13240000  1.0 -0.1310510826
C  C36  1  0.45220000  0.76620000  0.14070000  1.0 0.0814686428
C  C37  1  0.43990000  0.83930000  0.15090000  1.0 -0.1502595813
C  C38  1  0.35020000  0.86860000  0.15170000  1.0 -0.1128908982
C  C39  1  0.17130000  0.69950000  0.99450000  1.0 -0.1310510826
C  C40  1  0.22360000  0.70000000  0.95060000  1.0 -0.1502595813
C  C41  1  0.56360000  0.40360000  0.67820000  1.0 -0.0164106787
C  C42  1  0.55700000  0.32660000  0.68160000  1.0 0.0814686428
C  C43  1  0.50570000  0.29100000  0.64321000  1.0 0.0563734408
C  C44  1  0.46740000  0.33200000  0.60275000  1.0 -0.1936785233
C  C45  1  0.47700000  0.40670000  0.60260000  1.0 0.0476994423
C  C46  1  0.61300000  0.28990000  0.72530000  1.0 -0.4725137938
C  C47  1  0.06190000  0.63430000  0.22360000  1.0 0.4968296934
C  C48  1  0.10760000  0.63660000  0.27650000  1.0 -0.0887912936
C  C49  1  0.20070000  0.63720000  0.37371000  1.0 0.0963340524
C  C50  1  0.25450000  0.63570000  0.42385000  1.0 0.0333813104
C  C51  1  0.28730000  0.57170000  0.44336000  1.0 -0.1384665621
C  C52  1  0.34200000  0.56990000  0.48882000  1.0 -0.0953369689
C  C53  1  0.36300000  0.63150000  0.51508000  1.0 -0.051842868
C  C54  1  0.42490000  0.63260000  0.56310000  1.0 0.5095382381
C  C55  1  0.32220000  0.85610000  0.64350000  1.0 0.5095382381
C  C56  1  0.22600000  0.82520000  0.64300000  1.0 -0.0648163919
C  C57  1  0.21040000  0.75140000  0.63370000  1.0 -0.1310510826
C  C58  1  0.12280000  0.72320000  0.63240000  1.0 -0.1310510826
C  C59  1  0.04780000  0.76620000  0.64070000  1.0 0.0814686428
C  C60  1  0.06010000  0.83930000  0.65090000  1.0 -0.1502595813
C  C61  1  0.14980000  0.86860000  0.65170000  1.0 -0.1128908982
C  C62  1  0.32870000  0.69950000  0.49450000  1.0 -0.1310510826
C  C63  1  0.27640000  0.70000000  0.45060000  1.0 -0.1502595813
C  C64  1  0.93640000  0.40360000  0.17820000  1.0 -0.0164106787
C  C65  1  0.94300000  0.32660000  0.18160000  1.0 0.0814686428
C  C66  1  0.99430000  0.29100000  0.14321000  1.0 0.0563734408
C  C67  1  0.03260000  0.33200000  0.10275000  1.0 -0.1936785233
C  C68  1  0.02300000  0.40670000  0.10260000  1.0 0.0476994423
C  C69  1  0.88700000  0.28990000  0.22530000  1.0 -0.4725137938
C  C70  1  0.93810000  0.86570000  0.22360000  1.0 0.4968296934
C  C71  1  0.89240000  0.86340000  0.27650000  1.0 -0.0887912936
C  C72  1  0.79930000  0.86280000  0.37371000  1.0 0.0963340524
C  C73  1  0.74550000  0.86430000  0.42385000  1.0 0.0361060374
C  C74  1  0.71270000  0.92830000  0.44336000  1.0 -0.1384665621
C  C75  1  0.65800000  0.93010000  0.48882000  1.0 -0.0887912936
C  C76  1  0.63700000  0.86850000  0.51508000  1.0 -0.051842868
C  C77  1  0.57510000  0.86740000  0.56310000  1.0 0.5095382381
C  C78  1  0.67780000  0.64390000  0.64350000  1.0 0.5095382381
C  C79  1  0.77400000  0.67480000  0.64300000  1.0 -0.0648163919
C  C80  1  0.78960000  0.74860000  0.63370000  1.0 -0.1247083274
C  C81  1  0.87720000  0.77680000  0.63240000  1.0 -0.1310510826
C  C82  1  0.95220000  0.73380000  0.64070000  1.0 0.0814686428
C  C83  1  0.93990000  0.66070000  0.65090000  1.0 -0.1502595813
C  C84  1  0.85020000  0.63140000  0.65170000  1.0 -0.1128908982
C  C85  1  0.67130000  0.80050000  0.49450000  1.0 -0.1310510826
C  C86  1  0.72360000  0.80000000  0.45060000  1.0 -0.1502595813
C  C87  1  0.06360000  0.09640000  0.17820000  1.0 -0.0164106787
C  C88  1  0.05700000  0.17340000  0.18160000  1.0 0.0814686428
C  C89  1  0.00570000  0.20900000  0.14321000  1.0 0.0563734408
C  C90  1  0.96740000  0.16800000  0.10275000  1.0 -0.1936785233
C  C91  1  0.97700000  0.09330000  0.10260000  1.0 0.0476994423
C  C92  1  0.11300000  0.21010000  0.22530000  1.0 -0.4725137938
C  C117  1  0.93810000  0.36570000  0.77640000  1.0 0.4968296934
C  C118  1  0.89240000  0.36340000  0.72350000  1.0 -0.0887912936
C  C119  1  0.79930000  0.36280000  0.62629000  1.0 0.0963340524
C  C120  1  0.74550000  0.36430000  0.57615000  1.0 0.0361060374
C  C121  1  0.71270000  0.42830000  0.55664000  1.0 -0.1384665621
C  C122  1  0.65800000  0.43010000  0.51118000  1.0 -0.0887912936
C  C123  1  0.63700000  0.36850000  0.48492000  1.0 -0.051842868
C  C124  1  0.57510000  0.36740000  0.43690000  1.0 0.5095382381
C  C125  1  0.67780000  0.14390000  0.35650000  1.0 0.5095382381
C  C126  1  0.77400000  0.17480000  0.35700000  1.0 -0.0648163919
C  C127  1  0.78960000  0.24860000  0.36630000  1.0 -0.1247083274
C  C128  1  0.87720000  0.27680000  0.36760000  1.0 -0.1310510826
C  C129  1  0.95220000  0.23380000  0.35930000  1.0 0.0814686428
C  C130  1  0.93990000  0.16070000  0.34910000  1.0 -0.1502595813
C  C131  1  0.85020000  0.13140000  0.34830000  1.0 -0.1128908982
C  C132  1  0.67130000  0.30050000  0.50550000  1.0 -0.1310510826
C  C133  1  0.72360000  0.30000000  0.54940000  1.0 -0.1502595813
C  C134  1  0.06360000  0.59640000  0.82180000  1.0 -0.0164106787
C  C135  1  0.05700000  0.67340000  0.81840000  1.0 0.0814686428
C  C136  1  0.00570000  0.70900000  0.85679000  1.0 0.0563734408
C  C137  1  0.96740000  0.66800000  0.89725000  1.0 -0.1936785233
C  C138  1  0.97700000  0.59330000  0.89740000  1.0 0.0476994423
C  C139  1  0.11300000  0.71010000  0.77470000  1.0 -0.4725137938
C  C140  1  0.06190000  0.13430000  0.77640000  1.0 0.4968296934
C  C141  1  0.10760000  0.13660000  0.72350000  1.0 -0.0887912936
C  C142  1  0.20070000  0.13720000  0.62629000  1.0 0.0963340524
C  C143  1  0.25450000  0.13570000  0.57615000  1.0 0.0333813104
C  C144  1  0.28730000  0.07170000  0.55664000  1.0 -0.1384665621
C  C145  1  0.34200000  0.06990000  0.51118000  1.0 -0.0953369689
C  C146  1  0.36300000  0.13150000  0.48492000  1.0 -0.051842868
C  C147  1  0.42490000  0.13260000  0.43690000  1.0 0.5095382381
C  C148  1  0.32220000  0.35610000  0.35650000  1.0 0.5095382381
C  C149  1  0.22600000  0.32520000  0.35700000  1.0 -0.0648163919
C  C150  1  0.21040000  0.25140000  0.36630000  1.0 -0.1310510826
C  C151  1  0.12280000  0.22320000  0.36760000  1.0 -0.1310510826
C  C152  1  0.04780000  0.26620000  0.35930000  1.0 0.0814686428
C  C153  1  0.06010000  0.33930000  0.34910000  1.0 -0.1502595813
C  C154  1  0.14980000  0.36860000  0.34830000  1.0 -0.1128908982
C  C155  1  0.32870000  0.19950000  0.50550000  1.0 -0.1310510826
C  C156  1  0.27640000  0.20000000  0.54940000  1.0 -0.1502595813
C  C157  1  0.93640000  0.90360000  0.82180000  1.0 -0.0164106787
C  C158  1  0.94300000  0.82660000  0.81840000  1.0 0.0814686428
C  C159  1  0.99430000  0.79100000  0.85679000  1.0 0.0563734408
C  C160  1  0.03260000  0.83200000  0.89725000  1.0 -0.1936785233
C  C161  1  0.02300000  0.90670000  0.89740000  1.0 0.0476994423
C  C162  1  0.88700000  0.78990000  0.77470000  1.0 -0.4725137938
C  C163  1  0.43810000  0.13430000  0.27640000  1.0 0.4968296934
C  C164  1  0.39240000  0.13660000  0.22350000  1.0 -0.0887912936
C  C165  1  0.29930000  0.13720000  0.12629000  1.0 0.0963340524
C  C166  1  0.24550000  0.13570000  0.07615000  1.0 0.0333813104
C  C167  1  0.21270000  0.07170000  0.05664000  1.0 -0.1384665621
C  C168  1  0.15800000  0.06990000  0.01118000  1.0 -0.0887912936
C  C169  1  0.13700000  0.13150000  0.98492000  1.0 -0.051842868
C  C170  1  0.07510000  0.13260000  0.93690000  1.0 0.5095382381
C  C171  1  0.17780000  0.35610000  0.85650000  1.0 0.5095382381
C  C172  1  0.27400000  0.32520000  0.85700000  1.0 -0.0648163919
C  C173  1  0.28960000  0.25140000  0.86630000  1.0 -0.1310510826
C  C174  1  0.37720000  0.22320000  0.86760000  1.0 -0.1310510826
C  C175  1  0.45220000  0.26620000  0.85930000  1.0 0.0814686428
C  C176  1  0.43990000  0.33930000  0.84910000  1.0 -0.1502595813
C  C177  1  0.35020000  0.36860000  0.84830000  1.0 -0.1128908982
C  C178  1  0.17130000  0.19950000  0.00550000  1.0 -0.1310510826
C  C179  1  0.22360000  0.20000000  0.04940000  1.0 -0.1502595813
C  C180  1  0.56360000  0.90360000  0.32180000  1.0 -0.0164106787
C  C181  1  0.55700000  0.82660000  0.31840000  1.0 0.0814686428
C  C182  1  0.50570000  0.79100000  0.35679000  1.0 0.0563734408
C  C183  1  0.46740000  0.83200000  0.39725000  1.0 -0.1936785233
C  C184  1  0.47700000  0.90670000  0.39740000  1.0 0.0476994423
C  C185  1  0.61300000  0.78990000  0.27470000  1.0 -0.4725137938
C  C186  1  0.56190000  0.36570000  0.27640000  1.0 0.4968296934
C  C187  1  0.60760000  0.36340000  0.22350000  1.0 -0.0887912936
C  C188  1  0.70070000  0.36280000  0.12629000  1.0 0.0922659993
C  C189  1  0.75450000  0.36430000  0.07615000  1.0 0.0361060374
C  C190  1  0.78730000  0.42830000  0.05664000  1.0 -0.1384665621
C  C191  1  0.84200000  0.43010000  0.01118000  1.0 -0.0953369689
C  C192  1  0.86300000  0.36850000  0.98492000  1.0 -0.051842868
C  C193  1  0.92490000  0.36740000  0.93690000  1.0 0.5095382381
C  C194  1  0.82220000  0.14390000  0.85650000  1.0 0.5095382381
C  C195  1  0.72600000  0.17480000  0.85700000  1.0 -0.0648163919
C  C196  1  0.71040000  0.24860000  0.86630000  1.0 -0.1310510826
C  C197  1  0.62280000  0.27680000  0.86760000  1.0 -0.1310510826
C  C198  1  0.54780000  0.23380000  0.85930000  1.0 0.0814686428
C  C199  1  0.56010000  0.16070000  0.84910000  1.0 -0.1502595813
C  C200  1  0.64980000  0.13140000  0.84830000  1.0 -0.1128908982
C  C201  1  0.82870000  0.30050000  0.00550000  1.0 -0.1310510826
C  C202  1  0.77640000  0.30000000  0.04940000  1.0 -0.1502595813
C  C203  1  0.43640000  0.59640000  0.32180000  1.0 -0.0137934805
C  C204  1  0.44300000  0.67340000  0.31840000  1.0 0.0814686428
C  C205  1  0.49430000  0.70900000  0.35679000  1.0 0.0563734408
C  C206  1  0.53260000  0.66800000  0.39725000  1.0 -0.1936785233
C  C207  1  0.52300000  0.59330000  0.39740000  1.0 0.0476994423
C  C208  1  0.38700000  0.71010000  0.27470000  1.0 -0.4725137938
C  C93  1  0.64650000  0.92970000  0.79700000  0.5 0.0361060374
C  C94  1  0.65610000  0.79990000  0.85860000  0.5 -0.0794889246
C  C95  1  0.60990000  0.80140000  0.81030000  0.5 -0.051842868
C  C96  1  0.61240000  0.92300000  0.80730000  0.5 0.0095076816
C  C97  1  0.69610000  0.80130000  0.84100000  0.5 -0.051842868
C  C98  1  0.65260000  0.80310000  0.79140000  0.5 -0.051842868
C  C99  1  0.35350000  0.57030000  0.79700000  0.5 0.0361060374
C  C100  1  0.34390000  0.70010000  0.85860000  0.5 -0.0794889246
C  C101  1  0.39010000  0.69860000  0.81030000  0.5 -0.051842868
C  C102  1  0.38760000  0.57700000  0.80730000  0.5 0.0095076816
C  C103  1  0.30390000  0.69870000  0.84100000  0.5 -0.051842868
C  C104  1  0.34740000  0.69690000  0.79140000  0.5 -0.051842868
C  C105  1  0.14650000  0.57030000  0.29700000  0.5 0.0361060374
C  C106  1  0.15610000  0.70010000  0.35860000  0.5 -0.0794889246
C  C107  1  0.10990000  0.69860000  0.31030000  0.5 -0.051842868
C  C108  1  0.11240000  0.57700000  0.30730000  0.5 0.0095076816
C  C109  1  0.19610000  0.69870000  0.34100000  0.5 -0.051842868
C  C110  1  0.15260000  0.69690000  0.29140000  0.5 -0.051842868
C  C111  1  0.85350000  0.92970000  0.29700000  0.5 0.0361060374
C  C112  1  0.84390000  0.79990000  0.35860000  0.5 -0.0794889246
C  C113  1  0.89010000  0.80140000  0.31030000  0.5 -0.051842868
C  C114  1  0.88760000  0.92300000  0.30730000  0.5 0.0095076816
C  C115  1  0.80390000  0.80130000  0.34100000  0.5 -0.051842868
C  C116  1  0.84740000  0.80310000  0.29140000  0.5 -0.051842868
C  C209  1  0.85350000  0.42970000  0.70300000  0.5 0.0361060374
C  C210  1  0.84390000  0.29990000  0.64140000  0.5 -0.0794889246
C  C211  1  0.89010000  0.30140000  0.68970000  0.5 -0.051842868
C  C212  1  0.88760000  0.42300000  0.69270000  0.5 0.0095076816
C  C213  1  0.80390000  0.30130000  0.65900000  0.5 -0.051842868
C  C214  1  0.84740000  0.30310000  0.70860000  0.5 -0.051842868
C  C215  1  0.14650000  0.07030000  0.70300000  0.5 0.0361060374
C  C216  1  0.15610000  0.20010000  0.64140000  0.5 -0.0794889246
C  C217  1  0.10990000  0.19860000  0.68970000  0.5 -0.051842868
C  C218  1  0.11240000  0.07700000  0.69270000  0.5 0.0095076816
C  C219  1  0.19610000  0.19870000  0.65900000  0.5 -0.051842868
C  C220  1  0.15260000  0.19690000  0.70860000  0.5 -0.051842868
C  C221  1  0.35350000  0.07030000  0.20300000  0.5 0.0361060374
C  C222  1  0.34390000  0.20010000  0.14140000  0.5 -0.0794889246
C  C223  1  0.39010000  0.19860000  0.18970000  0.5 -0.051842868
C  C224  1  0.38760000  0.07700000  0.19270000  0.5 0.0095076816
C  C225  1  0.30390000  0.19870000  0.15900000  0.5 -0.051842868
C  C226  1  0.34740000  0.19690000  0.20860000  0.5 -0.051842868
C  C227  1  0.64650000  0.42970000  0.20300000  0.5 0.0361060374
C  C228  1  0.65610000  0.29990000  0.14140000  0.5 -0.0794889246
C  C229  1  0.60990000  0.30140000  0.18970000  0.5 -0.051842868
C  C230  1  0.61240000  0.42300000  0.19270000  0.5 0.0095076816
C  C231  1  0.69610000  0.30130000  0.15900000  0.5 -0.051842868
C  C232  1  0.65260000  0.30310000  0.20860000  0.5 -0.051842868
N  N1  1  0.47490000  0.05640000  0.64013000  1.0 -0.2495608193
N  N2  1  0.52510000  0.44360000  0.64013000  1.0 -0.2495608193
N  N3  1  0.97490000  0.44360000  0.14013000  1.0 -0.2495608193
N  N4  1  0.02510000  0.05640000  0.14013000  1.0 -0.2495608193
N  N13  1  0.02510000  0.55640000  0.85987000  1.0 -0.2495608193
N  N14  1  0.97490000  0.94360000  0.85987000  1.0 -0.2495608193
N  N15  1  0.52510000  0.94360000  0.35987000  1.0 -0.2495608193
N  N16  1  0.47490000  0.55640000  0.35987000  1.0 -0.2495608193
N  N5  1  0.69540000  0.92570000  0.84640000  0.5 -0.0732268383
N  N6  1  0.65590000  0.92610000  0.85640000  0.5 -0.0794889246
N  N7  1  0.30460000  0.57430000  0.84640000  0.5 -0.0732268383
N  N8  1  0.34410000  0.57390000  0.85640000  0.5 -0.0794889246
N  N9  1  0.19540000  0.57430000  0.34640000  0.5 -0.0732268383
N  N10  1  0.15590000  0.57390000  0.35640000  0.5 -0.0794889246
N  N11  1  0.80460000  0.92570000  0.34640000  0.5 -0.0732268383
N  N12  1  0.84410000  0.92610000  0.35640000  0.5 -0.0794889246
N  N17  1  0.80460000  0.42570000  0.65360000  0.5 -0.0732268383
N  N18  1  0.84410000  0.42610000  0.64360000  0.5 -0.0794889246
N  N19  1  0.19540000  0.07430000  0.65360000  0.5 -0.0732268383
N  N20  1  0.15590000  0.07390000  0.64360000  0.5 -0.0794889246
N  N21  1  0.30460000  0.07430000  0.15360000  0.5 -0.0732268383
N  N22  1  0.34410000  0.07390000  0.14360000  0.5 -0.0794889246
N  N23  1  0.69540000  0.42570000  0.15360000  0.5 -0.0732268383
N  N24  1  0.65590000  0.42610000  0.14360000  0.5 -0.0794889246
O  O1  1  0.53240000  0.92560000  0.70761000  1.0 -0.4971152454
O  O2  1  0.83298000  0.57782000  0.14598000  1.0 -0.4608393115
O  O3  1  0.95800000  0.92764000  0.07741000  1.0 -0.506881211
O  O4  1  0.46760000  0.57440000  0.70761000  1.0 -0.4971152454
O  O5  1  0.16702000  0.92218000  0.14598000  1.0 -0.4608393115
O  O6  1  0.04200000  0.57236000  0.07741000  1.0 -0.506881211
O  O7  1  0.03240000  0.57440000  0.20761000  1.0 -0.4945067716
O  O8  1  0.33298000  0.92218000  0.64598000  1.0 -0.4608393115
O  O9  1  0.45800000  0.57236000  0.57741000  1.0 -0.506881211
O  O10  1  0.96760000  0.92560000  0.20761000  1.0 -0.4971152454
O  O11  1  0.66702000  0.57782000  0.64598000  1.0 -0.4608393115
O  O12  1  0.54200000  0.92764000  0.57741000  1.0 -0.506881211
O  O37  1  0.96760000  0.42560000  0.79239000  1.0 -0.4971152454
O  O38  1  0.66702000  0.07782000  0.35402000  1.0 -0.4608393115
O  O39  1  0.54200000  0.42764000  0.42259000  1.0 -0.506881211
O  O40  1  0.03240000  0.07440000  0.79239000  1.0 -0.4945067716
O  O41  1  0.33298000  0.42218000  0.35402000  1.0 -0.4608393115
O  O42  1  0.45800000  0.07236000  0.42259000  1.0 -0.506881211
O  O43  1  0.46760000  0.07440000  0.29239000  1.0 -0.4971152454
O  O44  1  0.16702000  0.42218000  0.85402000  1.0 -0.4608393115
O  O45  1  0.04200000  0.07236000  0.92259000  1.0 -0.4971152454
O  O46  1  0.53240000  0.42560000  0.29239000  1.0 -0.4971152454
O  O47  1  0.83298000  0.07782000  0.85402000  1.0 -0.4608393115
O  O48  1  0.95800000  0.42764000  0.92259000  1.0 -0.506881211
O  O13  1  0.58840000  0.81700000  0.68800000  0.5 -0.2435251724
O  O14  1  0.97150000  0.80660000  0.07250000  0.5 -0.1987380617
O  O15  1  0.88620000  0.68030000  0.12020000  0.5 -0.1701187146
O  O16  1  0.51590000  0.80320000  0.71240000  0.5 -0.2238501263
O  O17  1  0.88610000  0.68750000  0.16080000  0.5 -0.2495608193
O  O18  1  0.91240000  0.81430000  0.09670000  0.5 -0.2070079771
O  O19  1  0.41160000  0.68300000  0.68800000  0.5 -0.2495608193
O  O20  1  0.02850000  0.69340000  0.07250000  0.5 -0.1987380617
O  O21  1  0.11380000  0.81970000  0.12020000  0.5 -0.1701187146
O  O22  1  0.48410000  0.69680000  0.71240000  0.5 -0.2238501263
O  O23  1  0.11390000  0.81250000  0.16080000  0.5 -0.2495608193
O  O24  1  0.08760000  0.68570000  0.09670000  0.5 -0.2070079771
O  O25  1  0.08840000  0.68300000  0.18800000  0.5 -0.2495608193
O  O26  1  0.47150000  0.69340000  0.57250000  0.5 -0.1987380617
O  O27  1  0.38620000  0.81970000  0.62020000  0.5 -0.1701187146
O  O28  1  0.01590000  0.69680000  0.21240000  0.5 -0.2238501263
O  O29  1  0.38610000  0.81250000  0.66080000  0.5 -0.2495608193
O  O30  1  0.41240000  0.68570000  0.59670000  0.5 -0.2070079771
O  O31  1  0.91160000  0.81700000  0.18800000  0.5 -0.2495608193
O  O32  1  0.52850000  0.80660000  0.57250000  0.5 -0.1987380617
O  O33  1  0.61380000  0.68030000  0.62020000  0.5 -0.1701187146
O  O34  1  0.98410000  0.80320000  0.21240000  0.5 -0.2238501263
O  O35  1  0.61390000  0.68750000  0.66080000  0.5 -0.2495608193
O  O36  1  0.58760000  0.81430000  0.59670000  0.5 -0.2070079771
O  O49  1  0.91160000  0.31700000  0.81200000  0.5 -0.2435251724
O  O50  1  0.52850000  0.30660000  0.42750000  0.5 -0.1987380617
O  O51  1  0.61380000  0.18030000  0.37980000  0.5 -0.1701187146
O  O52  1  0.98410000  0.30320000  0.78760000  0.5 -0.2238501263
O  O53  1  0.61390000  0.18750000  0.33920000  0.5 -0.2495608193
O  O54  1  0.58760000  0.31430000  0.40330000  0.5 -0.2070079771
O  O55  1  0.08840000  0.18300000  0.81200000  0.5 -0.2435251724
O  O56  1  0.47150000  0.19340000  0.42750000  0.5 -0.1987380617
O  O57  1  0.38620000  0.31970000  0.37980000  0.5 -0.1701187146
O  O58  1  0.01590000  0.19680000  0.78760000  0.5 -0.2238501263
O  O59  1  0.38610000  0.31250000  0.33920000  0.5 -0.2495608193
O  O60  1  0.41240000  0.18570000  0.40330000  0.5 -0.2070079771
O  O61  1  0.41160000  0.18300000  0.31200000  0.5 -0.2495608193
O  O62  1  0.02850000  0.19340000  0.92750000  0.5 -0.1987380617
O  O63  1  0.11380000  0.31970000  0.87980000  0.5 -0.1701187146
O  O64  1  0.48410000  0.19680000  0.28760000  0.5 -0.2238501263
O  O65  1  0.11390000  0.31250000  0.83920000  0.5 -0.2495608193
O  O66  1  0.08760000  0.18570000  0.90330000  0.5 -0.2070079771
O  O67  1  0.58840000  0.31700000  0.31200000  0.5 -0.2435251724
O  O68  1  0.97150000  0.30660000  0.92750000  0.5 -0.1987380617
O  O69  1  0.88620000  0.18030000  0.87980000  0.5 -0.1701187146
O  O70  1  0.51590000  0.30320000  0.28760000  0.5 -0.2238501263
O  O71  1  0.88610000  0.18750000  0.83920000  0.5 -0.2495608193
O  O72  1  0.91240000  0.31430000  0.90330000  0.5 -0.2070079771
