# generated by PACMAN-DDEC6 charge (https://github.com/sxm13/PACMAN/)
data_structure
_chemical_formula_sum              "Al16 H160 C240 N16 O64"
_cell_length_a       19.4481
_cell_length_b       19.4481
_cell_length_c       35.7074
_cell_angle_alpha    90
_cell_angle_beta     90
_cell_angle_gamma    90

_symmetry_space_group_name_H-M    "P 1"
_symmetry_Int_Tables_number       1

loop_
  _symmetry_equiv_pos_as_xyz
  'x, y, z'

loop_
  _atom_site_type_symbol
  _atom_site_label
  _atom_site_symmetry_multiplicity
  _atom_site_fract_x
  _atom_site_fract_y
  _atom_site_fract_z
  _atom_site_occupancy
  _atom_site_charge
Al  Al1       1.0  0.89161  0.11591  0.08193  1.0000 1.5179527687
Al  Al2       1.0  0.10839  0.88409  0.08193  1.0000 1.5179527687
Al  Al3       1.0  0.38409  0.39161  0.58193  1.0000 1.5179527687
Al  Al4       1.0  0.61591  0.60839  0.58193  1.0000 1.5179527687
Al  Al5       1.0  0.60839  0.61591  0.41807  1.0000 1.5179527687
Al  Al6       1.0  0.39161  0.38409  0.41807  1.0000 1.5179527687
Al  Al7       1.0  0.11591  0.89161  0.91807  1.0000 1.5179527687
Al  Al8       1.0  0.88409  0.10839  0.91807  1.0000 1.5179527687
Al  Al9       1.0  0.83894  0.16106  0.00000  1.0000 1.4083392011
Al  Al10      1.0  0.16106  0.83894  0.00000  1.0000 1.4083392011
Al  Al11      1.0  0.33894  0.33894  0.50000  1.0000 1.4083392011
Al  Al12      1.0  0.66106  0.66106  0.50000  1.0000 1.4083392011
Al  Al13      1.0  0.00000  0.00000  0.11516  1.0000 1.6369918572
Al  Al14      1.0  0.50000  0.50000  0.61516  1.0000 1.6369918572
Al  Al15      1.0  0.50000  0.50000  0.38484  1.0000 1.6369918572
Al  Al16      1.0  0.00000  0.00000  0.88484  1.0000 1.6369918572
H   H1        1.0  0.86458  0.04743  0.02658  1.0000 0.406793012
H   H2        1.0  0.99804  0.06856  0.05833  1.0000 0.406793012
H   H3        1.0  0.44403  0.15857  0.10757  1.0000 0.1111964435
H   H4        1.0  0.62535  0.19429  0.16847  1.0000 0.1111964435
H   H5        1.0  0.38444  0.21604  0.26294  1.0000 0.1111964435
H   H6        1.0  0.53839  0.27272  0.18588  1.0000 0.1111964435
H   H7        1.0  0.24900  0.21242  0.15354  1.0000 0.1111964435
H   H8        1.0  0.15384  0.14633  0.13878  1.0000 0.1282536117
H   H9        1.0  0.63589  0.21278  0.03898  1.0000 0.1282536117
H   H10       1.0  0.34019  0.22169  0.19897  1.0000 0.1111964435
H   H11       1.0  0.72989  0.18181  0.13750  1.0000 0.1282536117
H   H12       1.0  0.38304  0.26927  0.32049  1.0000 0.1282536117
H   H13       1.0  0.49696  0.37107  0.22062  1.0000 0.1111964435
H   H14       1.0  0.49801  0.42307  0.27888  1.0000 0.1282536117
H   H15       1.0  0.27882  0.99729  0.10298  1.0000 0.1282536117
H   H16       1.0  0.53167  0.22662  0.06932  1.0000 0.1111964435
H   H17       1.0  0.37307  0.06304  0.11906  1.0000 0.1111964435
H   H18       1.0  0.13542  0.95257  0.02658  1.0000 0.406793012
H   H19       1.0  0.00196  0.93144  0.05833  1.0000 0.406793012
H   H20       1.0  0.55597  0.84143  0.10757  1.0000 0.1111964435
H   H21       1.0  0.37465  0.80571  0.16847  1.0000 0.1111964435
H   H22       1.0  0.61556  0.78396  0.26294  1.0000 0.1111964435
H   H23       1.0  0.46161  0.72728  0.18588  1.0000 0.1111964435
H   H24       1.0  0.75100  0.78758  0.15354  1.0000 0.1111964435
H   H25       1.0  0.84616  0.85367  0.13878  1.0000 0.1282536117
H   H26       1.0  0.36411  0.78722  0.03898  1.0000 0.1282536117
H   H27       1.0  0.65981  0.77831  0.19897  1.0000 0.1111964435
H   H28       1.0  0.27011  0.81819  0.13750  1.0000 0.1282536117
H   H29       1.0  0.61696  0.73073  0.32049  1.0000 0.1282536117
H   H30       1.0  0.50304  0.62893  0.22062  1.0000 0.1111964435
H   H31       1.0  0.50199  0.57693  0.27888  1.0000 0.1282536117
H   H32       1.0  0.72118  0.00271  0.10298  1.0000 0.1282536117
H   H33       1.0  0.46833  0.77338  0.06932  1.0000 0.1111964435
H   H34       1.0  0.62693  0.93696  0.11906  1.0000 0.1111964435
H   H35       1.0  0.45257  0.36458  0.52658  1.0000 0.406793012
H   H36       1.0  0.43144  0.49804  0.55833  1.0000 0.406793012
H   H37       1.0  0.34143  0.94403  0.60757  1.0000 0.1111964435
H   H38       1.0  0.30571  0.12535  0.66847  1.0000 0.1111964435
H   H39       1.0  0.28396  0.88444  0.76294  1.0000 0.1111964435
H   H40       1.0  0.22728  0.03839  0.68588  1.0000 0.1111964435
H   H41       1.0  0.28758  0.74900  0.65354  1.0000 0.1111964435
H   H42       1.0  0.35367  0.65384  0.63878  1.0000 0.1282536117
H   H43       1.0  0.28722  0.13589  0.53898  1.0000 0.1282536117
H   H44       1.0  0.27831  0.84019  0.69897  1.0000 0.1111964435
H   H45       1.0  0.31819  0.22989  0.63750  1.0000 0.1282536117
H   H46       1.0  0.23073  0.88304  0.82049  1.0000 0.1282536117
H   H47       1.0  0.12893  0.99696  0.72062  1.0000 0.1111964435
H   H48       1.0  0.07693  0.99801  0.77888  1.0000 0.1282536117
H   H49       1.0  0.50271  0.77882  0.60298  1.0000 0.1282536117
H   H50       1.0  0.27338  0.03167  0.56932  1.0000 0.1111964435
H   H51       1.0  0.43696  0.87307  0.61906  1.0000 0.1111964435
H   H52       1.0  0.54743  0.63542  0.52658  1.0000 0.406793012
H   H53       1.0  0.56856  0.50196  0.55833  1.0000 0.406793012
H   H54       1.0  0.65857  0.05597  0.60757  1.0000 0.1111964435
H   H55       1.0  0.69429  0.87465  0.66847  1.0000 0.1111964435
H   H56       1.0  0.71604  0.11556  0.76294  1.0000 0.1111964435
H   H57       1.0  0.77272  0.96161  0.68588  1.0000 0.1111964435
H   H58       1.0  0.71242  0.25100  0.65354  1.0000 0.1111964435
H   H59       1.0  0.64633  0.34616  0.63878  1.0000 0.1282536117
H   H60       1.0  0.71278  0.86411  0.53898  1.0000 0.1282536117
H   H61       1.0  0.72169  0.15981  0.69897  1.0000 0.1111964435
H   H62       1.0  0.68181  0.77011  0.63750  1.0000 0.1282536117
H   H63       1.0  0.76927  0.11696  0.82049  1.0000 0.1282536117
H   H64       1.0  0.87107  0.00304  0.72062  1.0000 0.1111964435
H   H65       1.0  0.92307  0.00199  0.77888  1.0000 0.1282536117
H   H66       1.0  0.49729  0.22118  0.60298  1.0000 0.1282536117
H   H67       1.0  0.72662  0.96833  0.56932  1.0000 0.1111964435
H   H68       1.0  0.56304  0.12693  0.61906  1.0000 0.1111964435
H   H69       1.0  0.63542  0.54743  0.47342  1.0000 0.406793012
H   H70       1.0  0.50196  0.56856  0.44167  1.0000 0.406793012
H   H71       1.0  0.05597  0.65857  0.39243  1.0000 0.1111964435
H   H72       1.0  0.87465  0.69429  0.33153  1.0000 0.1111964435
H   H73       1.0  0.11556  0.71604  0.23706  1.0000 0.1111964435
H   H74       1.0  0.96161  0.77272  0.31412  1.0000 0.1111964435
H   H75       1.0  0.25100  0.71242  0.34646  1.0000 0.1111964435
H   H76       1.0  0.34616  0.64633  0.36122  1.0000 0.1282536117
H   H77       1.0  0.86411  0.71278  0.46102  1.0000 0.1282536117
H   H78       1.0  0.15981  0.72169  0.30103  1.0000 0.1111964435
H   H79       1.0  0.77011  0.68181  0.36250  1.0000 0.1282536117
H   H80       1.0  0.11696  0.76927  0.17951  1.0000 0.1282536117
H   H81       1.0  0.00304  0.87107  0.27938  1.0000 0.1111964435
H   H82       1.0  0.00199  0.92307  0.22112  1.0000 0.1282536117
H   H83       1.0  0.22118  0.49729  0.39702  1.0000 0.1282536117
H   H84       1.0  0.96833  0.72662  0.43068  1.0000 0.1111964435
H   H85       1.0  0.12693  0.56304  0.38094  1.0000 0.1111964435
H   H86       1.0  0.36458  0.45257  0.47342  1.0000 0.406793012
H   H87       1.0  0.49804  0.43144  0.44167  1.0000 0.406793012
H   H88       1.0  0.94403  0.34143  0.39243  1.0000 0.1111964435
H   H89       1.0  0.12535  0.30571  0.33153  1.0000 0.1111964435
H   H90       1.0  0.88444  0.28396  0.23706  1.0000 0.1111964435
H   H91       1.0  0.03839  0.22728  0.31412  1.0000 0.1111964435
H   H92       1.0  0.74900  0.28758  0.34646  1.0000 0.1111964435
H   H93       1.0  0.65384  0.35367  0.36122  1.0000 0.1282536117
H   H94       1.0  0.13589  0.28722  0.46102  1.0000 0.1282536117
H   H95       1.0  0.84019  0.27831  0.30103  1.0000 0.1111964435
H   H96       1.0  0.22989  0.31819  0.36250  1.0000 0.1282536117
H   H97       1.0  0.88304  0.23073  0.17951  1.0000 0.1282536117
H   H98       1.0  0.99696  0.12893  0.27938  1.0000 0.1111964435
H   H99       1.0  0.99801  0.07693  0.22112  1.0000 0.1282536117
H   H100      1.0  0.77882  0.50271  0.39702  1.0000 0.1282536117
H   H101      1.0  0.03167  0.27338  0.43068  1.0000 0.1111964435
H   H102      1.0  0.87307  0.43696  0.38094  1.0000 0.1111964435
H   H103      1.0  0.04743  0.86458  0.97342  1.0000 0.406793012
H   H104      1.0  0.06856  0.99804  0.94167  1.0000 0.406793012
H   H105      1.0  0.15857  0.44403  0.89243  1.0000 0.1111964435
H   H106      1.0  0.19429  0.62535  0.83153  1.0000 0.1111964435
H   H107      1.0  0.21604  0.38444  0.73706  1.0000 0.1111964435
H   H108      1.0  0.27272  0.53839  0.81412  1.0000 0.1111964435
H   H109      1.0  0.21242  0.24900  0.84646  1.0000 0.1111964435
H   H110      1.0  0.14633  0.15384  0.86122  1.0000 0.1282536117
H   H111      1.0  0.21278  0.63589  0.96102  1.0000 0.1282536117
H   H112      1.0  0.22169  0.34019  0.80103  1.0000 0.1111964435
H   H113      1.0  0.18181  0.72989  0.86250  1.0000 0.1282536117
H   H114      1.0  0.26927  0.38304  0.67951  1.0000 0.1282536117
H   H115      1.0  0.37107  0.49696  0.77938  1.0000 0.1111964435
H   H116      1.0  0.42307  0.49801  0.72112  1.0000 0.1282536117
H   H117      1.0  0.99729  0.27882  0.89702  1.0000 0.1282536117
H   H118      1.0  0.22662  0.53167  0.93068  1.0000 0.1111964435
H   H119      1.0  0.06304  0.37307  0.88094  1.0000 0.1111964435
H   H120      1.0  0.95257  0.13542  0.97342  1.0000 0.406793012
H   H121      1.0  0.93144  0.00196  0.94167  1.0000 0.406793012
H   H122      1.0  0.84143  0.55597  0.89243  1.0000 0.1111964435
H   H123      1.0  0.80571  0.37465  0.83153  1.0000 0.1111964435
H   H124      1.0  0.78396  0.61556  0.73706  1.0000 0.1111964435
H   H125      1.0  0.72728  0.46161  0.81412  1.0000 0.1111964435
H   H126      1.0  0.78758  0.75100  0.84646  1.0000 0.1111964435
H   H127      1.0  0.85367  0.84616  0.86122  1.0000 0.1282536117
H   H128      1.0  0.78722  0.36411  0.96102  1.0000 0.1282536117
H   H129      1.0  0.77831  0.65981  0.80103  1.0000 0.1111964435
H   H130      1.0  0.81819  0.27011  0.86250  1.0000 0.1282536117
H   H131      1.0  0.73073  0.61696  0.67951  1.0000 0.1282536117
H   H132      1.0  0.62893  0.50304  0.77938  1.0000 0.1111964435
H   H133      1.0  0.57693  0.50199  0.72112  1.0000 0.1282536117
H   H134      1.0  0.00271  0.72118  0.89702  1.0000 0.1282536117
H   H135      1.0  0.77338  0.46833  0.93068  1.0000 0.1111964435
H   H136      1.0  0.93696  0.62693  0.88094  1.0000 0.1111964435
H   H137      1.0  0.92264  0.30953  0.99899  0.9400 0.1201262844
H   H138      1.0  0.00014  0.34406  0.04909  0.9400 0.1282536117
H   H139      1.0  0.00116  0.24579  0.09457  0.9400 0.1201262844
H   H140      1.0  0.07736  0.69047  0.99899  0.9400 0.1201262844
H   H141      1.0  0.99986  0.65594  0.04909  0.9400 0.1282536117
H   H142      1.0  0.99884  0.75421  0.09457  0.9400 0.1201262844
H   H143      1.0  0.19047  0.42264  0.49899  0.9400 0.1201262844
H   H144      1.0  0.15594  0.50014  0.54909  0.9400 0.1282536117
H   H145      1.0  0.25421  0.50116  0.59457  0.9400 0.1201262844
H   H146      1.0  0.80953  0.57736  0.49899  0.9400 0.1201262844
H   H147      1.0  0.84406  0.49986  0.54909  0.9400 0.1282536117
H   H148      1.0  0.74579  0.49884  0.59457  0.9400 0.1201262844
H   H149      1.0  0.57736  0.80953  0.50101  0.9400 0.1201262844
H   H150      1.0  0.49986  0.84406  0.45091  0.9400 0.1282536117
H   H151      1.0  0.49884  0.74579  0.40543  0.9400 0.1201262844
H   H152      1.0  0.42264  0.19047  0.50101  0.9400 0.1201262844
H   H153      1.0  0.50014  0.15594  0.45091  0.9400 0.1282536117
H   H154      1.0  0.50116  0.25421  0.40543  0.9400 0.1201262844
H   H155      1.0  0.30953  0.92264  0.00101  0.9400 0.1201262844
H   H156      1.0  0.34406  0.00014  0.95091  0.9400 0.1282536117
H   H157      1.0  0.24579  0.00116  0.90543  0.9400 0.1201262844
H   H158      1.0  0.69047  0.07736  0.00101  0.9400 0.1201262844
H   H159      1.0  0.65594  0.99986  0.95091  0.9400 0.1282536117
H   H160      1.0  0.75421  0.99884  0.90543  0.9400 0.1201262844
C   C1        1.0  0.76040  0.18109  0.06673  1.0000 0.6092712568
C   C2        1.0  0.44347  0.38360  0.34281  1.0000 0.6176476764
C   C3        1.0  0.44149  0.35090  0.30537  1.0000 -0.0571047006
C   C4        1.0  0.69291  0.19380  0.08563  1.0000 -0.042073897
C   C5        1.0  0.44270  0.18360  0.13040  1.0000 -0.2077329824
C   C6        1.0  0.50180  0.21700  0.14259  1.0000 0.0719997478
C   C7        1.0  0.14671  0.02044  0.11314  1.0000 0.6176476764
C   C8        1.0  0.43930  0.25400  0.19806  1.0000 0.0719997478
C   C9        1.0  0.32065  0.14470  0.13855  1.0000 0.0784630527
C   C10       1.0  0.62690  0.19780  0.14194  1.0000 -0.1507762531
C   C11       1.0  0.40680  0.25910  0.26588  1.0000 -0.1507762531
C   C12       1.0  0.49820  0.25070  0.17673  1.0000 -0.2077329824
C   C13       1.0  0.56634  0.21080  0.12196  1.0000 0.0719997478
C   C14       1.0  0.25570  0.16760  0.14365  1.0000 -0.1507762531
C   C15       1.0  0.19860  0.12820  0.13501  1.0000 -0.0905334757
C   C16       1.0  0.63367  0.20840  0.06545  1.0000 -0.1093731963
C   C17       1.0  0.38127  0.22070  0.18458  1.0000 -0.2077329824
C   C18       1.0  0.68920  0.19000  0.12342  1.0000 -0.0988730096
C   C19       1.0  0.40690  0.28990  0.30018  1.0000 -0.0988730096
C   C20       1.0  0.47330  0.34990  0.24086  1.0000 -0.1507762531
C   C21       1.0  0.47430  0.38080  0.27557  1.0000 -0.0988730096
C   C22       1.0  0.27209  0.04100  0.11425  1.0000 -0.0905334757
C   C23       1.0  0.57170  0.21670  0.08359  1.0000 -0.1507762531
C   C24       1.0  0.43886  0.28940  0.23488  1.0000 0.0784630527
C   C25       1.0  0.38162  0.18580  0.15059  1.0000 0.0784630527
C   C26       1.0  0.20648  0.06370  0.12117  1.0000 -0.0652682137
C   C27       1.0  0.32820  0.08060  0.12338  1.0000 -0.1507762531
C   C28       1.0  0.23960  0.81891  0.06673  1.0000 0.6092712568
C   C29       1.0  0.55653  0.61640  0.34281  1.0000 0.6176476764
C   C30       1.0  0.55851  0.64910  0.30537  1.0000 -0.0571047006
C   C31       1.0  0.30709  0.80620  0.08563  1.0000 -0.042073897
C   C32       1.0  0.55730  0.81640  0.13040  1.0000 -0.2077329824
C   C33       1.0  0.49820  0.78300  0.14259  1.0000 0.0719997478
C   C34       1.0  0.85329  0.97956  0.11314  1.0000 0.6176476764
C   C35       1.0  0.56070  0.74600  0.19806  1.0000 0.0719997478
C   C36       1.0  0.67935  0.85530  0.13855  1.0000 0.0784630527
C   C37       1.0  0.37310  0.80220  0.14194  1.0000 -0.1507762531
C   C38       1.0  0.59320  0.74090  0.26588  1.0000 -0.1507762531
C   C39       1.0  0.50180  0.74930  0.17673  1.0000 -0.2077329824
C   C40       1.0  0.43366  0.78920  0.12196  1.0000 0.0719997478
C   C41       1.0  0.74430  0.83240  0.14365  1.0000 -0.1507762531
C   C42       1.0  0.80140  0.87180  0.13501  1.0000 -0.0905334757
C   C43       1.0  0.36633  0.79160  0.06545  1.0000 -0.1093731963
C   C44       1.0  0.61873  0.77930  0.18458  1.0000 -0.2077329824
C   C45       1.0  0.31080  0.81000  0.12342  1.0000 -0.0988730096
C   C46       1.0  0.59310  0.71010  0.30018  1.0000 -0.0988730096
C   C47       1.0  0.52670  0.65010  0.24086  1.0000 -0.1507762531
C   C48       1.0  0.52570  0.61920  0.27557  1.0000 -0.0988730096
C   C49       1.0  0.72791  0.95900  0.11425  1.0000 -0.0905334757
C   C50       1.0  0.42830  0.78330  0.08359  1.0000 -0.1507762531
C   C51       1.0  0.56114  0.71060  0.23488  1.0000 0.0784630527
C   C52       1.0  0.61838  0.81420  0.15059  1.0000 0.0784630527
C   C53       1.0  0.79352  0.93630  0.12117  1.0000 -0.0652682137
C   C54       1.0  0.67180  0.91940  0.12338  1.0000 -0.1507762531
C   C55       1.0  0.31891  0.26040  0.56673  1.0000 0.6092712568
C   C56       1.0  0.11640  0.94347  0.84281  1.0000 0.6176476764
C   C57       1.0  0.14910  0.94149  0.80537  1.0000 -0.0571047006
C   C58       1.0  0.30620  0.19291  0.58563  1.0000 -0.042073897
C   C59       1.0  0.31640  0.94270  0.63040  1.0000 -0.2077329824
C   C60       1.0  0.28300  0.00180  0.64259  1.0000 0.0719997478
C   C61       1.0  0.47956  0.64671  0.61314  1.0000 0.6176476764
C   C62       1.0  0.24600  0.93930  0.69806  1.0000 0.0784630527
C   C63       1.0  0.35530  0.82065  0.63855  1.0000 0.0784630527
C   C64       1.0  0.30220  0.12690  0.64194  1.0000 -0.1507762531
C   C65       1.0  0.24090  0.90680  0.76588  1.0000 -0.1507762531
C   C66       1.0  0.24930  0.99820  0.67673  1.0000 -0.2077329824
C   C67       1.0  0.28920  0.06634  0.62196  1.0000 0.0719997478
C   C68       1.0  0.33240  0.75570  0.64365  1.0000 -0.1507762531
C   C69       1.0  0.37180  0.69860  0.63501  1.0000 -0.0905334757
C   C70       1.0  0.29160  0.13367  0.56545  1.0000 -0.1093731963
C   C71       1.0  0.27930  0.88127  0.68458  1.0000 -0.2077329824
C   C72       1.0  0.31000  0.18920  0.62342  1.0000 -0.0988730096
C   C73       1.0  0.21010  0.90690  0.80018  1.0000 -0.0988730096
C   C74       1.0  0.15010  0.97330  0.74086  1.0000 -0.1507762531
C   C75       1.0  0.11920  0.97430  0.77557  1.0000 -0.0988730096
C   C76       1.0  0.45900  0.77209  0.61425  1.0000 -0.0905334757
C   C77       1.0  0.28330  0.07170  0.58359  1.0000 -0.1507762531
C   C78       1.0  0.21060  0.93886  0.73488  1.0000 0.0784630527
C   C79       1.0  0.31420  0.88162  0.65059  1.0000 0.0784630527
C   C80       1.0  0.43630  0.70648  0.62117  1.0000 -0.0652682137
C   C81       1.0  0.41940  0.82820  0.62338  1.0000 -0.1507762531
C   C82       1.0  0.68109  0.73960  0.56673  1.0000 0.6092712568
C   C83       1.0  0.88360  0.05653  0.84281  1.0000 0.6176476764
C   C84       1.0  0.85090  0.05851  0.80537  1.0000 -0.0571047006
C   C85       1.0  0.69380  0.80709  0.58563  1.0000 -0.042073897
C   C86       1.0  0.68360  0.05730  0.63040  1.0000 -0.2077329824
C   C87       1.0  0.71700  0.99820  0.64259  1.0000 0.0719997478
C   C88       1.0  0.52044  0.35329  0.61314  1.0000 0.6176476764
C   C89       1.0  0.75400  0.06070  0.69806  1.0000 0.0784630527
C   C90       1.0  0.64470  0.17935  0.63855  1.0000 0.0784630527
C   C91       1.0  0.69780  0.87310  0.64194  1.0000 -0.1507762531
C   C92       1.0  0.75910  0.09320  0.76588  1.0000 -0.1507762531
C   C93       1.0  0.75070  0.00180  0.67673  1.0000 -0.2077329824
C   C94       1.0  0.71080  0.93366  0.62196  1.0000 0.0719997478
C   C95       1.0  0.66760  0.24430  0.64365  1.0000 -0.1507762531
C   C96       1.0  0.62820  0.30140  0.63501  1.0000 -0.0905334757
C   C97       1.0  0.70840  0.86633  0.56545  1.0000 -0.1093731963
C   C98       1.0  0.72070  0.11873  0.68458  1.0000 -0.2077329824
C   C99       1.0  0.69000  0.81080  0.62342  1.0000 -0.0988730096
C   C100      1.0  0.78990  0.09310  0.80018  1.0000 -0.0988730096
C   C101      1.0  0.84990  0.02670  0.74086  1.0000 -0.1507762531
C   C102      1.0  0.88080  0.02570  0.77557  1.0000 -0.0988730096
C   C103      1.0  0.54100  0.22791  0.61425  1.0000 -0.0905334757
C   C104      1.0  0.71670  0.92830  0.58359  1.0000 -0.1507762531
C   C105      1.0  0.78940  0.06114  0.73488  1.0000 0.0784630527
C   C106      1.0  0.68580  0.11838  0.65059  1.0000 0.0784630527
C   C107      1.0  0.56370  0.29352  0.62117  1.0000 -0.0652682137
C   C108      1.0  0.58060  0.17180  0.62338  1.0000 -0.1507762531
C   C109      1.0  0.73960  0.68109  0.43327  1.0000 0.6092712568
C   C110      1.0  0.05653  0.88360  0.15719  1.0000 0.6176476764
C   C111      1.0  0.05851  0.85090  0.19463  1.0000 -0.0571047006
C   C112      1.0  0.80709  0.69380  0.41437  1.0000 -0.042073897
C   C113      1.0  0.05730  0.68360  0.36960  1.0000 -0.2077329824
C   C114      1.0  0.99820  0.71700  0.35741  1.0000 0.0719997478
C   C115      1.0  0.35329  0.52044  0.38686  1.0000 0.6176476764
C   C116      1.0  0.06070  0.75400  0.30194  1.0000 0.0719997478
C   C117      1.0  0.17935  0.64470  0.36145  1.0000 0.0784630527
C   C118      1.0  0.87310  0.69780  0.35806  1.0000 -0.1507762531
C   C119      1.0  0.09320  0.75910  0.23412  1.0000 -0.1507762531
C   C120      1.0  0.00180  0.75070  0.32327  1.0000 -0.2077329824
C   C121      1.0  0.93366  0.71080  0.37804  1.0000 0.0719997478
C   C122      1.0  0.24430  0.66760  0.35635  1.0000 -0.1507762531
C   C123      1.0  0.30140  0.62820  0.36499  1.0000 -0.0905334757
C   C124      1.0  0.86633  0.70840  0.43455  1.0000 -0.1093731963
C   C125      1.0  0.11873  0.72070  0.31542  1.0000 -0.2077329824
C   C126      1.0  0.81080  0.69000  0.37658  1.0000 -0.0988730096
C   C127      1.0  0.09310  0.78990  0.19982  1.0000 -0.0988730096
C   C128      1.0  0.02670  0.84990  0.25914  1.0000 -0.1507762531
C   C129      1.0  0.02570  0.88080  0.22443  1.0000 -0.0988730096
C   C130      1.0  0.22791  0.54100  0.38575  1.0000 -0.0905334757
C   C131      1.0  0.92830  0.71670  0.41641  1.0000 -0.1507762531
C   C132      1.0  0.06114  0.78940  0.26512  1.0000 0.0784630527
C   C133      1.0  0.11838  0.68580  0.34941  1.0000 0.0784630527
C   C134      1.0  0.29352  0.56370  0.37883  1.0000 -0.0652682137
C   C135      1.0  0.17180  0.58060  0.37662  1.0000 -0.1507762531
C   C136      1.0  0.26040  0.31891  0.43327  1.0000 0.6092712568
C   C137      1.0  0.94347  0.11640  0.15719  1.0000 0.6176476764
C   C138      1.0  0.94149  0.14910  0.19463  1.0000 -0.0571047006
C   C139      1.0  0.19291  0.30620  0.41437  1.0000 -0.042073897
C   C140      1.0  0.94270  0.31640  0.36960  1.0000 -0.2077329824
C   C141      1.0  0.00180  0.28300  0.35741  1.0000 0.0719997478
C   C142      1.0  0.64671  0.47956  0.38686  1.0000 0.6176476764
C   C143      1.0  0.93930  0.24600  0.30194  1.0000 0.0719997478
C   C144      1.0  0.82065  0.35530  0.36145  1.0000 0.0784630527
C   C145      1.0  0.12690  0.30220  0.35806  1.0000 -0.1507762531
C   C146      1.0  0.90680  0.24090  0.23412  1.0000 -0.1507762531
C   C147      1.0  0.99820  0.24930  0.32327  1.0000 -0.2077329824
C   C148      1.0  0.06634  0.28920  0.37804  1.0000 0.0719997478
C   C149      1.0  0.75570  0.33240  0.35635  1.0000 -0.1507762531
C   C150      1.0  0.69860  0.37180  0.36499  1.0000 -0.0905334757
C   C151      1.0  0.13367  0.29160  0.43455  1.0000 -0.1093731963
C   C152      1.0  0.88127  0.27930  0.31542  1.0000 -0.2077329824
C   C153      1.0  0.18920  0.31000  0.37658  1.0000 -0.0988730096
C   C154      1.0  0.90690  0.21010  0.19982  1.0000 -0.0988730096
C   C155      1.0  0.97330  0.15010  0.25914  1.0000 -0.1507762531
C   C156      1.0  0.97430  0.11920  0.22443  1.0000 -0.0988730096
C   C157      1.0  0.77209  0.45900  0.38575  1.0000 -0.0905334757
C   C158      1.0  0.07170  0.28330  0.41641  1.0000 -0.1507762531
C   C159      1.0  0.93886  0.21060  0.26512  1.0000 0.0784630527
C   C160      1.0  0.88162  0.31420  0.34941  1.0000 0.0784630527
C   C161      1.0  0.70648  0.43630  0.37883  1.0000 -0.0652682137
C   C162      1.0  0.82820  0.41940  0.37662  1.0000 -0.1507762531
C   C163      1.0  0.18109  0.76040  0.93327  1.0000 0.6092712568
C   C164      1.0  0.38360  0.44347  0.65719  1.0000 0.6176476764
C   C165      1.0  0.35090  0.44149  0.69463  1.0000 -0.0571047006
C   C166      1.0  0.19380  0.69291  0.91437  1.0000 -0.042073897
C   C167      1.0  0.18360  0.44270  0.86960  1.0000 -0.2077329824
C   C168      1.0  0.21700  0.50180  0.85741  1.0000 0.0719997478
C   C169      1.0  0.02044  0.14671  0.88686  1.0000 0.6176476764
C   C170      1.0  0.25400  0.43930  0.80194  1.0000 0.0719997478
C   C171      1.0  0.14470  0.32065  0.86145  1.0000 0.0784630527
C   C172      1.0  0.19780  0.62690  0.85806  1.0000 -0.1507762531
C   C173      1.0  0.25910  0.40680  0.73412  1.0000 -0.1507762531
C   C174      1.0  0.25070  0.49820  0.82327  1.0000 -0.2077329824
C   C175      1.0  0.21080  0.56634  0.87804  1.0000 0.0719997478
C   C176      1.0  0.16760  0.25570  0.85635  1.0000 -0.1507762531
C   C177      1.0  0.12820  0.19860  0.86499  1.0000 -0.0905334757
C   C178      1.0  0.20840  0.63367  0.93455  1.0000 -0.1093731963
C   C179      1.0  0.22070  0.38127  0.81542  1.0000 -0.2077329824
C   C180      1.0  0.19000  0.68920  0.87658  1.0000 -0.0988730096
C   C181      1.0  0.28990  0.40690  0.69982  1.0000 -0.0988730096
C   C182      1.0  0.34990  0.47330  0.75914  1.0000 -0.1507762531
C   C183      1.0  0.38080  0.47430  0.72443  1.0000 -0.0988730096
C   C184      1.0  0.04100  0.27209  0.88575  1.0000 -0.0905334757
C   C185      1.0  0.21670  0.57170  0.91641  1.0000 -0.1507762531
C   C186      1.0  0.28940  0.43886  0.76512  1.0000 0.0784630527
C   C187      1.0  0.18580  0.38162  0.84941  1.0000 0.0859491365
C   C188      1.0  0.06370  0.20648  0.87883  1.0000 -0.0652682137
C   C189      1.0  0.08060  0.32820  0.87662  1.0000 -0.1507762531
C   C190      1.0  0.81891  0.23960  0.93327  1.0000 0.6092712568
C   C191      1.0  0.61640  0.55653  0.65719  1.0000 0.6176476764
C   C192      1.0  0.64910  0.55851  0.69463  1.0000 -0.0571047006
C   C193      1.0  0.80620  0.30709  0.91437  1.0000 -0.042073897
C   C194      1.0  0.81640  0.55730  0.86960  1.0000 -0.2077329824
C   C195      1.0  0.78300  0.49820  0.85741  1.0000 0.0719997478
C   C196      1.0  0.97956  0.85329  0.88686  1.0000 0.6176476764
C   C197      1.0  0.74600  0.56070  0.80194  1.0000 0.0719997478
C   C198      1.0  0.85530  0.67935  0.86145  1.0000 0.0784630527
C   C199      1.0  0.80220  0.37310  0.85806  1.0000 -0.1507762531
C   C200      1.0  0.74090  0.59320  0.73412  1.0000 -0.1507762531
C   C201      1.0  0.74930  0.50180  0.82327  1.0000 -0.2077329824
C   C202      1.0  0.78920  0.43366  0.87804  1.0000 0.0719997478
C   C203      1.0  0.83240  0.74430  0.85635  1.0000 -0.1507762531
C   C204      1.0  0.87180  0.80140  0.86499  1.0000 -0.0905334757
C   C205      1.0  0.79160  0.36633  0.93455  1.0000 -0.1093731963
C   C206      1.0  0.77930  0.61873  0.81542  1.0000 -0.2077329824
C   C207      1.0  0.81000  0.31080  0.87658  1.0000 -0.0988730096
C   C208      1.0  0.71010  0.59310  0.69982  1.0000 -0.0988730096
C   C209      1.0  0.65010  0.52670  0.75914  1.0000 -0.1507762531
C   C210      1.0  0.61920  0.52570  0.72443  1.0000 -0.0988730096
C   C211      1.0  0.95900  0.72791  0.88575  1.0000 -0.0905334757
C   C212      1.0  0.78330  0.42830  0.91641  1.0000 -0.1507762531
C   C213      1.0  0.71060  0.56114  0.76512  1.0000 0.0784630527
C   C214      1.0  0.81420  0.61838  0.84941  1.0000 0.0859491365
C   C215      1.0  0.93630  0.79352  0.87883  1.0000 -0.0652682137
C   C216      1.0  0.91940  0.67180  0.87662  1.0000 -0.1507762531
C   C217      1.0  0.93190  0.28280  0.02068  0.9400 0.0378376749
C   C218      1.0  0.97490  0.30230  0.04740  0.9400 -0.2472457125
C   C219      1.0  0.97460  0.24780  0.07226  0.9400 0.0719997478
C   C220      1.0  0.06810  0.71720  0.02068  0.9400 0.0378376749
C   C221      1.0  0.02510  0.69770  0.04740  0.9400 -0.2472457125
C   C222      1.0  0.02540  0.75220  0.07226  0.9400 0.0719997478
C   C223      1.0  0.21720  0.43190  0.52068  0.9400 0.0378376749
C   C224      1.0  0.19770  0.47490  0.54740  0.9400 -0.2472457125
C   C225      1.0  0.25220  0.47460  0.57226  0.9400 0.0719997478
C   C226      1.0  0.78280  0.56810  0.52068  0.9400 0.0378376749
C   C227      1.0  0.80230  0.52510  0.54740  0.9400 -0.2472457125
C   C228      1.0  0.74780  0.52540  0.57226  0.9400 0.0719997478
C   C229      1.0  0.56810  0.78280  0.47932  0.9400 0.0378376749
C   C230      1.0  0.52510  0.80230  0.45260  0.9400 -0.2472457125
C   C231      1.0  0.52540  0.74780  0.42774  0.9400 0.0719997478
C   C232      1.0  0.43190  0.21720  0.47932  0.9400 0.0378376749
C   C233      1.0  0.47490  0.19770  0.45260  0.9400 -0.2472457125
C   C234      1.0  0.47460  0.25220  0.42774  0.9400 0.0719997478
C   C235      1.0  0.28280  0.93190  0.97932  0.9400 0.0378376749
C   C236      1.0  0.30230  0.97490  0.95260  0.9400 -0.2472457125
C   C237      1.0  0.24780  0.97460  0.92774  0.9400 0.0719997478
C   C238      1.0  0.71720  0.06810  0.97932  0.9400 0.0378376749
C   C239      1.0  0.69770  0.02510  0.95260  0.9400 -0.2472457125
C   C240      1.0  0.75220  0.02540  0.92774  0.9400 0.0719997478
N   N1        1.0  0.93345  0.20003  0.06104  0.9400 -0.2472457125
N   N2        1.0  0.90361  0.22354  0.02709  0.9400 -0.2239884095
N   N3        1.0  0.06655  0.79997  0.06104  0.9400 -0.2472457125
N   N4        1.0  0.09639  0.77646  0.02709  0.9400 -0.2239884095
N   N5        1.0  0.29997  0.43345  0.56104  0.9400 -0.2472457125
N   N6        1.0  0.27646  0.40361  0.52709  0.9400 -0.2239884095
N   N7        1.0  0.70003  0.56655  0.56104  0.9400 -0.2472457125
N   N8        1.0  0.72354  0.59639  0.52709  0.9400 -0.2239884095
N   N9        1.0  0.56655  0.70003  0.43896  0.9400 -0.2472457125
N   N10       1.0  0.59639  0.72354  0.47291  0.9400 -0.2239884095
N   N11       1.0  0.43345  0.29997  0.43896  0.9400 -0.2472457125
N   N12       1.0  0.40361  0.27646  0.47291  0.9400 -0.2239884095
N   N13       1.0  0.20003  0.93345  0.93896  0.9400 -0.2472457125
N   N14       1.0  0.22354  0.90361  0.97291  0.9400 -0.2239884095
N   N15       1.0  0.79997  0.06655  0.93896  0.9400 -0.2472457125
N   N16       1.0  0.77646  0.09639  0.97291  0.9400 -0.2239884095
O   O1        1.0  0.86500  0.09429  0.03409  1.0000 -0.9725032014
O   O2        1.0  0.96993  0.06297  0.07987  1.0000 -1.0007243467
O   O3        1.0  0.76318  0.18580  0.03155  1.0000 -0.5671562304
O   O4        1.0  0.80800  0.16629  0.08799  1.0000 -0.5469277812
O   O5        1.0  0.08806  0.04447  0.11748  1.0000 -0.5671562304
O   O6        1.0  0.15962  0.95905  0.10253  1.0000 -0.5875526679
O   O7        1.0  0.47295  0.44104  0.34521  1.0000 -0.5812085991
O   O8        1.0  0.41347  0.35270  0.36946  1.0000 -0.5812085991
O   O9        1.0  0.13500  0.90571  0.03409  1.0000 -0.9725032014
O   O10       1.0  0.03007  0.93703  0.07987  1.0000 -1.0007243467
O   O11       1.0  0.23682  0.81420  0.03155  1.0000 -0.5671562304
O   O12       1.0  0.19200  0.83371  0.08799  1.0000 -0.5469277812
O   O13       1.0  0.91194  0.95553  0.11748  1.0000 -0.5671562304
O   O14       1.0  0.84038  0.04095  0.10253  1.0000 -0.5875526679
O   O15       1.0  0.52705  0.55896  0.34521  1.0000 -0.5812085991
O   O16       1.0  0.58653  0.64730  0.36946  1.0000 -0.5812085991
O   O17       1.0  0.40571  0.36500  0.53409  1.0000 -0.9725032014
O   O18       1.0  0.43703  0.46993  0.57987  1.0000 -1.0007243467
O   O19       1.0  0.31420  0.26318  0.53155  1.0000 -0.5671562304
O   O20       1.0  0.33371  0.30800  0.58799  1.0000 -0.5469277812
O   O21       1.0  0.45553  0.58806  0.61748  1.0000 -0.5671562304
O   O22       1.0  0.54095  0.65962  0.60253  1.0000 -0.5875526679
O   O23       1.0  0.05896  0.97295  0.84521  1.0000 -0.5812085991
O   O24       1.0  0.14730  0.91347  0.86946  1.0000 -0.5812085991
O   O25       1.0  0.59429  0.63500  0.53409  1.0000 -0.9725032014
O   O26       1.0  0.56297  0.53007  0.57987  1.0000 -1.0007243467
O   O27       1.0  0.68580  0.73682  0.53155  1.0000 -0.5671562304
O   O28       1.0  0.66629  0.69200  0.58799  1.0000 -0.5469277812
O   O29       1.0  0.54447  0.41194  0.61748  1.0000 -0.5671562304
O   O30       1.0  0.45905  0.34038  0.60253  1.0000 -0.5875526679
O   O31       1.0  0.94104  0.02705  0.84521  1.0000 -0.5812085991
O   O32       1.0  0.85270  0.08653  0.86946  1.0000 -0.5812085991
O   O33       1.0  0.63500  0.59429  0.46591  1.0000 -0.9725032014
O   O34       1.0  0.53007  0.56297  0.42013  1.0000 -1.0007243467
O   O35       1.0  0.73682  0.68580  0.46845  1.0000 -0.5671562304
O   O36       1.0  0.69200  0.66629  0.41201  1.0000 -0.5469277812
O   O37       1.0  0.41194  0.54447  0.38252  1.0000 -0.5671562304
O   O38       1.0  0.34038  0.45905  0.39747  1.0000 -0.5875526679
O   O39       1.0  0.02705  0.94104  0.15479  1.0000 -0.5812085991
O   O40       1.0  0.08653  0.85270  0.13054  1.0000 -0.5812085991
O   O41       1.0  0.36500  0.40571  0.46591  1.0000 -0.9725032014
O   O42       1.0  0.46993  0.43703  0.42013  1.0000 -1.0007243467
O   O43       1.0  0.26318  0.31420  0.46845  1.0000 -0.5671562304
O   O44       1.0  0.30800  0.33371  0.41201  1.0000 -0.5469277812
O   O45       1.0  0.58806  0.45553  0.38252  1.0000 -0.5671562304
O   O46       1.0  0.65962  0.54095  0.39747  1.0000 -0.5875526679
O   O47       1.0  0.97295  0.05896  0.15479  1.0000 -0.5812085991
O   O48       1.0  0.91347  0.14730  0.13054  1.0000 -0.5812085991
O   O49       1.0  0.09429  0.86500  0.96591  1.0000 -0.9725032014
O   O50       1.0  0.06297  0.96993  0.92013  1.0000 -1.0007243467
O   O51       1.0  0.18580  0.76318  0.96845  1.0000 -0.5671562304
O   O52       1.0  0.16629  0.80800  0.91201  1.0000 -0.5469277812
O   O53       1.0  0.04447  0.08806  0.88252  1.0000 -0.5671562304
O   O54       1.0  0.95905  0.15962  0.89747  1.0000 -0.5875526679
O   O55       1.0  0.44104  0.47295  0.65479  1.0000 -0.5812085991
O   O56       1.0  0.35270  0.41347  0.63054  1.0000 -0.5812085991
O   O57       1.0  0.90571  0.13500  0.96591  1.0000 -0.9725032014
O   O58       1.0  0.93703  0.03007  0.92013  1.0000 -1.0007243467
O   O59       1.0  0.81420  0.23682  0.96845  1.0000 -0.5671562304
O   O60       1.0  0.83371  0.19200  0.91201  1.0000 -0.5469277812
O   O61       1.0  0.95553  0.91194  0.88252  1.0000 -0.5671562304
O   O62       1.0  0.04095  0.84038  0.89747  1.0000 -0.5875526679
O   O63       1.0  0.55896  0.52705  0.65479  1.0000 -0.5812085991
O   O64       1.0  0.64730  0.58653  0.63054  1.0000 -0.5812085991
