# DDEC6 charges by PACMAN v1.1 (https://github.com/mtap-research/PACMAN-charge/)
data_2024[Zn][srs]3[ASR]1
_chemical_formula_sum              "Zn4 H12 C20 N16"
_cell_length_a       9.69687
_cell_length_b       9.74643
_cell_length_c       11.4334
_cell_angle_alpha    90
_cell_angle_beta     90
_cell_angle_gamma    90

_symmetry_space_group_name_H-M    "P 1"
_symmetry_Int_Tables_number       1

loop_
  _symmetry_equiv_pos_as_xyz
  'x, y, z'

loop_
  _atom_site_type_symbol
  _atom_site_label
  _atom_site_symmetry_multiplicity
  _atom_site_fract_x
  _atom_site_fract_y
  _atom_site_fract_z
  _atom_site_occupancy
  _atom_site_charge
Zn  Zn1       1.0  0.80514  0.75175  0.34296  1.0000 0.549471259
Zn  Zn2       1.0  0.69486  0.24825  0.84296  1.0000 0.549471259
Zn  Zn3       1.0  0.30514  0.74825  0.65704  1.0000 0.549471259
Zn  Zn4       1.0  0.19486  0.25175  0.15704  1.0000 0.549471259
H   H1        1.0  0.87020  0.12930  0.66390  1.0000 0.0816874876
H   H2        1.0  0.62980  0.87070  0.16390  1.0000 0.0816874876
H   H3        1.0  0.37020  0.37070  0.33610  1.0000 0.0816874876
H   H4        1.0  0.12980  0.62930  0.83610  1.0000 0.0816874876
H   H5        1.0  0.52830  0.65590  0.47330  1.0000 0.0816874876
H   H6        1.0  0.97170  0.34410  0.97330  1.0000 0.0816874876
H   H7        1.0  0.02830  0.84410  0.52670  1.0000 0.0816874876
H   H8        1.0  0.47170  0.15590  0.02670  1.0000 0.0816874876
H   H9        1.0  0.51060  0.99770  0.77630  1.0000 0.1019338834
H   H10       1.0  0.98940  0.00230  0.27630  1.0000 0.1019338834
H   H11       1.0  0.01060  0.50230  0.22370  1.0000 0.1019338834
H   H12       1.0  0.48940  0.49770  0.72370  1.0000 0.1019338834
C   C1        1.0  0.79800  0.06730  0.65550  1.0000 0.1486547588
C   C2        1.0  0.70200  0.93270  0.15550  1.0000 0.1486547588
C   C3        1.0  0.29800  0.43270  0.34450  1.0000 0.1486547588
C   C4        1.0  0.20200  0.56730  0.84450  1.0000 0.1486547588
C   C5        1.0  0.58860  0.89180  0.63980  1.0000 0.0294597669
C   C6        1.0  0.91140  0.10820  0.13980  1.0000 0.0294597669
C   C7        1.0  0.08860  0.60820  0.36020  1.0000 0.0294597669
C   C8        1.0  0.41140  0.39180  0.86020  1.0000 0.0294597669
C   C9        1.0  0.70240  0.89050  0.56400  1.0000 0.2687540128
C   C10       1.0  0.79760  0.10950  0.06400  1.0000 0.2687540128
C   C11       1.0  0.20240  0.60950  0.43600  1.0000 0.2687540128
C   C12       1.0  0.29760  0.39050  0.93600  1.0000 0.2687540128
C   C13       1.0  0.56530  0.72970  0.51410  1.0000 0.1596418096
C   C14       1.0  0.93470  0.27030  0.01410  1.0000 0.1596418096
C   C15       1.0  0.06530  0.77030  0.48590  1.0000 0.1596418096
C   C16       1.0  0.43470  0.22970  0.98590  1.0000 0.1596418096
C   C17       1.0  0.58490  0.99140  0.72510  1.0000 0.0005950107
C   C18       1.0  0.91510  0.00860  0.22510  1.0000 0.0005950107
C   C19       1.0  0.08490  0.50860  0.27490  1.0000 -0.0001414065
C   C20       1.0  0.41510  0.49140  0.77490  1.0000 0.0005950107
N   N1        1.0  0.68680  0.78750  0.48450  1.0000 -0.3875638248
N   N2        1.0  0.81320  0.21250  0.98450  1.0000 -0.3875638248
N   N3        1.0  0.18680  0.71250  0.51550  1.0000 -0.3875638248
N   N4        1.0  0.31320  0.28750  0.01550  1.0000 -0.3875638248
N   N5        1.0  0.69160  0.07940  0.73260  1.0000 -0.2923839093
N   N6        1.0  0.80840  0.92060  0.23260  1.0000 -0.2923839093
N   N7        1.0  0.19160  0.42060  0.26740  1.0000 -0.2923839093
N   N8        1.0  0.30840  0.57940  0.76740  1.0000 -0.2923839093
N   N9        1.0  0.50180  0.78560  0.60580  1.0000 -0.3571113051
N   N10       1.0  0.99820  0.21440  0.10580  1.0000 -0.3571113051
N   N11       1.0  0.00180  0.71440  0.39420  1.0000 -0.3571113051
N   N12       1.0  0.49820  0.28560  0.89420  1.0000 -0.3571113051
N   N13       1.0  0.80910  0.97730  0.57070  1.0000 -0.3846423329
N   N14       1.0  0.69090  0.02270  0.07070  1.0000 -0.3846423329
N   N15       1.0  0.30910  0.52270  0.42930  1.0000 -0.3846423329
N   N16       1.0  0.19090  0.47730  0.92930  1.0000 -0.3846423329
