# DDEC6 charges by PACMAN v1.1 (https://github.com/mtap-research/PACMAN-charge/)
data_d0qm01097a2_1_FSR_pacman
_symmetry_space_group_name_H-M   'P 1'
_cell_length_a   20.96940000
_cell_length_b   25.59760000
_cell_length_c   26.13370000
_cell_angle_alpha   90.00000000
_cell_angle_beta   90.00000000
_cell_angle_gamma   90.00000000
_symmetry_Int_Tables_number   1
_chemical_formula_structural   Zn6H56C80N20O21
_chemical_formula_sum   'Zn24 H224 C320 N80 O84'
_cell_volume   14027.68980555
_cell_formula_units_Z   4
loop_
 _symmetry_equiv_pos_site_id
 _symmetry_equiv_pos_as_xyz
  1  'x, y, z'
loop_
 _atom_site_type_symbol
 _atom_site_label
 _atom_site_symmetry_multiplicity
 _atom_site_fract_x
 _atom_site_fract_y
 _atom_site_fract_z
 _atom_site_occupancy
 _atom_site_charge
Zn  Zn1  1  0.50000000  0.30547000  0.50000000  1.0 0.7581032098
Zn  Zn2  1  0.50000000  0.69453000  0.50000000  1.0 0.7581032098
Zn  Zn3  1  0.00000000  0.19453000  0.00000000  1.0 0.7581032098
Zn  Zn4  1  0.00000000  0.80547000  0.00000000  1.0 0.7581032098
Zn  Zn5  1  0.00000000  0.50000000  0.68687000  1.0 0.7479968648
Zn  Zn6  1  0.00000000  0.50000000  0.31313000  1.0 0.7479968648
Zn  Zn7  1  0.50000000  0.00000000  0.81313000  1.0 0.7479968648
Zn  Zn8  1  0.50000000  0.00000000  0.18687000  1.0 0.7479968648
Zn  Zn9  1  0.31135000  0.46670000  0.45158000  1.0 0.6929305996
Zn  Zn10  1  0.68865000  0.53330000  0.45158000  1.0 0.6929305996
Zn  Zn11  1  0.68865000  0.46670000  0.54842000  1.0 0.6929305996
Zn  Zn12  1  0.31135000  0.53330000  0.54842000  1.0 0.6929305996
Zn  Zn13  1  0.18865000  0.03330000  0.04842000  1.0 0.6929305996
Zn  Zn14  1  0.81135000  0.96670000  0.04842000  1.0 0.6929305996
Zn  Zn15  1  0.81135000  0.03330000  0.95158000  1.0 0.6929305996
Zn  Zn16  1  0.18865000  0.96670000  0.95158000  1.0 0.6929305996
Zn  Zn17  1  0.19349000  0.45036000  0.53240000  1.0 0.7581032098
Zn  Zn18  1  0.80651000  0.54964000  0.53240000  1.0 0.7581032098
Zn  Zn19  1  0.80651000  0.45036000  0.46760000  1.0 0.7581032098
Zn  Zn20  1  0.19349000  0.54964000  0.46760000  1.0 0.7581032098
Zn  Zn21  1  0.30651000  0.04964000  0.96760000  1.0 0.7581032098
Zn  Zn22  1  0.69349000  0.95036000  0.96760000  1.0 0.7581032098
Zn  Zn23  1  0.69349000  0.04964000  0.03240000  1.0 0.7581032098
Zn  Zn24  1  0.30651000  0.95036000  0.03240000  1.0 0.7581032098
H  H1  1  0.00186000  0.61591000  0.66015000  1.0 0.2810967844
H  H2  1  0.99814000  0.38409000  0.66015000  1.0 0.2810967844
H  H3  1  0.99814000  0.61591000  0.33985000  1.0 0.2810967844
H  H4  1  0.00186000  0.38409000  0.33985000  1.0 0.2810967844
H  H5  1  0.49814000  0.88409000  0.83985000  1.0 0.2810967844
H  H6  1  0.50186000  0.11591000  0.83985000  1.0 0.2810967844
H  H7  1  0.50186000  0.88409000  0.16015000  1.0 0.2810967844
H  H8  1  0.49814000  0.11591000  0.16015000  1.0 0.2810967844
H  H9  1  0.38732000  0.35974000  0.45427000  1.0 0.1185316848
H  H10  1  0.61268000  0.64026000  0.45427000  1.0 0.1185316848
H  H11  1  0.61268000  0.35974000  0.54573000  1.0 0.1185316848
H  H12  1  0.38732000  0.64026000  0.54573000  1.0 0.1185316848
H  H13  1  0.11268000  0.14026000  0.04573000  1.0 0.1185316848
H  H14  1  0.88732000  0.85974000  0.04573000  1.0 0.1185316848
H  H15  1  0.88732000  0.14026000  0.95427000  1.0 0.1185316848
H  H16  1  0.11268000  0.85974000  0.95427000  1.0 0.1185316848
H  H17  1  0.10656000  0.45128000  0.63064000  1.0 0.1185316848
H  H18  1  0.89344000  0.54872000  0.63064000  1.0 0.1185316848
H  H19  1  0.89344000  0.45128000  0.36936000  1.0 0.1185316848
H  H20  1  0.10656000  0.54872000  0.36936000  1.0 0.1185316848
H  H21  1  0.39344000  0.04872000  0.86936000  1.0 0.1185316848
H  H22  1  0.60656000  0.95128000  0.86936000  1.0 0.1185316848
H  H23  1  0.60656000  0.04872000  0.13064000  1.0 0.1185316848
H  H24  1  0.39344000  0.95128000  0.13064000  1.0 0.1185316848
H  H25  1  0.39211000  0.50485000  0.63973000  1.0 0.1002089616
H  H26  1  0.60789000  0.49515000  0.63973000  1.0 0.1002089616
H  H27  1  0.60789000  0.50485000  0.36027000  1.0 0.1002089616
H  H28  1  0.39211000  0.49515000  0.36027000  1.0 0.1002089616
H  H29  1  0.10789000  0.99515000  0.86027000  1.0 0.1002089616
H  H30  1  0.89211000  0.00485000  0.86027000  1.0 0.1002089616
H  H31  1  0.89211000  0.99515000  0.13973000  1.0 0.1002089616
H  H32  1  0.10789000  0.00485000  0.13973000  1.0 0.1002089616
H  H33  1  0.12542000  0.64882000  0.50047000  1.0 0.1098977859
H  H34  1  0.87458000  0.35118000  0.50047000  1.0 0.1098977859
H  H35  1  0.87458000  0.64882000  0.49953000  1.0 0.1098977859
H  H36  1  0.12542000  0.35118000  0.49953000  1.0 0.1098977859
H  H37  1  0.37458000  0.85118000  0.99953000  1.0 0.1098977859
H  H38  1  0.62542000  0.14882000  0.99953000  1.0 0.1098977859
H  H39  1  0.62542000  0.85118000  0.00047000  1.0 0.1098977859
H  H40  1  0.37458000  0.14882000  0.00047000  1.0 0.1098977859
H  H41  1  0.12122000  0.22947000  0.12588000  1.0 0.1185316848
H  H42  1  0.87878000  0.77053000  0.12588000  1.0 0.1185316848
H  H43  1  0.87878000  0.22947000  0.87412000  1.0 0.1185316848
H  H44  1  0.12122000  0.77053000  0.87412000  1.0 0.1185316848
H  H45  1  0.37878000  0.27053000  0.37412000  1.0 0.1185316848
H  H46  1  0.62122000  0.72947000  0.37412000  1.0 0.1185316848
H  H47  1  0.62122000  0.27053000  0.62588000  1.0 0.1185316848
H  H48  1  0.37878000  0.72947000  0.62588000  1.0 0.1185316848
H  H49  1  0.17587000  0.25878000  0.19590000  1.0 0.1098977859
H  H50  1  0.82413000  0.74122000  0.19590000  1.0 0.1098977859
H  H51  1  0.82413000  0.25878000  0.80410000  1.0 0.1098977859
H  H52  1  0.17587000  0.74122000  0.80410000  1.0 0.1098977859
H  H53  1  0.32413000  0.24122000  0.30410000  1.0 0.1098977859
H  H54  1  0.67587000  0.75878000  0.30410000  1.0 0.1098977859
H  H55  1  0.67587000  0.24122000  0.69590000  1.0 0.1098977859
H  H56  1  0.32413000  0.75878000  0.69590000  1.0 0.1098977859
H  H57  1  0.92234000  0.67732000  0.59764000  1.0 0.3274769131
H  H58  1  0.07766000  0.32268000  0.59764000  1.0 0.3274769131
H  H59  1  0.07766000  0.67732000  0.40236000  1.0 0.3274769131
H  H60  1  0.92234000  0.32268000  0.40236000  1.0 0.3274769131
H  H61  1  0.57766000  0.82268000  0.90236000  1.0 0.3274769131
H  H62  1  0.42234000  0.17732000  0.90236000  1.0 0.3274769131
H  H63  1  0.42234000  0.82268000  0.09764000  1.0 0.3274769131
H  H64  1  0.57766000  0.17732000  0.09764000  1.0 0.3274769131
H  H65  1  0.97153000  0.69607000  0.66607000  1.0 0.0801273958
H  H66  1  0.02847000  0.30393000  0.66607000  1.0 0.0801273958
H  H67  1  0.02847000  0.69607000  0.33393000  1.0 0.0801273958
H  H68  1  0.97153000  0.30393000  0.33393000  1.0 0.0801273958
H  H69  1  0.52847000  0.80393000  0.83393000  1.0 0.0801273958
H  H70  1  0.47153000  0.19607000  0.83393000  1.0 0.0801273958
H  H71  1  0.47153000  0.80393000  0.16607000  1.0 0.0801273958
H  H72  1  0.52847000  0.19607000  0.16607000  1.0 0.0801273958
H  H73  1  0.02829000  0.71115000  0.63018000  1.0 0.1098977859
H  H74  1  0.97171000  0.28885000  0.63018000  1.0 0.1098977859
H  H75  1  0.97171000  0.71115000  0.36982000  1.0 0.1098977859
H  H76  1  0.02829000  0.28885000  0.36982000  1.0 0.1098977859
H  H77  1  0.47171000  0.78885000  0.86982000  1.0 0.1098977859
H  H78  1  0.52829000  0.21115000  0.86982000  1.0 0.1098977859
H  H79  1  0.52829000  0.78885000  0.13018000  1.0 0.1098977859
H  H80  1  0.47171000  0.21115000  0.13018000  1.0 0.1098977859
H  H81  1  0.99699000  0.34624000  0.14093000  1.0 0.1098977859
H  H82  1  0.00301000  0.65376000  0.14093000  1.0 0.1098977859
H  H83  1  0.00301000  0.34624000  0.85907000  1.0 0.1098977859
H  H84  1  0.99699000  0.65376000  0.85907000  1.0 0.1098977859
H  H85  1  0.50301000  0.15376000  0.35907000  1.0 0.1098977859
H  H86  1  0.49699000  0.84624000  0.35907000  1.0 0.1098977859
H  H87  1  0.49699000  0.15376000  0.64093000  1.0 0.1098977859
H  H88  1  0.50301000  0.84624000  0.64093000  1.0 0.1098977859
H  H89  1  0.05439000  0.37757000  0.20837000  1.0 0.1098977859
H  H90  1  0.94561000  0.62243000  0.20837000  1.0 0.1098977859
H  H91  1  0.94561000  0.37757000  0.79163000  1.0 0.1098977859
H  H92  1  0.05439000  0.62243000  0.79163000  1.0 0.1098977859
H  H93  1  0.44561000  0.12243000  0.29163000  1.0 0.1098977859
H  H94  1  0.55439000  0.87757000  0.29163000  1.0 0.1098977859
H  H95  1  0.55439000  0.12243000  0.70837000  1.0 0.1098977859
H  H96  1  0.44561000  0.87757000  0.70837000  1.0 0.1098977859
H  H97  1  0.49951000  0.33424000  0.61213000  0.4 0.2709015273
H  H98  1  0.50049000  0.66576000  0.61213000  0.4 0.2709015273
H  H99  1  0.50049000  0.33424000  0.38787000  0.4 0.2709015273
H  H100  1  0.49951000  0.66576000  0.38787000  0.4 0.2709015273
H  H101  1  0.00049000  0.16576000  0.88787000  0.4 0.2709015273
H  H102  1  0.99951000  0.83424000  0.88787000  0.4 0.2709015273
H  H103  1  0.99951000  0.16576000  0.11213000  0.4 0.2709015273
H  H104  1  0.00049000  0.83424000  0.11213000  0.4 0.2709015273
H  H105  1  0.53989000  0.40285000  0.68567000  0.4 0.1002089616
H  H106  1  0.46011000  0.59715000  0.68567000  0.4 0.1002089616
H  H107  1  0.46011000  0.40285000  0.31433000  0.4 0.1002089616
H  H108  1  0.53989000  0.59715000  0.31433000  0.4 0.1002089616
H  H109  1  0.96011000  0.09715000  0.81433000  0.4 0.1002089616
H  H110  1  0.03989000  0.90285000  0.81433000  0.4 0.1002089616
H  H111  1  0.03989000  0.09715000  0.18567000  0.4 0.1002089616
H  H112  1  0.96011000  0.90285000  0.18567000  0.4 0.1002089616
H  H113  1  0.57074000  0.34752000  0.67532000  0.4 0.0801273958
H  H114  1  0.42926000  0.65248000  0.67532000  0.4 0.0801273958
H  H115  1  0.42926000  0.34752000  0.32468000  0.4 0.0801273958
H  H116  1  0.57074000  0.65248000  0.32468000  0.4 0.0801273958
H  H117  1  0.92926000  0.15248000  0.82468000  0.4 0.0801273958
H  H118  1  0.07074000  0.84752000  0.82468000  0.4 0.0801273958
H  H119  1  0.07074000  0.15248000  0.17532000  0.4 0.0801273958
H  H120  1  0.92926000  0.84752000  0.17532000  0.4 0.0801273958
H  H121  1  0.50740000  0.32400000  0.73440000  0.4 0.1185316848
H  H122  1  0.49260000  0.67600000  0.73440000  0.4 0.1185316848
H  H123  1  0.49260000  0.32400000  0.26560000  0.4 0.1185316848
H  H124  1  0.50740000  0.67600000  0.26560000  0.4 0.1185316848
H  H125  1  0.99260000  0.17600000  0.76560000  0.4 0.1185316848
H  H126  1  0.00740000  0.82400000  0.76560000  0.4 0.1185316848
H  H127  1  0.00740000  0.17600000  0.23440000  0.4 0.1185316848
H  H128  1  0.99260000  0.82400000  0.23440000  0.4 0.1185316848
H  H129  1  0.32861000  0.34951000  0.61291000  0.43 0.0901920506
H  H130  1  0.67139000  0.65049000  0.61291000  0.43 0.0901920506
H  H131  1  0.67139000  0.34951000  0.38709000  0.43 0.0901920506
H  H132  1  0.32861000  0.65049000  0.38709000  0.43 0.0901920506
H  H133  1  0.17139000  0.15049000  0.88709000  0.43 0.0901920506
H  H134  1  0.82861000  0.84951000  0.88709000  0.43 0.0901920506
H  H135  1  0.82861000  0.15049000  0.11291000  0.43 0.0801273958
H  H136  1  0.17139000  0.84951000  0.11291000  0.43 0.0901920506
H  H137  1  0.16167000  0.27787000  0.63255000  0.43 0.0901920506
H  H138  1  0.83833000  0.72213000  0.63255000  0.43 0.0901920506
H  H139  1  0.83833000  0.27787000  0.36745000  0.43 0.0901920506
H  H140  1  0.16167000  0.72213000  0.36745000  0.43 0.0901920506
H  H141  1  0.33833000  0.22213000  0.86745000  0.43 0.0901920506
H  H142  1  0.66167000  0.77787000  0.86745000  0.43 0.0901920506
H  H143  1  0.66167000  0.22213000  0.13255000  0.43 0.0901920506
H  H144  1  0.33833000  0.77787000  0.13255000  0.43 0.0901920506
H  H145  1  0.21325000  0.20645000  0.66542000  0.43 0.0901920506
H  H146  1  0.78675000  0.79355000  0.66542000  0.43 0.0901920506
H  H147  1  0.78675000  0.20645000  0.33458000  0.43 0.0901920506
H  H148  1  0.21325000  0.79355000  0.33458000  0.43 0.0901920506
H  H149  1  0.28675000  0.29355000  0.83458000  0.43 0.0901920506
H  H150  1  0.71325000  0.70645000  0.83458000  0.43 0.0901920506
H  H151  1  0.71325000  0.29355000  0.16542000  0.43 0.0901920506
H  H152  1  0.28675000  0.70645000  0.16542000  0.43 0.0901920506
H  H153  1  0.37996000  0.28032000  0.64974000  0.43 0.0692490171
H  H154  1  0.62004000  0.71968000  0.64974000  0.43 0.0692490171
H  H155  1  0.62004000  0.28032000  0.35026000  0.43 0.0692490171
H  H156  1  0.37996000  0.71968000  0.35026000  0.43 0.0692490171
H  H157  1  0.12004000  0.21968000  0.85026000  0.43 0.0692490171
H  H158  1  0.87996000  0.78032000  0.85026000  0.43 0.0692490171
H  H159  1  0.87996000  0.21968000  0.14974000  0.43 0.0692490171
H  H160  1  0.12004000  0.78032000  0.14974000  0.43 0.0692490171
H  H161  1  0.17038000  0.42662000  0.34026000  0.5 0.0901920506
H  H162  1  0.82962000  0.57338000  0.34026000  0.5 0.0901920506
H  H163  1  0.82962000  0.42662000  0.65974000  0.5 0.0901920506
H  H164  1  0.17038000  0.57338000  0.65974000  0.5 0.0901920506
H  H165  1  0.32962000  0.07338000  0.15974000  0.5 0.0901920506
H  H166  1  0.67038000  0.92662000  0.15974000  0.5 0.0901920506
H  H167  1  0.67038000  0.07338000  0.84026000  0.5 0.0901920506
H  H168  1  0.32962000  0.92662000  0.84026000  0.5 0.0901920506
H  H169  1  0.31913000  0.33992000  0.29351000  0.5 0.1002089616
H  H170  1  0.68087000  0.66008000  0.29351000  0.5 0.1002089616
H  H171  1  0.68087000  0.33992000  0.70649000  0.5 0.1002089616
H  H172  1  0.31913000  0.66008000  0.70649000  0.5 0.1002089616
H  H173  1  0.18087000  0.16008000  0.20649000  0.5 0.1002089616
H  H174  1  0.81913000  0.83992000  0.20649000  0.5 0.1002089616
H  H175  1  0.81913000  0.16008000  0.79351000  0.5 0.1002089616
H  H176  1  0.18087000  0.83992000  0.79351000  0.5 0.1002089616
H  H177  1  0.25823000  0.30742000  0.22658000  0.5 0.1002089616
H  H178  1  0.74177000  0.69258000  0.22658000  0.5 0.1002089616
H  H179  1  0.74177000  0.30742000  0.77342000  0.5 0.1002089616
H  H180  1  0.25823000  0.69258000  0.77342000  0.5 0.1002089616
H  H181  1  0.24177000  0.19258000  0.27342000  0.5 0.1002089616
H  H182  1  0.75823000  0.80742000  0.27342000  0.5 0.1002089616
H  H183  1  0.75823000  0.19258000  0.72658000  0.5 0.1002089616
H  H184  1  0.24177000  0.80742000  0.72658000  0.5 0.1002089616
H  H185  1  0.10948000  0.39411000  0.27333000  0.5 0.1002089616
H  H186  1  0.89052000  0.60589000  0.27333000  0.5 0.1002089616
H  H187  1  0.89052000  0.39411000  0.72667000  0.5 0.1002089616
H  H188  1  0.10948000  0.60589000  0.72667000  0.5 0.1002089616
H  H189  1  0.39052000  0.10589000  0.22667000  0.5 0.1002089616
H  H190  1  0.60948000  0.89411000  0.22667000  0.5 0.1002089616
H  H191  1  0.60948000  0.10589000  0.77333000  0.5 0.1002089616
H  H192  1  0.39052000  0.89411000  0.77333000  0.5 0.1002089616
H  H193  1  0.40628000  0.23075000  0.71898000  0.5 0.0901920506
H  H194  1  0.59372000  0.76925000  0.71898000  0.5 0.0901920506
H  H195  1  0.59372000  0.23075000  0.28102000  0.5 0.0901920506
H  H196  1  0.40628000  0.76925000  0.28102000  0.5 0.0901920506
H  H197  1  0.09372000  0.26925000  0.78102000  0.5 0.0901920506
H  H198  1  0.90628000  0.73075000  0.78102000  0.5 0.0901920506
H  H199  1  0.90628000  0.26925000  0.21898000  0.5 0.0901920506
H  H200  1  0.09372000  0.73075000  0.21898000  0.5 0.0901920506
H  H201  1  0.17423000  0.26649000  0.28793000  0.5 0.1002089616
H  H202  1  0.82577000  0.73351000  0.28793000  0.5 0.1002089616
H  H203  1  0.82577000  0.26649000  0.71207000  0.5 0.1002089616
H  H204  1  0.17423000  0.73351000  0.71207000  0.5 0.1002089616
H  H205  1  0.32577000  0.23351000  0.21207000  0.5 0.1002089616
H  H206  1  0.67423000  0.76649000  0.21207000  0.5 0.1002089616
H  H207  1  0.67423000  0.23351000  0.78793000  0.5 0.1002089616
H  H208  1  0.32577000  0.76649000  0.78793000  0.5 0.1002089616
H  H209  1  0.13870000  0.41481000  0.24641000  0.5 0.1002089616
H  H210  1  0.86130000  0.58519000  0.24641000  0.5 0.1002089616
H  H211  1  0.86130000  0.41481000  0.75359000  0.5 0.1002089616
H  H212  1  0.13870000  0.58519000  0.75359000  0.5 0.1002089616
H  H213  1  0.36130000  0.08519000  0.25359000  0.5 0.1002089616
H  H214  1  0.63870000  0.91481000  0.25359000  0.5 0.1002089616
H  H215  1  0.63870000  0.08519000  0.74641000  0.5 0.1002089616
H  H216  1  0.36130000  0.91481000  0.74641000  0.5 0.1002089616
H  H217  1  0.19776000  0.44450000  0.31561000  0.5 0.1002089616
H  H218  1  0.80224000  0.55550000  0.31561000  0.5 0.1002089616
H  H219  1  0.80224000  0.44450000  0.68439000  0.5 0.1002089616
H  H220  1  0.19776000  0.55550000  0.68439000  0.5 0.1002089616
H  H221  1  0.30224000  0.05550000  0.18439000  0.5 0.1002089616
H  H222  1  0.69776000  0.94450000  0.18439000  0.5 0.1002089616
H  H223  1  0.69776000  0.05550000  0.81561000  0.5 0.1002089616
H  H224  1  0.30224000  0.94450000  0.81561000  0.5 0.1002089616
H  H225  1  0.23329000  0.29618000  0.35713000  0.5 0.1002089616
H  H226  1  0.76671000  0.70382000  0.35713000  0.5 0.1002089616
H  H227  1  0.76671000  0.29618000  0.64287000  0.5 0.1002089616
H  H228  1  0.23329000  0.70382000  0.64287000  0.5 0.1002089616
H  H229  1  0.26671000  0.20382000  0.14287000  0.5 0.1002089616
H  H230  1  0.73329000  0.79618000  0.14287000  0.5 0.1002089616
H  H231  1  0.73329000  0.20382000  0.85713000  0.5 0.1002089616
H  H232  1  0.26671000  0.79618000  0.85713000  0.5 0.1002089616
H  H233  1  0.45772000  0.15867000  0.75396000  0.5 0.0901920506
H  H234  1  0.54228000  0.84133000  0.75396000  0.5 0.0901920506
H  H235  1  0.54228000  0.15867000  0.24604000  0.5 0.0901920506
H  H236  1  0.45772000  0.84133000  0.24604000  0.5 0.0901920506
H  H237  1  0.04228000  0.34133000  0.74604000  0.5 0.0901920506
H  H238  1  0.95772000  0.65867000  0.74604000  0.5 0.0901920506
H  H239  1  0.95772000  0.34133000  0.25396000  0.5 0.0901920506
H  H240  1  0.04228000  0.65867000  0.25396000  0.5 0.0901920506
H  H241  1  0.38963000  0.07554000  0.65486000  0.5 0.1098977859
H  H242  1  0.61037000  0.92446000  0.65486000  0.5 0.1098977859
H  H243  1  0.61037000  0.07554000  0.34514000  0.5 0.1098977859
H  H244  1  0.38963000  0.92446000  0.34514000  0.5 0.1098977859
H  H245  1  0.11037000  0.42446000  0.84514000  0.5 0.1098977859
H  H246  1  0.88963000  0.57554000  0.84514000  0.5 0.1098977859
H  H247  1  0.88963000  0.42446000  0.15486000  0.5 0.1098977859
H  H248  1  0.11037000  0.57554000  0.15486000  0.5 0.1098977859
H  H249  1  0.27506000  0.13661000  0.65913000  0.5 0.1002089616
H  H250  1  0.72494000  0.86339000  0.65913000  0.5 0.1002089616
H  H251  1  0.72494000  0.13661000  0.34087000  0.5 0.1002089616
H  H252  1  0.27506000  0.86339000  0.34087000  0.5 0.1002089616
H  H253  1  0.22494000  0.36339000  0.84087000  0.5 0.1002089616
H  H254  1  0.77506000  0.63661000  0.84087000  0.5 0.1002089616
H  H255  1  0.77506000  0.36339000  0.15913000  0.5 0.1002089616
H  H256  1  0.22494000  0.63661000  0.15913000  0.5 0.1002089616
H  H257  1  0.33785000  0.21251000  0.75785000  0.5 0.0801273958
H  H258  1  0.66215000  0.78749000  0.75785000  0.5 0.0801273958
H  H259  1  0.66215000  0.21251000  0.24215000  0.5 0.0801273958
H  H260  1  0.33785000  0.78749000  0.24215000  0.5 0.0801273958
H  H261  1  0.16215000  0.28749000  0.74215000  0.5 0.0801273958
H  H262  1  0.83785000  0.71251000  0.74215000  0.5 0.0801273958
H  H263  1  0.83785000  0.28749000  0.25785000  0.5 0.0801273958
H  H264  1  0.16215000  0.71251000  0.25785000  0.5 0.0801273958
H  H265  1  0.39278000  0.14270000  0.78980000  0.5 0.0901920506
H  H266  1  0.60722000  0.85730000  0.78980000  0.5 0.0901920506
H  H267  1  0.60722000  0.14270000  0.21020000  0.5 0.0901920506
H  H268  1  0.39278000  0.85730000  0.21020000  0.5 0.0901920506
H  H269  1  0.10722000  0.35730000  0.71020000  0.5 0.0901920506
H  H270  1  0.89278000  0.64270000  0.71020000  0.5 0.0901920506
H  H271  1  0.89278000  0.35730000  0.28980000  0.5 0.0901920506
H  H272  1  0.10722000  0.64270000  0.28980000  0.5 0.0901920506
H  H273  1  0.34167000  0.14865000  0.61986000  0.5 0.1098977859
H  H274  1  0.65833000  0.85135000  0.61986000  0.5 0.1098977859
H  H275  1  0.65833000  0.14865000  0.38014000  0.5 0.1098977859
H  H276  1  0.34167000  0.85135000  0.38014000  0.5 0.1098977859
H  H277  1  0.15833000  0.35135000  0.88014000  0.5 0.1098977859
H  H278  1  0.84167000  0.64865000  0.88014000  0.5 0.1098977859
H  H279  1  0.84167000  0.35135000  0.11986000  0.5 0.1098977859
H  H280  1  0.15833000  0.64865000  0.11986000  0.5 0.1098977859
H  H281  1  0.32329000  0.06505000  0.69656000  0.5 0.1098977859
H  H282  1  0.67671000  0.93495000  0.69656000  0.5 0.1098977859
H  H283  1  0.67671000  0.06505000  0.30344000  0.5 0.1098977859
H  H284  1  0.32329000  0.93495000  0.30344000  0.5 0.1098977859
H  H285  1  0.17671000  0.43495000  0.80344000  0.5 0.1098977859
H  H286  1  0.82329000  0.56505000  0.80344000  0.5 0.1098977859
H  H287  1  0.82329000  0.43495000  0.19656000  0.5 0.1098977859
H  H288  1  0.17671000  0.56505000  0.19656000  0.5 0.1098977859
H  H289  1  0.31921000  0.32203000  0.57205000  0.57 0.1002089616
H  H290  1  0.68079000  0.67797000  0.57205000  0.57 0.1002089616
H  H291  1  0.68079000  0.32203000  0.42795000  0.57 0.1002089616
H  H292  1  0.31921000  0.67797000  0.42795000  0.57 0.1002089616
H  H293  1  0.18079000  0.17797000  0.92795000  0.57 0.1002089616
H  H294  1  0.81921000  0.82203000  0.92795000  0.57 0.1002089616
H  H295  1  0.81921000  0.17797000  0.07205000  0.57 0.1002089616
H  H296  1  0.18079000  0.82203000  0.07205000  0.57 0.1002089616
H  H297  1  0.36930000  0.25089000  0.60856000  0.57 0.0901920506
H  H298  1  0.63070000  0.74911000  0.60856000  0.57 0.0901920506
H  H299  1  0.63070000  0.25089000  0.39144000  0.57 0.0901920506
H  H300  1  0.36930000  0.74911000  0.39144000  0.57 0.0901920506
H  H301  1  0.13070000  0.24911000  0.89144000  0.57 0.0901920506
H  H302  1  0.86930000  0.75089000  0.89144000  0.57 0.0901920506
H  H303  1  0.86930000  0.24911000  0.10856000  0.57 0.0901920506
H  H304  1  0.13070000  0.75089000  0.10856000  0.57 0.0901920506
H  H305  1  0.18315000  0.31257000  0.67858000  0.57 0.0801273958
H  H306  1  0.81685000  0.68743000  0.67858000  0.57 0.0801273958
H  H307  1  0.81685000  0.31257000  0.32142000  0.57 0.0801273958
H  H308  1  0.18315000  0.68743000  0.32142000  0.57 0.0801273958
H  H309  1  0.31685000  0.18743000  0.82142000  0.57 0.0801273958
H  H310  1  0.68315000  0.81257000  0.82142000  0.57 0.0801273958
H  H311  1  0.68315000  0.18743000  0.17858000  0.57 0.0801273958
H  H312  1  0.31685000  0.81257000  0.17858000  0.57 0.0801273958
H  H313  1  0.23421000  0.24524000  0.71594000  0.57 0.0901920506
H  H314  1  0.76579000  0.75476000  0.71594000  0.57 0.0901920506
H  H315  1  0.76579000  0.24524000  0.28406000  0.57 0.0901920506
H  H316  1  0.23421000  0.75476000  0.28406000  0.57 0.0901920506
H  H317  1  0.26579000  0.25476000  0.78406000  0.57 0.0901920506
H  H318  1  0.73421000  0.74524000  0.78406000  0.57 0.0901920506
H  H319  1  0.73421000  0.25476000  0.21594000  0.57 0.0901920506
H  H320  1  0.26579000  0.74524000  0.21594000  0.57 0.0901920506
H  H321  1  0.50786000  0.33755000  0.61003000  0.6 0.2709015273
H  H322  1  0.49214000  0.66245000  0.61003000  0.6 0.2709015273
H  H323  1  0.49214000  0.33755000  0.38997000  0.6 0.2709015273
H  H324  1  0.50786000  0.66245000  0.38997000  0.6 0.2709015273
H  H325  1  0.99214000  0.16245000  0.88997000  0.6 0.2709015273
H  H326  1  0.00786000  0.83755000  0.88997000  0.6 0.2709015273
H  H327  1  0.00786000  0.16245000  0.11003000  0.6 0.2709015273
H  H328  1  0.99214000  0.83755000  0.11003000  0.6 0.2709015273
H  H329  1  0.52796000  0.32954000  0.69242000  0.6 0.0801273958
H  H330  1  0.47204000  0.67046000  0.69242000  0.6 0.0801273958
H  H331  1  0.47204000  0.32954000  0.30758000  0.6 0.0801273958
H  H332  1  0.52796000  0.67046000  0.30758000  0.6 0.0801273958
H  H333  1  0.97204000  0.17046000  0.80758000  0.6 0.0801273958
H  H334  1  0.02796000  0.82954000  0.80758000  0.6 0.0801273958
H  H335  1  0.02796000  0.17046000  0.19242000  0.6 0.0801273958
H  H336  1  0.97204000  0.82954000  0.19242000  0.6 0.0801273958
H  H337  1  0.48200000  0.37694000  0.70295000  0.6 0.1098977859
H  H338  1  0.51800000  0.62306000  0.70295000  0.6 0.1098977859
H  H339  1  0.51800000  0.37694000  0.29705000  0.6 0.1098977859
H  H340  1  0.48200000  0.62306000  0.29705000  0.6 0.1098977859
H  H341  1  0.01800000  0.12306000  0.79705000  0.6 0.1098977859
H  H342  1  0.98200000  0.87694000  0.79705000  0.6 0.1098977859
H  H343  1  0.98200000  0.12306000  0.20295000  0.6 0.1098977859
H  H344  1  0.01800000  0.87694000  0.20295000  0.6 0.1098977859
H  H345  1  0.57541000  0.41236000  0.65595000  0.6 0.1944795232
H  H346  1  0.42459000  0.58764000  0.65595000  0.6 0.1944795232
H  H347  1  0.42459000  0.41236000  0.34405000  0.6 0.1944795232
H  H348  1  0.57541000  0.58764000  0.34405000  0.6 0.1944795232
H  H349  1  0.92459000  0.08764000  0.84405000  0.6 0.1944795232
H  H350  1  0.07541000  0.91236000  0.84405000  0.6 0.1944795232
H  H351  1  0.07541000  0.08764000  0.15595000  0.6 0.1944795232
H  H352  1  0.92459000  0.91236000  0.15595000  0.6 0.1944795232
C  C1  1  0.30470000  0.32120000  0.62430000  0.43 -0.0596859405
C  C2  1  0.69530000  0.67880000  0.62430000  0.43 -0.0596859405
C  C3  1  0.69530000  0.32120000  0.37570000  0.43 -0.0596859405
C  C4  1  0.30470000  0.67880000  0.37570000  0.43 -0.0596859405
C  C5  1  0.19530000  0.17880000  0.87570000  0.43 -0.0596859405
C  C6  1  0.80470000  0.82120000  0.87570000  0.43 -0.0596859405
C  C7  1  0.80470000  0.17880000  0.12430000  0.43 -0.0596859405
C  C8  1  0.19530000  0.82120000  0.12430000  0.43 -0.0596859405
C  C9  1  0.20580000  0.27800000  0.63560000  0.43 -0.0503819129
C  C10  1  0.79420000  0.72200000  0.63560000  0.43 -0.0503819129
C  C11  1  0.79420000  0.27800000  0.36440000  0.43 -0.0503819129
C  C12  1  0.20580000  0.72200000  0.36440000  0.43 -0.0503819129
C  C13  1  0.29420000  0.22200000  0.86440000  0.43 -0.0503819129
C  C14  1  0.70580000  0.77800000  0.86440000  0.43 -0.0503819129
C  C15  1  0.70580000  0.22200000  0.13560000  0.43 -0.0503819129
C  C16  1  0.29420000  0.77800000  0.13560000  0.43 -0.0503819129
C  C17  1  0.23640000  0.23590000  0.65610000  0.43 -0.0503819129
C  C18  1  0.76360000  0.76410000  0.65610000  0.43 -0.0503819129
C  C19  1  0.76360000  0.23590000  0.34390000  0.43 -0.0503819129
C  C20  1  0.23640000  0.76410000  0.34390000  0.43 -0.0503819129
C  C21  1  0.26360000  0.26410000  0.84390000  0.43 -0.0503819129
C  C22  1  0.73640000  0.73590000  0.84390000  0.43 -0.0503819129
C  C23  1  0.73640000  0.26410000  0.15610000  0.43 -0.0503819129
C  C24  1  0.26360000  0.73590000  0.15610000  0.43 -0.0503819129
C  C25  1  0.33580000  0.27930000  0.64640000  0.43 -0.0710894219
C  C26  1  0.66420000  0.72070000  0.64640000  0.43 -0.0710894219
C  C27  1  0.66420000  0.27930000  0.35360000  0.43 -0.0710894219
C  C28  1  0.33580000  0.72070000  0.35360000  0.43 -0.0710894219
C  C29  1  0.16420000  0.22070000  0.85360000  0.43 -0.0806155224
C  C30  1  0.83580000  0.77930000  0.85360000  0.43 -0.0710894219
C  C31  1  0.83580000  0.22070000  0.14640000  0.43 -0.0710894219
C  C32  1  0.16420000  0.77930000  0.14640000  0.43 -0.0710894219
C  C33  1  0.38705000  0.43353000  0.54476000  1.0 0.2588158231
C  C34  1  0.61295000  0.56647000  0.54476000  1.0 0.2588158231
C  C35  1  0.61295000  0.43353000  0.45524000  1.0 0.2588158231
C  C36  1  0.38705000  0.56647000  0.45524000  1.0 0.2588158231
C  C37  1  0.11295000  0.06647000  0.95524000  1.0 0.2588158231
C  C38  1  0.88705000  0.93353000  0.95524000  1.0 0.2588158231
C  C39  1  0.88705000  0.06647000  0.04476000  1.0 0.2588158231
C  C40  1  0.11295000  0.93353000  0.04476000  1.0 0.2588158231
C  C41  1  0.42856000  0.39470000  0.56057000  1.0 -0.0183482929
C  C42  1  0.57144000  0.60530000  0.56057000  1.0 -0.0183482929
C  C43  1  0.57144000  0.39470000  0.43943000  1.0 -0.0183482929
C  C44  1  0.42856000  0.60530000  0.43943000  1.0 -0.0183482929
C  C45  1  0.07144000  0.10530000  0.93943000  1.0 -0.0183482929
C  C46  1  0.92856000  0.89470000  0.93943000  1.0 -0.0183482929
C  C47  1  0.92856000  0.10530000  0.06057000  1.0 -0.0183482929
C  C48  1  0.07144000  0.89470000  0.06057000  1.0 -0.0183482929
C  C49  1  0.07667000  0.56357000  0.60242000  1.0 -0.0297020855
C  C50  1  0.92333000  0.43643000  0.60242000  1.0 -0.0297020855
C  C51  1  0.92333000  0.56357000  0.39758000  1.0 -0.0297020855
C  C52  1  0.07667000  0.43643000  0.39758000  1.0 -0.0297020855
C  C53  1  0.42333000  0.93643000  0.89758000  1.0 -0.0297020855
C  C54  1  0.57667000  0.06357000  0.89758000  1.0 -0.0297020855
C  C55  1  0.57667000  0.93643000  0.10242000  1.0 -0.0297020855
C  C56  1  0.42333000  0.06357000  0.10242000  1.0 -0.0297020855
C  C57  1  0.11886000  0.54755000  0.56444000  1.0 0.2588158231
C  C58  1  0.88114000  0.45245000  0.56444000  1.0 0.2588158231
C  C59  1  0.88114000  0.54755000  0.43556000  1.0 0.2588158231
C  C60  1  0.11886000  0.45245000  0.43556000  1.0 0.2588158231
C  C61  1  0.38114000  0.95245000  0.93556000  1.0 0.2588158231
C  C62  1  0.61886000  0.04755000  0.93556000  1.0 0.2588158231
C  C63  1  0.61886000  0.95245000  0.06444000  1.0 0.2588158231
C  C64  1  0.38114000  0.04755000  0.06444000  1.0 0.2588158231
C  C65  1  0.45572000  0.39918000  0.60978000  1.0 0.1300762417
C  C66  1  0.54428000  0.60082000  0.60978000  1.0 0.1300762417
C  C67  1  0.54428000  0.39918000  0.39022000  1.0 0.1300762417
C  C68  1  0.45572000  0.60082000  0.39022000  1.0 0.1300762417
C  C69  1  0.04428000  0.10082000  0.89022000  1.0 0.1300762417
C  C70  1  0.95572000  0.89918000  0.89022000  1.0 0.1300762417
C  C71  1  0.95572000  0.10082000  0.10978000  1.0 0.1300762417
C  C72  1  0.04428000  0.89918000  0.10978000  1.0 0.1300762417
C  C73  1  0.39385000  0.37679000  0.48525000  1.0 0.1630547848
C  C74  1  0.60615000  0.62321000  0.48525000  1.0 0.1630547848
C  C75  1  0.60615000  0.37679000  0.51475000  1.0 0.1630547848
C  C76  1  0.39385000  0.62321000  0.51475000  1.0 0.1630547848
C  C77  1  0.10615000  0.12321000  0.01475000  1.0 0.1630547848
C  C78  1  0.89385000  0.87679000  0.01475000  1.0 0.1630547848
C  C79  1  0.89385000  0.12321000  0.98525000  1.0 0.1630547848
C  C80  1  0.10615000  0.87679000  0.98525000  1.0 0.1630547848
C  C81  1  0.10381000  0.48427000  0.61588000  1.0 0.1706169974
C  C82  1  0.89619000  0.51573000  0.61588000  1.0 0.1706169974
C  C83  1  0.89619000  0.48427000  0.38412000  1.0 0.1706169974
C  C84  1  0.10381000  0.51573000  0.38412000  1.0 0.1706169974
C  C85  1  0.39619000  0.01573000  0.88412000  1.0 0.1706169974
C  C86  1  0.60381000  0.98427000  0.88412000  1.0 0.1706169974
C  C87  1  0.60381000  0.01573000  0.11588000  1.0 0.1706169974
C  C88  1  0.39619000  0.98427000  0.11588000  1.0 0.1706169974
C  C89  1  0.42899000  0.05697000  0.74966000  1.0 0.4944665115
C  C90  1  0.57101000  0.94303000  0.74966000  1.0 0.4950424116
C  C91  1  0.57101000  0.05697000  0.25034000  1.0 0.4944665115
C  C92  1  0.42899000  0.94303000  0.25034000  1.0 0.4944665115
C  C93  1  0.07101000  0.44303000  0.75034000  1.0 0.4950424116
C  C94  1  0.92899000  0.55697000  0.75034000  1.0 0.4944665115
C  C95  1  0.92899000  0.44303000  0.24966000  1.0 0.4944665115
C  C96  1  0.07101000  0.55697000  0.24966000  1.0 0.4944665115
C  C97  1  0.05392000  0.61521000  0.60046000  1.0 0.3274769131
C  C98  1  0.94608000  0.38479000  0.60046000  1.0 0.3274769131
C  C99  1  0.94608000  0.61521000  0.39954000  1.0 0.3274769131
C  C100  1  0.05392000  0.38479000  0.39954000  1.0 0.3274769131
C  C101  1  0.44608000  0.88479000  0.89954000  1.0 0.3274769131
C  C102  1  0.55392000  0.11521000  0.89954000  1.0 0.3274769131
C  C103  1  0.55392000  0.88479000  0.10046000  1.0 0.3274769131
C  C104  1  0.44608000  0.11521000  0.10046000  1.0 0.3274769131
C  C105  1  0.20844000  0.36668000  0.59402000  1.0 0.5242132824
C  C106  1  0.79156000  0.63332000  0.59402000  1.0 0.5242132824
C  C107  1  0.79156000  0.36668000  0.40598000  1.0 0.5242132824
C  C108  1  0.20844000  0.63332000  0.40598000  1.0 0.5242132824
C  C109  1  0.29156000  0.13332000  0.90598000  1.0 0.5242132824
C  C110  1  0.70844000  0.86668000  0.90598000  1.0 0.5242132824
C  C111  1  0.70844000  0.13332000  0.09402000  1.0 0.5242132824
C  C112  1  0.29156000  0.86668000  0.09402000  1.0 0.5242132824
C  C113  1  0.01869000  0.26621000  0.07909000  1.0 0.5443182271
C  C114  1  0.98131000  0.73379000  0.07909000  1.0 0.5443182271
C  C115  1  0.98131000  0.26621000  0.92091000  1.0 0.5443182271
C  C116  1  0.01869000  0.73379000  0.92091000  1.0 0.5443182271
C  C117  1  0.48131000  0.23379000  0.42091000  1.0 0.5443182271
C  C118  1  0.51869000  0.76621000  0.42091000  1.0 0.5443182271
C  C119  1  0.51869000  0.23379000  0.57909000  1.0 0.5443182271
C  C120  1  0.48131000  0.76621000  0.57909000  1.0 0.5443182271
C  C121  1  0.33579000  0.19036000  0.68562000  1.0 -0.0083527984
C  C122  1  0.66421000  0.80964000  0.68562000  1.0 -0.0083527984
C  C123  1  0.66421000  0.19036000  0.31438000  1.0 -0.0083527984
C  C124  1  0.33579000  0.80964000  0.31438000  1.0 -0.0083527984
C  C125  1  0.16421000  0.30964000  0.81438000  1.0 -0.0083527984
C  C126  1  0.83579000  0.69036000  0.81438000  1.0 -0.0083527984
C  C127  1  0.83579000  0.30964000  0.18562000  1.0 -0.0083527984
C  C128  1  0.16421000  0.69036000  0.18562000  1.0 -0.0083527984
C  C129  1  0.39608000  0.10347000  0.72756000  1.0 -0.0183482929
C  C130  1  0.60392000  0.89653000  0.72756000  1.0 -0.0183482929
C  C131  1  0.60392000  0.10347000  0.27244000  1.0 -0.0183482929
C  C132  1  0.39608000  0.89653000  0.27244000  1.0 -0.0183482929
C  C133  1  0.10392000  0.39653000  0.77244000  1.0 -0.0183482929
C  C134  1  0.89608000  0.60347000  0.77244000  1.0 -0.0183482929
C  C135  1  0.89608000  0.39653000  0.22756000  1.0 -0.0183482929
C  C136  1  0.10392000  0.60347000  0.22756000  1.0 -0.0183482929
C  C137  1  0.05530000  0.28529000  0.12485000  1.0 -0.0409830679
C  C138  1  0.94470000  0.71471000  0.12485000  1.0 -0.0409830679
C  C139  1  0.94470000  0.28529000  0.87515000  1.0 -0.0409830679
C  C140  1  0.05530000  0.71471000  0.87515000  1.0 -0.0409830679
C  C141  1  0.44470000  0.21471000  0.37515000  1.0 -0.0409830679
C  C142  1  0.55530000  0.78529000  0.37515000  1.0 -0.0409830679
C  C143  1  0.55530000  0.21471000  0.62485000  1.0 -0.0409830679
C  C144  1  0.44470000  0.78529000  0.62485000  1.0 -0.0409830679
C  C145  1  0.24191000  0.32230000  0.61893000  1.0 -0.0297020855
C  C146  1  0.75809000  0.67770000  0.61893000  1.0 -0.0297020855
C  C147  1  0.75809000  0.32230000  0.38107000  1.0 -0.0297020855
C  C148  1  0.24191000  0.67770000  0.38107000  1.0 -0.0297020855
C  C149  1  0.25809000  0.17770000  0.88107000  1.0 -0.0297020855
C  C150  1  0.74191000  0.82230000  0.88107000  1.0 -0.0297020855
C  C151  1  0.74191000  0.17770000  0.11893000  1.0 -0.0297020855
C  C152  1  0.25809000  0.82230000  0.11893000  1.0 -0.0297020855
C  C153  1  0.40085000  0.47630000  0.61886000  1.0 0.1360107237
C  C154  1  0.59915000  0.52370000  0.61886000  1.0 0.1360107237
C  C155  1  0.59915000  0.47630000  0.38114000  1.0 0.1360107237
C  C156  1  0.40085000  0.52370000  0.38114000  1.0 0.1360107237
C  C157  1  0.09915000  0.02370000  0.88114000  1.0 0.1360107237
C  C158  1  0.90085000  0.97630000  0.88114000  1.0 0.1360107237
C  C159  1  0.90085000  0.02370000  0.11886000  1.0 0.1360107237
C  C160  1  0.09915000  0.97630000  0.11886000  1.0 0.1300762417
C  C161  1  0.30367000  0.23692000  0.66317000  1.0 -0.0083527984
C  C162  1  0.69633000  0.76308000  0.66317000  1.0 -0.0083527984
C  C163  1  0.69633000  0.23692000  0.33683000  1.0 -0.0083527984
C  C164  1  0.30367000  0.76308000  0.33683000  1.0 -0.0083527984
C  C165  1  0.19633000  0.26308000  0.83683000  1.0 -0.0083527984
C  C166  1  0.80367000  0.73692000  0.83683000  1.0 -0.0083527984
C  C167  1  0.80367000  0.26308000  0.16317000  1.0 -0.0083527984
C  C168  1  0.19633000  0.73692000  0.16317000  1.0 -0.0083527984
C  C169  1  0.11360000  0.62627000  0.52670000  1.0 0.2221048456
C  C170  1  0.88640000  0.37373000  0.52670000  1.0 0.2221048456
C  C171  1  0.88640000  0.62627000  0.47330000  1.0 0.2221048456
C  C172  1  0.11360000  0.37373000  0.47330000  1.0 0.2221048456
C  C173  1  0.38640000  0.87373000  0.97330000  1.0 0.2221048456
C  C174  1  0.61360000  0.12627000  0.97330000  1.0 0.2221048456
C  C175  1  0.61360000  0.87373000  0.02670000  1.0 0.2221048456
C  C176  1  0.38640000  0.12627000  0.02670000  1.0 0.2221048456
C  C177  1  0.10760000  0.25963000  0.14245000  1.0 -0.1110015445
C  C178  1  0.89240000  0.74037000  0.14245000  1.0 -0.1110015445
C  C179  1  0.89240000  0.25963000  0.85755000  1.0 -0.1110015445
C  C180  1  0.10760000  0.74037000  0.85755000  1.0 -0.1110015445
C  C181  1  0.39240000  0.24037000  0.35755000  1.0 -0.1110015445
C  C182  1  0.60760000  0.75963000  0.35755000  1.0 -0.1110015445
C  C183  1  0.60760000  0.24037000  0.64245000  1.0 -0.1110015445
C  C184  1  0.39240000  0.75963000  0.64245000  1.0 -0.1110015445
C  C185  1  0.14070000  0.27749000  0.18430000  1.0 -0.1703919377
C  C186  1  0.85930000  0.72251000  0.18430000  1.0 -0.1703919377
C  C187  1  0.85930000  0.27749000  0.81570000  1.0 -0.1703919377
C  C188  1  0.14070000  0.72251000  0.81570000  1.0 -0.1703919377
C  C189  1  0.35930000  0.22251000  0.31570000  1.0 -0.1703919377
C  C190  1  0.64070000  0.77749000  0.31570000  1.0 -0.1703919377
C  C191  1  0.64070000  0.22251000  0.68430000  1.0 -0.1703919377
C  C192  1  0.35930000  0.77749000  0.68430000  1.0 -0.1703919377
C  C193  1  0.12310000  0.32217000  0.20930000  1.0 0.0901920506
C  C194  1  0.87690000  0.67783000  0.20930000  1.0 0.0901920506
C  C195  1  0.87690000  0.32217000  0.79070000  1.0 0.0901920506
C  C196  1  0.12310000  0.67783000  0.79070000  1.0 0.0901920506
C  C197  1  0.37690000  0.17783000  0.29070000  1.0 0.0901920506
C  C198  1  0.62310000  0.82217000  0.29070000  1.0 0.0901920506
C  C199  1  0.62310000  0.17783000  0.70930000  1.0 0.0901920506
C  C200  1  0.37690000  0.82217000  0.70930000  1.0 0.0901920506
C  C201  1  0.99180000  0.68813000  0.63360000  1.0 0.1300762417
C  C202  1  0.00820000  0.31187000  0.63360000  1.0 0.1300762417
C  C203  1  0.00820000  0.68813000  0.36640000  1.0 0.1300762417
C  C204  1  0.99180000  0.31187000  0.36640000  1.0 0.1300762417
C  C205  1  0.50820000  0.81187000  0.86640000  1.0 0.1300762417
C  C206  1  0.49180000  0.18813000  0.86640000  1.0 0.1300762417
C  C207  1  0.49180000  0.81187000  0.13360000  1.0 0.1300762417
C  C208  1  0.50820000  0.18813000  0.13360000  1.0 0.1300762417
C  C209  1  0.03410000  0.32930000  0.15110000  1.0 -0.1110015445
C  C210  1  0.96590000  0.67070000  0.15110000  1.0 -0.1110015445
C  C211  1  0.96590000  0.32930000  0.84890000  1.0 -0.1110015445
C  C212  1  0.03410000  0.67070000  0.84890000  1.0 -0.1110015445
C  C213  1  0.46590000  0.17070000  0.34890000  1.0 -0.1110015445
C  C214  1  0.53410000  0.82930000  0.34890000  1.0 -0.1110015445
C  C215  1  0.53410000  0.17070000  0.65110000  1.0 -0.1110015445
C  C216  1  0.46590000  0.82930000  0.65110000  1.0 -0.1110015445
C  C217  1  0.06810000  0.34750000  0.19180000  1.0 -0.2241868842
C  C218  1  0.93190000  0.65250000  0.19180000  1.0 -0.2241868842
C  C219  1  0.93190000  0.34750000  0.80820000  1.0 -0.2241868842
C  C220  1  0.06810000  0.65250000  0.80820000  1.0 -0.2241868842
C  C221  1  0.43190000  0.15250000  0.30820000  1.0 -0.2241868842
C  C222  1  0.56810000  0.84750000  0.30820000  1.0 -0.2241868842
C  C223  1  0.56810000  0.15250000  0.69180000  1.0 -0.2241868842
C  C224  1  0.43190000  0.84750000  0.69180000  1.0 -0.2241868842
C  C225  1  0.53090000  0.36670000  0.67730000  0.4 0.0801273958
C  C226  1  0.46910000  0.63330000  0.67730000  0.4 0.0801273958
C  C227  1  0.46910000  0.36670000  0.32270000  0.4 0.0801273958
C  C228  1  0.53090000  0.63330000  0.32270000  0.4 0.0801273958
C  C229  1  0.96910000  0.13330000  0.82270000  0.4 0.0801273958
C  C230  1  0.03090000  0.86670000  0.82270000  0.4 0.0801273958
C  C231  1  0.03090000  0.13330000  0.17730000  0.4 0.0801273958
C  C232  1  0.96910000  0.86670000  0.17730000  0.4 0.0801273958
C  C233  1  0.18800000  0.40270000  0.31750000  0.5 -0.1110015445
C  C234  1  0.81200000  0.59730000  0.31750000  0.5 -0.1110015445
C  C235  1  0.81200000  0.40270000  0.68250000  0.5 -0.1110015445
C  C236  1  0.18800000  0.59730000  0.68250000  0.5 -0.1110015445
C  C237  1  0.31200000  0.09730000  0.18250000  0.5 -0.1110015445
C  C238  1  0.68800000  0.90270000  0.18250000  0.5 -0.1110015445
C  C239  1  0.68800000  0.09730000  0.81750000  0.5 -0.1110015445
C  C240  1  0.31200000  0.90270000  0.81750000  0.5 -0.1110015445
C  C241  1  0.25080000  0.38650000  0.32350000  0.5 0.0294560596
C  C242  1  0.74920000  0.61350000  0.32350000  0.5 0.0294560596
C  C243  1  0.74920000  0.38650000  0.67650000  0.5 0.0294560596
C  C244  1  0.25080000  0.61350000  0.67650000  0.5 0.0294560596
C  C245  1  0.24920000  0.11350000  0.17650000  0.5 0.0294560596
C  C246  1  0.75080000  0.88650000  0.17650000  0.5 0.0294560596
C  C247  1  0.75080000  0.11350000  0.82350000  0.5 0.0294560596
C  C248  1  0.24920000  0.88650000  0.82350000  0.5 0.0294560596
C  C249  1  0.27710000  0.35080000  0.28950000  0.5 -0.1703919377
C  C250  1  0.72290000  0.64920000  0.28950000  0.5 -0.1703919377
C  C251  1  0.72290000  0.35080000  0.71050000  0.5 -0.1703919377
C  C252  1  0.27710000  0.64920000  0.71050000  0.5 -0.1703919377
C  C253  1  0.22290000  0.14920000  0.21050000  0.5 -0.1703919377
C  C254  1  0.77710000  0.85080000  0.21050000  0.5 -0.1703919377
C  C255  1  0.77710000  0.14920000  0.78950000  0.5 -0.1703919377
C  C256  1  0.22290000  0.85080000  0.78950000  0.5 -0.1703919377
C  C257  1  0.24060000  0.33130000  0.24940000  0.5 -0.1196578415
C  C258  1  0.75940000  0.66870000  0.24940000  0.5 -0.1196578415
C  C259  1  0.75940000  0.33130000  0.75060000  0.5 -0.1196578415
C  C260  1  0.24060000  0.66870000  0.75060000  0.5 -0.1196578415
C  C261  1  0.25940000  0.16870000  0.25060000  0.5 -0.1196578415
C  C262  1  0.74060000  0.83130000  0.25060000  0.5 -0.1196578415
C  C263  1  0.74060000  0.16870000  0.74940000  0.5 -0.1196578415
C  C264  1  0.25940000  0.83130000  0.74940000  0.5 -0.1196578415
C  C265  1  0.17780000  0.34750000  0.24330000  0.5 0.0801273958
C  C266  1  0.82220000  0.65250000  0.24330000  0.5 0.0801273958
C  C267  1  0.82220000  0.34750000  0.75670000  0.5 0.0801273958
C  C268  1  0.17780000  0.65250000  0.75670000  0.5 0.0801273958
C  C269  1  0.32220000  0.15250000  0.25670000  0.5 0.0801273958
C  C270  1  0.67780000  0.84750000  0.25670000  0.5 0.0801273958
C  C271  1  0.67780000  0.15250000  0.74330000  0.5 0.0801273958
C  C272  1  0.32220000  0.84750000  0.74330000  0.5 0.0801273958
C  C273  1  0.15150000  0.38330000  0.27740000  0.5 -0.1196578415
C  C274  1  0.84850000  0.61670000  0.27740000  0.5 -0.1196578415
C  C275  1  0.84850000  0.38330000  0.72260000  0.5 -0.1196578415
C  C276  1  0.15150000  0.61670000  0.72260000  0.5 -0.1196578415
C  C277  1  0.34850000  0.11670000  0.22260000  0.5 -0.1196578415
C  C278  1  0.65150000  0.88330000  0.22260000  0.5 -0.1196578415
C  C279  1  0.65150000  0.11670000  0.77740000  0.5 -0.1196578415
C  C280  1  0.34850000  0.88330000  0.77740000  0.5 -0.1196578415
C  C281  1  0.26060000  0.39240000  0.38860000  0.5 0.2879042756
C  C282  1  0.73940000  0.60760000  0.38860000  0.5 0.2879042756
C  C283  1  0.73940000  0.39240000  0.61140000  0.5 0.2879042756
C  C284  1  0.26060000  0.60760000  0.61140000  0.5 0.2879042756
C  C285  1  0.23940000  0.10760000  0.11140000  0.5 0.2879042756
C  C286  1  0.76060000  0.89240000  0.11140000  0.5 0.2879042756
C  C287  1  0.76060000  0.10760000  0.88860000  0.5 0.2879042756
C  C288  1  0.23940000  0.89240000  0.88860000  0.5 0.2879042756
C  C289  1  0.39000000  0.19740000  0.71390000  0.5 -0.0806155224
C  C290  1  0.61000000  0.80260000  0.71390000  0.5 -0.0806155224
C  C291  1  0.61000000  0.19740000  0.28610000  0.5 -0.0806155224
C  C292  1  0.39000000  0.80260000  0.28610000  0.5 -0.0806155224
C  C293  1  0.11000000  0.30260000  0.78610000  0.5 -0.0806155224
C  C294  1  0.89000000  0.69740000  0.78610000  0.5 -0.0806155224
C  C295  1  0.89000000  0.30260000  0.21390000  0.5 -0.0806155224
C  C296  1  0.11000000  0.69740000  0.21390000  0.5 -0.0806155224
C  C297  1  0.17900000  0.30217000  0.29348000  0.5 -0.1196578415
C  C298  1  0.82100000  0.69783000  0.29348000  0.5 -0.1196578415
C  C299  1  0.82100000  0.30217000  0.70652000  0.5 -0.1196578415
C  C300  1  0.17900000  0.69783000  0.70652000  0.5 -0.1196578415
C  C301  1  0.32100000  0.19783000  0.20652000  0.5 -0.1196578415
C  C302  1  0.67900000  0.80217000  0.20652000  0.5 -0.1196578415
C  C303  1  0.67900000  0.19783000  0.79348000  0.5 -0.1196578415
C  C304  1  0.32100000  0.80217000  0.79348000  0.5 -0.1196578415
C  C305  1  0.15060000  0.33771000  0.26030000  0.5 0.0475939941
C  C306  1  0.84940000  0.66229000  0.26030000  0.5 0.0475939941
C  C307  1  0.84940000  0.33771000  0.73970000  0.5 0.0475939941
C  C308  1  0.15060000  0.66229000  0.73970000  0.5 0.0475939941
C  C309  1  0.34940000  0.16229000  0.23970000  0.5 0.0475939941
C  C310  1  0.65060000  0.83771000  0.23970000  0.5 0.0475939941
C  C311  1  0.65060000  0.16229000  0.76030000  0.5 0.0475939941
C  C312  1  0.34940000  0.83771000  0.76030000  0.5 0.0475939941
C  C313  1  0.15770000  0.39103000  0.26860000  0.5 -0.1110015445
C  C314  1  0.84230000  0.60897000  0.26860000  0.5 -0.1110015445
C  C315  1  0.84230000  0.39103000  0.73140000  0.5 -0.1110015445
C  C316  1  0.15770000  0.60897000  0.73140000  0.5 -0.1110015445
C  C317  1  0.34230000  0.10897000  0.23140000  0.5 -0.1110015445
C  C318  1  0.65770000  0.89103000  0.23140000  0.5 -0.1110015445
C  C319  1  0.65770000  0.10897000  0.76860000  0.5 -0.1110015445
C  C320  1  0.34230000  0.89103000  0.76860000  0.5 -0.1110015445
C  C321  1  0.19300000  0.40882000  0.31010000  0.5 -0.1110015445
C  C322  1  0.80700000  0.59118000  0.31010000  0.5 -0.1110015445
C  C323  1  0.80700000  0.40882000  0.68990000  0.5 -0.1110015445
C  C324  1  0.19300000  0.59118000  0.68990000  0.5 -0.1110015445
C  C325  1  0.30700000  0.09118000  0.18990000  0.5 -0.1110015445
C  C326  1  0.69300000  0.90882000  0.18990000  0.5 -0.1110015445
C  C327  1  0.69300000  0.09118000  0.81010000  0.5 -0.1110015445
C  C328  1  0.30700000  0.90882000  0.81010000  0.5 -0.1110015445
C  C329  1  0.22140000  0.37328000  0.34324000  0.5 0.0294560596
C  C330  1  0.77860000  0.62672000  0.34324000  0.5 0.0294560596
C  C331  1  0.77860000  0.37328000  0.65676000  0.5 0.0294560596
C  C332  1  0.22140000  0.62672000  0.65676000  0.5 0.0294560596
C  C333  1  0.27860000  0.12672000  0.15676000  0.5 0.0294560596
C  C334  1  0.72140000  0.87328000  0.15676000  0.5 0.0294560596
C  C335  1  0.72140000  0.12672000  0.84324000  0.5 0.0294560596
C  C336  1  0.27860000  0.87328000  0.84324000  0.5 0.0294560596
C  C337  1  0.21430000  0.31996000  0.33494000  0.5 -0.1533367951
C  C338  1  0.78570000  0.68004000  0.33494000  0.5 -0.1533367951
C  C339  1  0.78570000  0.31996000  0.66506000  0.5 -0.1533367951
C  C340  1  0.21430000  0.68004000  0.66506000  0.5 -0.1533367951
C  C341  1  0.28570000  0.18004000  0.16506000  0.5 -0.1533367951
C  C342  1  0.71430000  0.81996000  0.16506000  0.5 -0.1533367951
C  C343  1  0.71430000  0.18004000  0.83494000  0.5 -0.1533367951
C  C344  1  0.28570000  0.81996000  0.83494000  0.5 -0.1533367951
C  C345  1  0.42070000  0.15410000  0.73490000  0.5 -0.0596859405
C  C346  1  0.57930000  0.84590000  0.73490000  0.5 -0.0596859405
C  C347  1  0.57930000  0.15410000  0.26510000  0.5 -0.0596859405
C  C348  1  0.42070000  0.84590000  0.26510000  0.5 -0.0596859405
C  C349  1  0.07930000  0.34590000  0.76510000  0.5 -0.0596859405
C  C350  1  0.92070000  0.65410000  0.76510000  0.5 -0.0596859405
C  C351  1  0.92070000  0.34590000  0.23490000  0.5 -0.0596859405
C  C352  1  0.07930000  0.65410000  0.23490000  0.5 -0.0596859405
C  C353  1  0.38040000  0.10420000  0.67540000  0.5 -0.0710894219
C  C354  1  0.61960000  0.89580000  0.67540000  0.5 -0.0710894219
C  C355  1  0.61960000  0.10420000  0.32460000  0.5 -0.0710894219
C  C356  1  0.38040000  0.89580000  0.32460000  0.5 -0.0710894219
C  C357  1  0.11960000  0.39580000  0.82460000  0.5 -0.0710894219
C  C358  1  0.88040000  0.60420000  0.82460000  0.5 -0.0710894219
C  C359  1  0.88040000  0.39580000  0.17540000  0.5 -0.0710894219
C  C360  1  0.11960000  0.60420000  0.17540000  0.5 -0.0710894219
C  C361  1  0.31170000  0.14120000  0.67870000  0.5 -0.0596859405
C  C362  1  0.68830000  0.85880000  0.67870000  0.5 -0.0596859405
C  C363  1  0.68830000  0.14120000  0.32130000  0.5 -0.0596859405
C  C364  1  0.31170000  0.85880000  0.32130000  0.5 -0.0596859405
C  C365  1  0.18830000  0.35880000  0.82130000  0.5 -0.0596859405
C  C366  1  0.81170000  0.64120000  0.82130000  0.5 -0.0596859405
C  C367  1  0.81170000  0.35880000  0.17870000  0.5 -0.0596859405
C  C368  1  0.18830000  0.64120000  0.17870000  0.5 -0.0596859405
C  C369  1  0.34990000  0.18580000  0.73570000  0.5 -0.0596859405
C  C370  1  0.65010000  0.81420000  0.73570000  0.5 -0.0596859405
C  C371  1  0.65010000  0.18580000  0.26430000  0.5 -0.0596859405
C  C372  1  0.34990000  0.81420000  0.26430000  0.5 -0.0596859405
C  C373  1  0.15010000  0.31420000  0.76430000  0.5 -0.0596859405
C  C374  1  0.84990000  0.68580000  0.76430000  0.5 -0.0596859405
C  C375  1  0.84990000  0.31420000  0.23570000  0.5 -0.0596859405
C  C376  1  0.15010000  0.68580000  0.23570000  0.5 -0.0596859405
C  C377  1  0.38160000  0.14290000  0.75540000  0.5 -0.0710894219
C  C378  1  0.61840000  0.85710000  0.75540000  0.5 -0.0710894219
C  C379  1  0.61840000  0.14290000  0.24460000  0.5 -0.0710894219
C  C380  1  0.38160000  0.85710000  0.24460000  0.5 -0.0710894219
C  C381  1  0.11840000  0.35710000  0.74460000  0.5 -0.0710894219
C  C382  1  0.88160000  0.64290000  0.74460000  0.5 -0.0710894219
C  C383  1  0.88160000  0.35710000  0.25540000  0.5 -0.0710894219
C  C384  1  0.11840000  0.64290000  0.25540000  0.5 -0.0710894219
C  C385  1  0.35110000  0.14780000  0.65460000  0.5 -0.0806155224
C  C386  1  0.64890000  0.85220000  0.65460000  0.5 -0.0710894219
C  C387  1  0.64890000  0.14780000  0.34540000  0.5 -0.0806155224
C  C388  1  0.35110000  0.85220000  0.34540000  0.5 -0.0806155224
C  C389  1  0.14890000  0.35220000  0.84540000  0.5 -0.0806155224
C  C390  1  0.85110000  0.64780000  0.84540000  0.5 -0.0710894219
C  C391  1  0.85110000  0.35220000  0.15460000  0.5 -0.0710894219
C  C392  1  0.14890000  0.64780000  0.15460000  0.5 -0.0806155224
C  C393  1  0.34130000  0.09800000  0.70050000  0.5 -0.0710894219
C  C394  1  0.65870000  0.90200000  0.70050000  0.5 -0.0596859405
C  C395  1  0.65870000  0.09800000  0.29950000  0.5 -0.0710894219
C  C396  1  0.34130000  0.90200000  0.29950000  0.5 -0.0710894219
C  C397  1  0.15870000  0.40200000  0.79950000  0.5 -0.0710894219
C  C398  1  0.84130000  0.59800000  0.79950000  0.5 -0.0596859405
C  C399  1  0.84130000  0.40200000  0.20050000  0.5 -0.0710894219
C  C400  1  0.15870000  0.59800000  0.20050000  0.5 -0.0710894219
C  C401  1  0.28830000  0.40640000  0.36780000  0.5 0.2879042756
C  C402  1  0.71170000  0.59360000  0.36780000  0.5 0.2879042756
C  C403  1  0.71170000  0.40640000  0.63220000  0.5 0.2879042756
C  C404  1  0.28830000  0.59360000  0.63220000  0.5 0.2879042756
C  C405  1  0.21170000  0.09360000  0.13220000  0.5 0.2879042756
C  C406  1  0.78830000  0.90640000  0.13220000  0.5 0.2879042756
C  C407  1  0.78830000  0.09360000  0.86780000  0.5 0.2879042756
C  C408  1  0.21170000  0.90640000  0.86780000  0.5 0.2879042756
C  C409  1  0.30050000  0.30500000  0.59970000  0.57 -0.0409830679
C  C410  1  0.69950000  0.69500000  0.59970000  0.57 -0.0409830679
C  C411  1  0.69950000  0.30500000  0.40030000  0.57 -0.0409830679
C  C412  1  0.30050000  0.69500000  0.40030000  0.57 -0.0409830679
C  C413  1  0.19950000  0.19500000  0.90030000  0.57 -0.0409830679
C  C414  1  0.80050000  0.80500000  0.90030000  0.57 -0.0409830679
C  C415  1  0.80050000  0.19500000  0.09970000  0.57 -0.0409830679
C  C416  1  0.19950000  0.80500000  0.09970000  0.57 -0.0409830679
C  C417  1  0.33060000  0.26250000  0.62170000  0.57 -0.0503819129
C  C418  1  0.66940000  0.73750000  0.62170000  0.57 -0.0503819129
C  C419  1  0.66940000  0.26250000  0.37830000  0.57 -0.0503819129
C  C420  1  0.33060000  0.73750000  0.37830000  0.57 -0.0503819129
C  C421  1  0.16940000  0.23750000  0.87830000  0.57 -0.0503819129
C  C422  1  0.83060000  0.76250000  0.87830000  0.57 -0.0503819129
C  C423  1  0.83060000  0.23750000  0.12170000  0.57 -0.0503819129
C  C424  1  0.16940000  0.76250000  0.12170000  0.57 -0.0503819129
C  C425  1  0.21990000  0.29940000  0.66340000  0.57 -0.0806155224
C  C426  1  0.78010000  0.70060000  0.66340000  0.57 -0.0806155224
C  C427  1  0.78010000  0.29940000  0.33660000  0.57 -0.0806155224
C  C428  1  0.21990000  0.70060000  0.33660000  0.57 -0.0806155224
C  C429  1  0.28010000  0.20060000  0.83660000  0.57 -0.0806155224
C  C430  1  0.71990000  0.79940000  0.83660000  0.57 -0.0806155224
C  C431  1  0.71990000  0.20060000  0.16340000  0.57 -0.0806155224
C  C432  1  0.28010000  0.79940000  0.16340000  0.57 -0.0806155224
C  C433  1  0.24980000  0.25880000  0.68540000  0.57 -0.0806155224
C  C434  1  0.75020000  0.74120000  0.68540000  0.57 -0.0806155224
C  C435  1  0.75020000  0.25880000  0.31460000  0.57 -0.0806155224
C  C436  1  0.24980000  0.74120000  0.31460000  0.57 -0.0806155224
C  C437  1  0.25020000  0.24120000  0.81460000  0.57 -0.0806155224
C  C438  1  0.74980000  0.75880000  0.81460000  0.57 -0.0806155224
C  C439  1  0.74980000  0.24120000  0.18540000  0.57 -0.0806155224
C  C440  1  0.25020000  0.75880000  0.18540000  0.57 -0.0806155224
C  C441  1  0.51600000  0.36430000  0.68110000  0.6 0.0801273958
C  C442  1  0.48400000  0.63570000  0.68110000  0.6 0.0801273958
C  C443  1  0.48400000  0.36430000  0.31890000  0.6 0.0801273958
C  C444  1  0.51600000  0.63570000  0.31890000  0.6 0.0801273958
C  C445  1  0.98400000  0.13570000  0.81890000  0.6 0.0801273958
C  C446  1  0.01600000  0.86430000  0.81890000  0.6 0.0801273958
C  C447  1  0.01600000  0.13570000  0.18110000  0.6 0.0801273958
C  C448  1  0.98400000  0.86430000  0.18110000  0.6 0.0801273958
N  N1  1  0.43246000  0.35773000  0.52202000  1.0 -0.3602038168
N  N2  1  0.56754000  0.64227000  0.52202000  1.0 -0.3602038168
N  N3  1  0.56754000  0.35773000  0.47798000  1.0 -0.3602038168
N  N4  1  0.43246000  0.64227000  0.47798000  1.0 -0.3602038168
N  N5  1  0.06754000  0.14227000  0.97798000  1.0 -0.3602038168
N  N6  1  0.93246000  0.85773000  0.97798000  1.0 -0.3602038168
N  N7  1  0.93246000  0.14227000  0.02202000  1.0 -0.3602038168
N  N8  1  0.06754000  0.85773000  0.02202000  1.0 -0.3602038168
N  N9  1  0.13599000  0.49696000  0.57327000  1.0 -0.3602038168
N  N10  1  0.86401000  0.50304000  0.57327000  1.0 -0.3602038168
N  N11  1  0.86401000  0.49696000  0.42673000  1.0 -0.3602038168
N  N12  1  0.13599000  0.50304000  0.42673000  1.0 -0.3602038168
N  N13  1  0.36401000  0.00304000  0.92673000  1.0 -0.3602038168
N  N14  1  0.63599000  0.99696000  0.92673000  1.0 -0.3602038168
N  N15  1  0.63599000  0.00304000  0.07327000  1.0 -0.3602038168
N  N16  1  0.36401000  0.99696000  0.07327000  1.0 -0.3602038168
N  N17  1  0.36565000  0.42217000  0.49681000  1.0 -0.3308584133
N  N18  1  0.63435000  0.57783000  0.49681000  1.0 -0.3308584133
N  N19  1  0.63435000  0.42217000  0.50319000  1.0 -0.3308584133
N  N20  1  0.36565000  0.57783000  0.50319000  1.0 -0.3308584133
N  N21  1  0.13435000  0.07783000  0.00319000  1.0 -0.3308584133
N  N22  1  0.86565000  0.92217000  0.00319000  1.0 -0.3308584133
N  N23  1  0.86565000  0.07783000  0.99681000  1.0 -0.3308584133
N  N24  1  0.13435000  0.92217000  0.99681000  1.0 -0.337678994
N  N25  1  0.06775000  0.52190000  0.63560000  1.0 -0.3308584133
N  N26  1  0.93225000  0.47810000  0.63560000  1.0 -0.3308584133
N  N27  1  0.93225000  0.52190000  0.36440000  1.0 -0.3308584133
N  N28  1  0.06775000  0.47810000  0.36440000  1.0 -0.3308584133
N  N29  1  0.43225000  0.97810000  0.86440000  1.0 -0.3308584133
N  N30  1  0.56775000  0.02190000  0.86440000  1.0 -0.3308584133
N  N31  1  0.56775000  0.97810000  0.13560000  1.0 -0.3308584133
N  N32  1  0.43225000  0.02190000  0.13560000  1.0 -0.3308584133
N  N33  1  0.37176000  0.47592000  0.57348000  1.0 -0.337678994
N  N34  1  0.62824000  0.52408000  0.57348000  1.0 -0.337678994
N  N35  1  0.62824000  0.47592000  0.42652000  1.0 -0.337678994
N  N36  1  0.37176000  0.52408000  0.42652000  1.0 -0.337678994
N  N37  1  0.12824000  0.02408000  0.92652000  1.0 -0.337678994
N  N38  1  0.87176000  0.97592000  0.92652000  1.0 -0.337678994
N  N39  1  0.87176000  0.02408000  0.07348000  1.0 -0.337678994
N  N40  1  0.12824000  0.97592000  0.07348000  1.0 -0.337678994
N  N41  1  0.13882000  0.57812000  0.52490000  1.0 -0.3493921291
N  N42  1  0.86118000  0.42188000  0.52490000  1.0 -0.3493921291
N  N43  1  0.86118000  0.57812000  0.47510000  1.0 -0.3493921291
N  N44  1  0.13882000  0.42188000  0.47510000  1.0 -0.3493921291
N  N45  1  0.36118000  0.92188000  0.97510000  1.0 -0.3493921291
N  N46  1  0.63882000  0.07812000  0.97510000  1.0 -0.3493921291
N  N47  1  0.63882000  0.92188000  0.02490000  1.0 -0.3493921291
N  N48  1  0.36118000  0.07812000  0.02490000  1.0 -0.3493921291
N  N49  1  0.44079000  0.44099000  0.63802000  1.0 -0.3602038168
N  N50  1  0.55921000  0.55901000  0.63802000  1.0 -0.3602038168
N  N51  1  0.55921000  0.44099000  0.36198000  1.0 -0.3602038168
N  N52  1  0.44079000  0.55901000  0.36198000  1.0 -0.3602038168
N  N53  1  0.05921000  0.05901000  0.86198000  1.0 -0.3602038168
N  N54  1  0.94079000  0.94099000  0.86198000  1.0 -0.3602038168
N  N55  1  0.94079000  0.05901000  0.13802000  1.0 -0.3602038168
N  N56  1  0.05921000  0.94099000  0.13802000  1.0 -0.3602038168
N  N57  1  0.49507000  0.36262000  0.62938000  1.0 -0.2653464135
N  N58  1  0.50493000  0.63738000  0.62938000  1.0 -0.2653464135
N  N59  1  0.50493000  0.36262000  0.37062000  1.0 -0.2653464135
N  N60  1  0.49507000  0.63738000  0.37062000  1.0 -0.2653464135
N  N61  1  0.00493000  0.13738000  0.87062000  1.0 -0.2653464135
N  N62  1  0.99507000  0.86262000  0.87062000  1.0 -0.2653464135
N  N63  1  0.99507000  0.13738000  0.12938000  1.0 -0.2653464135
N  N64  1  0.00493000  0.86262000  0.12938000  1.0 -0.2653464135
N  N65  1  0.07361000  0.64573000  0.56156000  1.0 -0.3493921291
N  N66  1  0.92639000  0.35427000  0.56156000  1.0 -0.3493921291
N  N67  1  0.92639000  0.64573000  0.43844000  1.0 -0.3493921291
N  N68  1  0.07361000  0.35427000  0.43844000  1.0 -0.3493921291
N  N69  1  0.42639000  0.85427000  0.93844000  1.0 -0.3493921291
N  N70  1  0.57361000  0.14573000  0.93844000  1.0 -0.3493921291
N  N71  1  0.57361000  0.85427000  0.06156000  1.0 -0.3493921291
N  N72  1  0.42639000  0.14573000  0.06156000  1.0 -0.3493921291
N  N73  1  0.01434000  0.63554000  0.63539000  1.0 -0.4039075319
N  N74  1  0.98566000  0.36446000  0.63539000  1.0 -0.4039075319
N  N75  1  0.98566000  0.63554000  0.36461000  1.0 -0.4039075319
N  N76  1  0.01434000  0.36446000  0.36461000  1.0 -0.4039075319
N  N77  1  0.48566000  0.86446000  0.86461000  1.0 -0.4039075319
N  N78  1  0.51434000  0.13554000  0.86461000  1.0 -0.4039075319
N  N79  1  0.51434000  0.86446000  0.13539000  1.0 -0.4039075319
N  N80  1  0.48566000  0.13554000  0.13539000  1.0 -0.4039075319
O  O1  1  0.25272000  0.50000000  0.50000000  1.0 -0.8283577878
O  O2  1  0.74728000  0.50000000  0.50000000  1.0 -0.8283577878
O  O3  1  0.24728000  0.00000000  0.00000000  1.0 -0.8283577878
O  O4  1  0.75272000  0.00000000  0.00000000  1.0 -0.8283577878
O  O5  1  0.03642000  0.22193000  0.06200000  1.0 -0.5818817783
O  O6  1  0.96358000  0.77807000  0.06200000  1.0 -0.5818817783
O  O7  1  0.96358000  0.22193000  0.93800000  1.0 -0.5818817783
O  O8  1  0.03642000  0.77807000  0.93800000  1.0 -0.5818817783
O  O9  1  0.46358000  0.27807000  0.43800000  1.0 -0.5818817783
O  O10  1  0.53642000  0.72193000  0.43800000  1.0 -0.5818817783
O  O11  1  0.53642000  0.27807000  0.56200000  1.0 -0.5818817783
O  O12  1  0.46358000  0.72193000  0.56200000  1.0 -0.5818817783
O  O13  1  0.46844000  0.06581000  0.78611000  1.0 -0.5302753765
O  O14  1  0.53156000  0.93419000  0.78611000  1.0 -0.5302753765
O  O15  1  0.53156000  0.06581000  0.21389000  1.0 -0.5302753765
O  O16  1  0.46844000  0.93419000  0.21389000  1.0 -0.5302753765
O  O17  1  0.03156000  0.43419000  0.71389000  1.0 -0.5302753765
O  O18  1  0.96844000  0.56581000  0.71389000  1.0 -0.5302753765
O  O19  1  0.96844000  0.43419000  0.28611000  1.0 -0.5302753765
O  O20  1  0.03156000  0.56581000  0.28611000  1.0 -0.5302753765
O  O21  1  0.24225000  0.39734000  0.56744000  1.0 -0.4860731233
O  O22  1  0.75775000  0.60266000  0.56744000  1.0 -0.4860731233
O  O23  1  0.75775000  0.39734000  0.43256000  1.0 -0.4860731233
O  O24  1  0.24225000  0.60266000  0.43256000  1.0 -0.4860731233
O  O25  1  0.25775000  0.10266000  0.93256000  1.0 -0.4860731233
O  O26  1  0.74225000  0.89734000  0.93256000  1.0 -0.4860731233
O  O27  1  0.74225000  0.10266000  0.06744000  1.0 -0.4860731233
O  O28  1  0.25775000  0.89734000  0.06744000  1.0 -0.4860731233
O  O29  1  0.26662000  0.43969000  0.39334000  1.0 -0.3079525102
O  O30  1  0.73338000  0.56031000  0.39334000  1.0 -0.3079525102
O  O31  1  0.73338000  0.43969000  0.60666000  1.0 -0.3079525102
O  O32  1  0.26662000  0.56031000  0.60666000  1.0 -0.3079525102
O  O33  1  0.23338000  0.06031000  0.10666000  1.0 -0.3079525102
O  O34  1  0.76662000  0.93969000  0.10666000  1.0 -0.3079525102
O  O35  1  0.76662000  0.06031000  0.89334000  1.0 -0.3079525102
O  O36  1  0.23338000  0.93969000  0.89334000  1.0 -0.3079525102
O  O37  1  0.14969000  0.37158000  0.59819000  1.0 -0.5637683589
O  O38  1  0.85031000  0.62842000  0.59819000  1.0 -0.5637683589
O  O39  1  0.85031000  0.37158000  0.40181000  1.0 -0.5637683589
O  O40  1  0.14969000  0.62842000  0.40181000  1.0 -0.5637683589
O  O41  1  0.35031000  0.12842000  0.90181000  1.0 -0.5637683589
O  O42  1  0.64969000  0.87158000  0.90181000  1.0 -0.5637683589
O  O43  1  0.64969000  0.12842000  0.09819000  1.0 -0.5637683589
O  O44  1  0.35031000  0.87158000  0.09819000  1.0 -0.5637683589
O  O45  1  0.97419000  0.29088000  0.06076000  1.0 -0.5068990309
O  O46  1  0.02581000  0.70912000  0.06076000  1.0 -0.5068990309
O  O47  1  0.02581000  0.29088000  0.93924000  1.0 -0.5068990309
O  O48  1  0.97419000  0.70912000  0.93924000  1.0 -0.5068990309
O  O49  1  0.52581000  0.20912000  0.43924000  1.0 -0.5068990309
O  O50  1  0.47419000  0.79088000  0.43924000  1.0 -0.5068990309
O  O51  1  0.47419000  0.20912000  0.56076000  1.0 -0.5068990309
O  O52  1  0.52581000  0.79088000  0.56076000  1.0 -0.5068990309
O  O53  1  0.41772000  0.01236000  0.73475000  1.0 -0.4508748818
O  O54  1  0.58228000  0.98764000  0.73475000  1.0 -0.4508748818
O  O55  1  0.58228000  0.01236000  0.26525000  1.0 -0.4508748818
O  O56  1  0.41772000  0.98764000  0.26525000  1.0 -0.4508748818
O  O57  1  0.08228000  0.48764000  0.76525000  1.0 -0.4508748818
O  O58  1  0.91772000  0.51236000  0.76525000  1.0 -0.4508748818
O  O59  1  0.91772000  0.48764000  0.23475000  1.0 -0.4508748818
O  O60  1  0.08228000  0.51236000  0.23475000  1.0 -0.4508748818
O  O61  1  0.95120000  0.69890000  0.59660000  1.0 -0.37554002
O  O62  1  0.04880000  0.30110000  0.59660000  1.0 -0.37554002
O  O63  1  0.04880000  0.69890000  0.40340000  1.0 -0.37554002
O  O64  1  0.95120000  0.30110000  0.40340000  1.0 -0.37472439
O  O65  1  0.54880000  0.80110000  0.90340000  1.0 -0.37554002
O  O66  1  0.45120000  0.19890000  0.90340000  1.0 -0.37554002
O  O67  1  0.45120000  0.80110000  0.09660000  1.0 -0.37554002
O  O68  1  0.54880000  0.19890000  0.09660000  1.0 -0.37472439
O  O69  1  0.48720000  0.34300000  0.71500000  0.4 -0.2537555862
O  O70  1  0.51280000  0.65700000  0.71500000  0.4 -0.2537555862
O  O71  1  0.51280000  0.34300000  0.28500000  0.4 -0.2537555862
O  O72  1  0.48720000  0.65700000  0.28500000  0.4 -0.2537555862
O  O73  1  0.01280000  0.15700000  0.78500000  0.4 -0.2537555862
O  O74  1  0.98720000  0.84300000  0.78500000  0.4 -0.2537555862
O  O75  1  0.98720000  0.15700000  0.21500000  0.4 -0.2537555862
O  O76  1  0.01280000  0.84300000  0.21500000  0.4 -0.2537555862
O  O77  1  0.27900000  0.36130000  0.42130000  0.5 -0.3869733345
O  O78  1  0.72100000  0.63870000  0.42130000  0.5 -0.3869733345
O  O79  1  0.72100000  0.36130000  0.57870000  0.5 -0.3869733345
O  O80  1  0.27900000  0.63870000  0.57870000  0.5 -0.3869733345
O  O81  1  0.22100000  0.13870000  0.07870000  0.5 -0.3869733345
O  O82  1  0.77900000  0.86130000  0.07870000  0.5 -0.3869733345
O  O83  1  0.77900000  0.13870000  0.92130000  0.5 -0.3869733345
O  O84  1  0.22100000  0.86130000  0.92130000  0.5 -0.3869733345
O  O85  1  0.34710000  0.39560000  0.37200000  0.5 -0.4441193808
O  O86  1  0.65290000  0.60440000  0.37200000  0.5 -0.4441193808
O  O87  1  0.65290000  0.39560000  0.62800000  0.5 -0.4441193808
O  O88  1  0.34710000  0.60440000  0.62800000  0.5 -0.4441193808
O  O89  1  0.15290000  0.10440000  0.12800000  0.5 -0.4441193808
O  O90  1  0.84710000  0.89560000  0.12800000  0.5 -0.4441193808
O  O91  1  0.84710000  0.10440000  0.87200000  0.5 -0.4441193808
O  O92  1  0.15290000  0.89560000  0.87200000  0.5 -0.4441193808
O  O93  1  0.56970000  0.39860000  0.68390000  0.6 -0.197614776
O  O94  1  0.43030000  0.60140000  0.68390000  0.6 -0.197614776
O  O95  1  0.43030000  0.39860000  0.31610000  0.6 -0.197614776
O  O96  1  0.56970000  0.60140000  0.31610000  0.6 -0.197614776
O  O97  1  0.93030000  0.10140000  0.81610000  0.6 -0.197614776
O  O98  1  0.06970000  0.89860000  0.81610000  0.6 -0.197614776
O  O99  1  0.06970000  0.10140000  0.18390000  0.6 -0.197614776
O  O100  1  0.93030000  0.89860000  0.18390000  0.6 -0.197614776
