# DDEC6 charges by PACMAN v1.1 (https://github.com/mtap-research/PACMAN-charge/)
data_ja903726m_si_002_FSR_pacman
_symmetry_space_group_name_H-M   'P 1'
_cell_length_a   18.65430000
_cell_length_b   18.65430000
_cell_length_c   18.14440000
_cell_angle_alpha   90.00000000
_cell_angle_beta   90.00000000
_cell_angle_gamma   90.00000000
_symmetry_Int_Tables_number   1
_chemical_formula_structural   Ti2(C4O3)3
_chemical_formula_sum   'Ti16 C96 O72'
_cell_volume   6313.94108481
_cell_formula_units_Z   8
loop_
 _symmetry_equiv_pos_site_id
 _symmetry_equiv_pos_as_xyz
  1  'x, y, z'
loop_
 _atom_site_type_symbol
 _atom_site_label
 _atom_site_symmetry_multiplicity
 _atom_site_fract_x
 _atom_site_fract_y
 _atom_site_fract_z
 _atom_site_occupancy
 _atom_site_charge
Ti  Ti1  1  0.20830000  0.07400000  0.50000000  1.0 1.8585084588
Ti  Ti2  1  0.79170000  0.92600000  0.50000000  1.0 1.8585084588
Ti  Ti3  1  0.92600000  0.20830000  0.50000000  1.0 1.8585084588
Ti  Ti4  1  0.07400000  0.79170000  0.50000000  1.0 1.8585084588
Ti  Ti5  1  0.79170000  0.07400000  0.50000000  1.0 1.8585084588
Ti  Ti6  1  0.20830000  0.92600000  0.50000000  1.0 1.8585084588
Ti  Ti7  1  0.07400000  0.20830000  0.50000000  1.0 1.8585084588
Ti  Ti8  1  0.92600000  0.79170000  0.50000000  1.0 1.8585084588
Ti  Ti9  1  0.70830000  0.57400000  0.00000000  1.0 1.8585084588
Ti  Ti10  1  0.29170000  0.42600000  0.00000000  1.0 1.8585084588
Ti  Ti11  1  0.42600000  0.70830000  0.00000000  1.0 1.8585084588
Ti  Ti12  1  0.57400000  0.29170000  0.00000000  1.0 1.8585084588
Ti  Ti13  1  0.29170000  0.57400000  0.00000000  1.0 1.8585084588
Ti  Ti14  1  0.70830000  0.42600000  0.00000000  1.0 1.8585084588
Ti  Ti15  1  0.57400000  0.70830000  0.00000000  1.0 1.8585084588
Ti  Ti16  1  0.42600000  0.29170000  0.00000000  1.0 1.8585084588
C  C1  1  0.35070000  0.00000000  0.50000000  1.0 0.640438138
C  C2  1  0.64930000  0.00000000  0.50000000  1.0 0.640438138
C  C3  1  0.00000000  0.35070000  0.50000000  1.0 0.640438138
C  C4  1  0.00000000  0.64930000  0.50000000  1.0 0.640438138
C  C5  1  0.85070000  0.50000000  0.00000000  1.0 0.640438138
C  C6  1  0.14930000  0.50000000  0.00000000  1.0 0.640438138
C  C7  1  0.50000000  0.85070000  0.00000000  1.0 0.640438138
C  C8  1  0.50000000  0.14930000  0.00000000  1.0 0.640438138
C  C9  1  0.42650000  0.00000000  0.50000000  1.0 -0.1016316596
C  C10  1  0.57350000  0.00000000  0.50000000  1.0 -0.1016316596
C  C11  1  0.00000000  0.42650000  0.50000000  1.0 -0.1016316596
C  C12  1  0.00000000  0.57350000  0.50000000  1.0 -0.1016316596
C  C13  1  0.92650000  0.50000000  0.00000000  1.0 -0.1016316596
C  C14  1  0.07350000  0.50000000  0.00000000  1.0 -0.1016316596
C  C15  1  0.50000000  0.92650000  0.00000000  1.0 -0.1016316596
C  C16  1  0.50000000  0.07350000  0.00000000  1.0 -0.1016316596
C  C17  1  0.46320000  0.07050000  0.50000000  1.0 0.0359891779
C  C18  1  0.53680000  0.92950000  0.50000000  1.0 0.0359891779
C  C19  1  0.92950000  0.46320000  0.50000000  1.0 0.0359891779
C  C20  1  0.07050000  0.53680000  0.50000000  1.0 0.0359891779
C  C21  1  0.53680000  0.07050000  0.50000000  1.0 0.0359891779
C  C22  1  0.46320000  0.92950000  0.50000000  1.0 0.0359891779
C  C23  1  0.07050000  0.46320000  0.50000000  1.0 0.0359891779
C  C24  1  0.92950000  0.53680000  0.50000000  1.0 0.0359891779
C  C25  1  0.96320000  0.57050000  0.00000000  1.0 0.0343249445
C  C26  1  0.03680000  0.42950000  0.00000000  1.0 0.0359891779
C  C27  1  0.42950000  0.96320000  0.00000000  1.0 0.0343249445
C  C28  1  0.57050000  0.03680000  0.00000000  1.0 0.0359891779
C  C29  1  0.03680000  0.57050000  0.00000000  1.0 0.0359891779
C  C30  1  0.96320000  0.42950000  0.00000000  1.0 0.0343249445
C  C31  1  0.57050000  0.96320000  0.00000000  1.0 0.0343249445
C  C32  1  0.42950000  0.03680000  0.00000000  1.0 0.0359891779
C  C33  1  0.19400000  0.19400000  0.40230000  1.0 0.5761396722
C  C34  1  0.80600000  0.80600000  0.40230000  1.0 0.5761396722
C  C35  1  0.80600000  0.19400000  0.40230000  1.0 0.5761396722
C  C36  1  0.19400000  0.80600000  0.40230000  1.0 0.5761396722
C  C37  1  0.80600000  0.19400000  0.59770000  1.0 0.5761396722
C  C38  1  0.19400000  0.80600000  0.59770000  1.0 0.5761396722
C  C39  1  0.19400000  0.19400000  0.59770000  1.0 0.5761396722
C  C40  1  0.80600000  0.80600000  0.59770000  1.0 0.5761396722
C  C41  1  0.69400000  0.69400000  0.90230000  1.0 0.5761396722
C  C42  1  0.30600000  0.30600000  0.90230000  1.0 0.5761396722
C  C43  1  0.30600000  0.69400000  0.90230000  1.0 0.5761396722
C  C44  1  0.69400000  0.30600000  0.90230000  1.0 0.5761396722
C  C45  1  0.30600000  0.69400000  0.09770000  1.0 0.5761396722
C  C46  1  0.69400000  0.30600000  0.09770000  1.0 0.5761396722
C  C47  1  0.69400000  0.69400000  0.09770000  1.0 0.5761396722
C  C48  1  0.30600000  0.30600000  0.09770000  1.0 0.5761396722
C  C49  1  0.22250000  0.22250000  0.32090000  1.0 -0.0444411682
C  C50  1  0.77750000  0.77750000  0.32090000  1.0 -0.0444411682
C  C51  1  0.77750000  0.22250000  0.32090000  1.0 -0.0444411682
C  C52  1  0.22250000  0.77750000  0.32090000  1.0 -0.0444411682
C  C53  1  0.77750000  0.22250000  0.67910000  1.0 -0.0444411682
C  C54  1  0.22250000  0.77750000  0.67910000  1.0 -0.0444411682
C  C55  1  0.22250000  0.22250000  0.67910000  1.0 -0.0444411682
C  C56  1  0.77750000  0.77750000  0.67910000  1.0 -0.0444411682
C  C57  1  0.72250000  0.72250000  0.82090000  1.0 -0.0444411682
C  C58  1  0.27750000  0.27750000  0.82090000  1.0 -0.0444411682
C  C59  1  0.27750000  0.72250000  0.82090000  1.0 -0.0444411682
C  C60  1  0.72250000  0.27750000  0.82090000  1.0 -0.0444411682
C  C61  1  0.27750000  0.72250000  0.17910000  1.0 -0.0444411682
C  C62  1  0.72250000  0.27750000  0.17910000  1.0 -0.0444411682
C  C63  1  0.72250000  0.72250000  0.17910000  1.0 -0.0444411682
C  C64  1  0.27750000  0.27750000  0.17910000  1.0 -0.0444411682
C  C65  1  0.20150000  0.28760000  0.28980000  1.0 0.0529305036
C  C66  1  0.79850000  0.71240000  0.28980000  1.0 0.0529305036
C  C67  1  0.71240000  0.20150000  0.28980000  1.0 0.0529305036
C  C68  1  0.28760000  0.79850000  0.28980000  1.0 0.0529305036
C  C69  1  0.79850000  0.28760000  0.71020000  1.0 0.0529305036
C  C70  1  0.20150000  0.71240000  0.71020000  1.0 0.0529305036
C  C71  1  0.28760000  0.20150000  0.71020000  1.0 0.0529305036
C  C72  1  0.71240000  0.79850000  0.71020000  1.0 0.0529305036
C  C73  1  0.70150000  0.78760000  0.78980000  1.0 0.0529305036
C  C74  1  0.29850000  0.21240000  0.78980000  1.0 0.0529305036
C  C75  1  0.21240000  0.70150000  0.78980000  1.0 0.0529305036
C  C76  1  0.78760000  0.29850000  0.78980000  1.0 0.0529305036
C  C77  1  0.29850000  0.78760000  0.21020000  1.0 0.0529305036
C  C78  1  0.70150000  0.21240000  0.21020000  1.0 0.0529305036
C  C79  1  0.78760000  0.70150000  0.21020000  1.0 0.0529305036
C  C80  1  0.21240000  0.29850000  0.21020000  1.0 0.0529305036
C  C81  1  0.79850000  0.71240000  0.71020000  1.0 0.0529305036
C  C82  1  0.20150000  0.28760000  0.71020000  1.0 0.0529305036
C  C83  1  0.28760000  0.79850000  0.71020000  1.0 0.0529305036
C  C84  1  0.71240000  0.20150000  0.71020000  1.0 0.0529305036
C  C85  1  0.20150000  0.71240000  0.28980000  1.0 0.0529305036
C  C86  1  0.79850000  0.28760000  0.28980000  1.0 0.0529305036
C  C87  1  0.71240000  0.79850000  0.28980000  1.0 0.0529305036
C  C88  1  0.28760000  0.20150000  0.28980000  1.0 0.0529305036
C  C89  1  0.29850000  0.21240000  0.21020000  1.0 0.0529305036
C  C90  1  0.70150000  0.78760000  0.21020000  1.0 0.0529305036
C  C91  1  0.78760000  0.29850000  0.21020000  1.0 0.0529305036
C  C92  1  0.21240000  0.70150000  0.21020000  1.0 0.0529305036
C  C93  1  0.70150000  0.21240000  0.78980000  1.0 0.0529305036
C  C94  1  0.29850000  0.78760000  0.78980000  1.0 0.0529305036
C  C95  1  0.21240000  0.29850000  0.78980000  1.0 0.0529305036
C  C96  1  0.78760000  0.70150000  0.78980000  1.0 0.0529305036
O  O1  1  0.31110000  0.05800000  0.50000000  1.0 -0.5677931397
O  O2  1  0.68890000  0.94200000  0.50000000  1.0 -0.5677931397
O  O3  1  0.94200000  0.31110000  0.50000000  1.0 -0.5677931397
O  O4  1  0.05800000  0.68890000  0.50000000  1.0 -0.5677931397
O  O5  1  0.68890000  0.05800000  0.50000000  1.0 -0.5677931397
O  O6  1  0.31110000  0.94200000  0.50000000  1.0 -0.5677931397
O  O7  1  0.05800000  0.31110000  0.50000000  1.0 -0.5677931397
O  O8  1  0.94200000  0.68890000  0.50000000  1.0 -0.5677931397
O  O9  1  0.81110000  0.55800000  0.00000000  1.0 -0.5677931397
O  O10  1  0.18890000  0.44200000  0.00000000  1.0 -0.5677931397
O  O11  1  0.44200000  0.81110000  0.00000000  1.0 -0.5677931397
O  O12  1  0.55800000  0.18890000  0.00000000  1.0 -0.5677931397
O  O13  1  0.18890000  0.55800000  0.00000000  1.0 -0.5677931397
O  O14  1  0.81110000  0.44200000  0.00000000  1.0 -0.5677931397
O  O15  1  0.55800000  0.81110000  0.00000000  1.0 -0.5677931397
O  O16  1  0.44200000  0.18890000  0.00000000  1.0 -0.5677931397
O  O17  1  0.18190000  0.00000000  0.42650000  1.0 -0.8870372265
O  O18  1  0.81810000  0.00000000  0.42650000  1.0 -0.8870372265
O  O19  1  0.00000000  0.18190000  0.42650000  1.0 -0.8870372265
O  O20  1  0.00000000  0.81810000  0.42650000  1.0 -0.8870372265
O  O21  1  0.81810000  0.00000000  0.57350000  1.0 -0.8870372265
O  O22  1  0.18190000  0.00000000  0.57350000  1.0 -0.8870372265
O  O23  1  0.00000000  0.18190000  0.57350000  1.0 -0.8870372265
O  O24  1  0.00000000  0.81810000  0.57350000  1.0 -0.8870372265
O  O25  1  0.68190000  0.50000000  0.92650000  1.0 -0.8870372265
O  O26  1  0.31810000  0.50000000  0.92650000  1.0 -0.8870372265
O  O27  1  0.50000000  0.68190000  0.92650000  1.0 -0.8870372265
O  O28  1  0.50000000  0.31810000  0.92650000  1.0 -0.8870372265
O  O29  1  0.31810000  0.50000000  0.07350000  1.0 -0.8870372265
O  O30  1  0.68190000  0.50000000  0.07350000  1.0 -0.8870372265
O  O31  1  0.50000000  0.68190000  0.07350000  1.0 -0.8870372265
O  O32  1  0.50000000  0.31810000  0.07350000  1.0 -0.8870372265
O  O33  1  0.22590000  0.14420000  0.42680000  1.0 -0.4688378847
O  O34  1  0.77410000  0.85580000  0.42680000  1.0 -0.4688378847
O  O35  1  0.85580000  0.22590000  0.42680000  1.0 -0.4688378847
O  O36  1  0.14420000  0.77410000  0.42680000  1.0 -0.4688378847
O  O37  1  0.77410000  0.14420000  0.57320000  1.0 -0.4688378847
O  O38  1  0.22590000  0.85580000  0.57320000  1.0 -0.4688378847
O  O39  1  0.14420000  0.22590000  0.57320000  1.0 -0.4688378847
O  O40  1  0.85580000  0.77410000  0.57320000  1.0 -0.4688378847
O  O41  1  0.72590000  0.64420000  0.92680000  1.0 -0.4688378847
O  O42  1  0.27410000  0.35580000  0.92680000  1.0 -0.4688378847
O  O43  1  0.35580000  0.72590000  0.92680000  1.0 -0.4688378847
O  O44  1  0.64420000  0.27410000  0.92680000  1.0 -0.4688378847
O  O45  1  0.27410000  0.64420000  0.07320000  1.0 -0.4688378847
O  O46  1  0.72590000  0.35580000  0.07320000  1.0 -0.4688378847
O  O47  1  0.64420000  0.72590000  0.07320000  1.0 -0.4688378847
O  O48  1  0.35580000  0.27410000  0.07320000  1.0 -0.4688378847
O  O49  1  0.77410000  0.85580000  0.57320000  1.0 -0.4688378847
O  O50  1  0.22590000  0.14420000  0.57320000  1.0 -0.4688378847
O  O51  1  0.14420000  0.77410000  0.57320000  1.0 -0.4688378847
O  O52  1  0.85580000  0.22590000  0.57320000  1.0 -0.4688378847
O  O53  1  0.22590000  0.85580000  0.42680000  1.0 -0.4688378847
O  O54  1  0.77410000  0.14420000  0.42680000  1.0 -0.4688378847
O  O55  1  0.85580000  0.77410000  0.42680000  1.0 -0.4688378847
O  O56  1  0.14420000  0.22590000  0.42680000  1.0 -0.4688378847
O  O57  1  0.27410000  0.35580000  0.07320000  1.0 -0.4688378847
O  O58  1  0.72590000  0.64420000  0.07320000  1.0 -0.4688378847
O  O59  1  0.64420000  0.27410000  0.07320000  1.0 -0.4688378847
O  O60  1  0.35580000  0.72590000  0.07320000  1.0 -0.4688378847
O  O61  1  0.72590000  0.35580000  0.92680000  1.0 -0.4688378847
O  O62  1  0.27410000  0.64420000  0.92680000  1.0 -0.4688378847
O  O63  1  0.35580000  0.27410000  0.92680000  1.0 -0.4688378847
O  O64  1  0.64420000  0.72590000  0.92680000  1.0 -0.4688378847
O  O65  1  0.10740000  0.10740000  0.50000000  1.0 -0.8170763864
O  O66  1  0.89260000  0.89260000  0.50000000  1.0 -0.8170763864
O  O67  1  0.89260000  0.10740000  0.50000000  1.0 -0.8170763864
O  O68  1  0.10740000  0.89260000  0.50000000  1.0 -0.8170763864
O  O69  1  0.60740000  0.60740000  0.00000000  1.0 -0.8170763864
O  O70  1  0.39260000  0.39260000  0.00000000  1.0 -0.8170763864
O  O71  1  0.39260000  0.60740000  0.00000000  1.0 -0.8170763864
O  O72  1  0.60740000  0.39260000  0.00000000  1.0 -0.8170763864
