# DDEC6 charges by PACMAN v1.1 (https://github.com/mtap-research/PACMAN-charge/)
data_oc7b00169_si_002_5_FSR_pacman
_symmetry_space_group_name_H-M   'P 1'
_cell_length_a   19.18200000
_cell_length_b   19.18200000
_cell_length_c   36.53400000
_cell_angle_alpha   90.00000000
_cell_angle_beta   90.00000000
_cell_angle_gamma   90.00000000
_symmetry_Int_Tables_number   1
_chemical_formula_structural   AlH9C14O5
_chemical_formula_sum   'Al16 H144 C224 O80'
_cell_volume   13442.65329622
_cell_formula_units_Z   16
loop_
 _symmetry_equiv_pos_site_id
 _symmetry_equiv_pos_as_xyz
  1  'x, y, z'
loop_
 _atom_site_type_symbol
 _atom_site_label
 _atom_site_symmetry_multiplicity
 _atom_site_fract_x
 _atom_site_fract_y
 _atom_site_fract_z
 _atom_site_occupancy
 _atom_site_charge
Al  Al1  1  0.66349000  0.33651000  0.50000000  1.0 1.6216910175
Al  Al2  1  0.16349000  0.16349000  0.00000000  1.0 1.6216910175
Al  Al3  1  0.33651000  0.66349000  0.50000000  1.0 1.6216910175
Al  Al4  1  0.83651000  0.83651000  0.00000000  1.0 1.6216910175
Al  Al5  1  0.61670000  0.38957000  0.41625000  1.0 1.6486372581
Al  Al6  1  0.11043000  0.11670000  0.91625000  1.0 1.6486372581
Al  Al7  1  0.38330000  0.61043000  0.41625000  1.0 1.6486372581
Al  Al8  1  0.88957000  0.88330000  0.91625000  1.0 1.6486372581
Al  Al9  1  0.11670000  0.11043000  0.08375000  1.0 1.6486372581
Al  Al10  1  0.88330000  0.88957000  0.08375000  1.0 1.6486372581
Al  Al11  1  0.38957000  0.61670000  0.58375000  1.0 1.6486372581
Al  Al12  1  0.61043000  0.38330000  0.58375000  1.0 1.6486372581
Al  Al13  1  0.50000000  0.50000000  0.38334000  1.0 1.6557453862
Al  Al14  1  0.00000000  0.00000000  0.88334000  1.0 1.6486372581
Al  Al15  1  0.00000000  0.00000000  0.11666000  1.0 1.6557453862
Al  Al16  1  0.50000000  0.50000000  0.61666000  1.0 1.6486372581
H  H1  1  0.57170000  0.49930000  0.43870000  1.0 0.4262178829
H  H2  1  0.00070000  0.07170000  0.93870000  1.0 0.4262178829
H  H3  1  0.42830000  0.50070000  0.43870000  1.0 0.4262178829
H  H4  1  0.99930000  0.92830000  0.93870000  1.0 0.4262178829
H  H5  1  0.07170000  0.00070000  0.06130000  1.0 0.4240795871
H  H6  1  0.92830000  0.99930000  0.06130000  1.0 0.4240795871
H  H7  1  0.49930000  0.57170000  0.56130000  1.0 0.4262178829
H  H8  1  0.50070000  0.42830000  0.56130000  1.0 0.4262178829
H  H9  1  0.55500000  0.37160000  0.47470000  1.0 0.4240795871
H  H10  1  0.12840000  0.05500000  0.97470000  1.0 0.4240795871
H  H11  1  0.44500000  0.62840000  0.47470000  1.0 0.4240795871
H  H12  1  0.87160000  0.94500000  0.97470000  1.0 0.4240795871
H  H13  1  0.05500000  0.12840000  0.02530000  1.0 0.4240795871
H  H14  1  0.94500000  0.87160000  0.02530000  1.0 0.4240795871
H  H15  1  0.37160000  0.55500000  0.52530000  1.0 0.4240795871
H  H16  1  0.62840000  0.44500000  0.52530000  1.0 0.4240795871
H  H17  1  0.76430000  0.62900000  0.16530000  1.0 0.1182833193
H  H18  1  0.87100000  0.26430000  0.66530000  1.0 0.1182833193
H  H19  1  0.23570000  0.37100000  0.16530000  1.0 0.1182833193
H  H20  1  0.12900000  0.73570000  0.66530000  1.0 0.1182833193
H  H21  1  0.26430000  0.87100000  0.33470000  1.0 0.1182833193
H  H22  1  0.73570000  0.12900000  0.33470000  1.0 0.1182833193
H  H23  1  0.62900000  0.76430000  0.83470000  1.0 0.1182833193
H  H24  1  0.37100000  0.23570000  0.83470000  1.0 0.1182833193
H  H25  1  0.77900000  0.63050000  0.04230000  1.0 0.1407380356
H  H26  1  0.86950000  0.27900000  0.54230000  1.0 0.1407380356
H  H27  1  0.22100000  0.36950000  0.04230000  1.0 0.1407380356
H  H28  1  0.13050000  0.72100000  0.54230000  1.0 0.1407380356
H  H29  1  0.27900000  0.86950000  0.45770000  1.0 0.1407380356
H  H30  1  0.72100000  0.13050000  0.45770000  1.0 0.1407380356
H  H31  1  0.63050000  0.77900000  0.95770000  1.0 0.1407380356
H  H32  1  0.36950000  0.22100000  0.95770000  1.0 0.1407380356
H  H33  1  0.78230000  0.73310000  0.13890000  1.0 0.1316249302
H  H34  1  0.76690000  0.28230000  0.63890000  1.0 0.1316249302
H  H35  1  0.21770000  0.26690000  0.13890000  1.0 0.1316249302
H  H36  1  0.23310000  0.71770000  0.63890000  1.0 0.1316249302
H  H37  1  0.28230000  0.76690000  0.36110000  1.0 0.1316249302
H  H38  1  0.71770000  0.23310000  0.36110000  1.0 0.1316249302
H  H39  1  0.73310000  0.78230000  0.86110000  1.0 0.1316249302
H  H40  1  0.26690000  0.21770000  0.86110000  1.0 0.1316249302
H  H41  1  0.77170000  0.52680000  0.07130000  1.0 0.1114451664
H  H42  1  0.97320000  0.27170000  0.57130000  1.0 0.1114451664
H  H43  1  0.22830000  0.47320000  0.07130000  1.0 0.1114451664
H  H44  1  0.02680000  0.72830000  0.57130000  1.0 0.1114451664
H  H45  1  0.27170000  0.97320000  0.42870000  1.0 0.1114451664
H  H46  1  0.72830000  0.02680000  0.42870000  1.0 0.1114451664
H  H47  1  0.52680000  0.77170000  0.92870000  1.0 0.1114451664
H  H48  1  0.47320000  0.22830000  0.92870000  1.0 0.1114451664
H  H49  1  0.57060000  0.49990000  0.27860000  1.0 0.1316249302
H  H50  1  0.00010000  0.07060000  0.77860000  1.0 0.1316249302
H  H51  1  0.42940000  0.50010000  0.27860000  1.0 0.1316249302
H  H52  1  0.99990000  0.92940000  0.77860000  1.0 0.1316249302
H  H53  1  0.07060000  0.00010000  0.22140000  1.0 0.1316249302
H  H54  1  0.92940000  0.99990000  0.22140000  1.0 0.1316249302
H  H55  1  0.49990000  0.57060000  0.72140000  1.0 0.1316249302
H  H56  1  0.50010000  0.42940000  0.72140000  1.0 0.1316249302
H  H57  1  0.85410000  0.15200000  0.14480000  1.0 0.1316249302
H  H58  1  0.34800000  0.35410000  0.64480000  1.0 0.1316249302
H  H59  1  0.14590000  0.84800000  0.14480000  1.0 0.1316249302
H  H60  1  0.65200000  0.64590000  0.64480000  1.0 0.1316249302
H  H61  1  0.35410000  0.34800000  0.35520000  1.0 0.1316249302
H  H62  1  0.64590000  0.65200000  0.35520000  1.0 0.1316249302
H  H63  1  0.15200000  0.85410000  0.85520000  1.0 0.1316249302
H  H64  1  0.84800000  0.14590000  0.85520000  1.0 0.1316249302
H  H65  1  0.99960000  0.28390000  0.09620000  1.0 0.1316249302
H  H66  1  0.21610000  0.49960000  0.59620000  1.0 0.1316249302
H  H67  1  0.00040000  0.71610000  0.09620000  1.0 0.1316249302
H  H68  1  0.78390000  0.50040000  0.59620000  1.0 0.1316249302
H  H69  1  0.49960000  0.21610000  0.40380000  1.0 0.1316249302
H  H70  1  0.50040000  0.78390000  0.40380000  1.0 0.1316249302
H  H71  1  0.28390000  0.99960000  0.90380000  1.0 0.1316249302
H  H72  1  0.71610000  0.00040000  0.90380000  1.0 0.1316249302
H  H73  1  0.62850000  0.50630000  0.22750000  1.0 0.1182833193
H  H74  1  0.99370000  0.12850000  0.72750000  1.0 0.1182833193
H  H75  1  0.37150000  0.49370000  0.22750000  1.0 0.1182833193
H  H76  1  0.00630000  0.87150000  0.72750000  1.0 0.1182833193
H  H77  1  0.12850000  0.99370000  0.27250000  1.0 0.1182833193
H  H78  1  0.87150000  0.00630000  0.27250000  1.0 0.1182833193
H  H79  1  0.50630000  0.62850000  0.77250000  1.0 0.1182833193
H  H80  1  0.49370000  0.37150000  0.77250000  1.0 0.1182833193
H  H81  1  0.70760000  0.53320000  0.18240000  1.0 0.103567074
H  H82  1  0.96680000  0.20760000  0.68240000  1.0 0.103567074
H  H83  1  0.29240000  0.46680000  0.18240000  1.0 0.103567074
H  H84  1  0.03320000  0.79240000  0.68240000  1.0 0.103567074
H  H85  1  0.20760000  0.96680000  0.31760000  1.0 0.103567074
H  H86  1  0.79240000  0.03320000  0.31760000  1.0 0.103567074
H  H87  1  0.53320000  0.70760000  0.81760000  1.0 0.103567074
H  H88  1  0.46680000  0.29240000  0.81760000  1.0 0.103567074
H  H89  1  0.91760000  0.37800000  0.11210000  1.0 0.1114451664
H  H90  1  0.12200000  0.41760000  0.61210000  1.0 0.1114451664
H  H91  1  0.08240000  0.62200000  0.11210000  1.0 0.1114451664
H  H92  1  0.87800000  0.58240000  0.61210000  1.0 0.1114451664
H  H93  1  0.41760000  0.12200000  0.38790000  1.0 0.1114451664
H  H94  1  0.58240000  0.87800000  0.38790000  1.0 0.1114451664
H  H95  1  0.37800000  0.91760000  0.88790000  1.0 0.1114451664
H  H96  1  0.62200000  0.08240000  0.88790000  1.0 0.1114451664
H  H97  1  0.79240000  0.24580000  0.16090000  1.0 0.1114451664
H  H98  1  0.25420000  0.29240000  0.66090000  1.0 0.1114451664
H  H99  1  0.20760000  0.75420000  0.16090000  1.0 0.1114451664
H  H100  1  0.74580000  0.70760000  0.66090000  1.0 0.1114451664
H  H101  1  0.29240000  0.25420000  0.33910000  1.0 0.1114451664
H  H102  1  0.70760000  0.74580000  0.33910000  1.0 0.1114451664
H  H103  1  0.24580000  0.79240000  0.83910000  1.0 0.1114451664
H  H104  1  0.75420000  0.20760000  0.83910000  1.0 0.1114451664
H  H105  1  0.76910000  0.33760000  0.19620000  1.0 0.1114451664
H  H106  1  0.16240000  0.26910000  0.69620000  1.0 0.1114451664
H  H107  1  0.23090000  0.66240000  0.19620000  1.0 0.1114451664
H  H108  1  0.83760000  0.73090000  0.69620000  1.0 0.1114451664
H  H109  1  0.26910000  0.16240000  0.30380000  1.0 0.1114451664
H  H110  1  0.73090000  0.83760000  0.30380000  1.0 0.1114451664
H  H111  1  0.33760000  0.76910000  0.80380000  1.0 0.1114451664
H  H112  1  0.66240000  0.23090000  0.80380000  1.0 0.1114451664
H  H113  1  0.77380000  0.47970000  0.45320000  1.0 0.0510480086
H  H114  1  0.02030000  0.27380000  0.95320000  1.0 0.0510480086
H  H115  1  0.22620000  0.52030000  0.45320000  1.0 0.0510480086
H  H116  1  0.97970000  0.72620000  0.95320000  1.0 0.0510480086
H  H117  1  0.27380000  0.02030000  0.04680000  1.0 0.0510480086
H  H118  1  0.72620000  0.97970000  0.04680000  1.0 0.0510480086
H  H119  1  0.47970000  0.77380000  0.54680000  1.0 0.0510480086
H  H120  1  0.52030000  0.22620000  0.54680000  1.0 0.0510480086
H  H121  1  0.71920000  0.36810000  0.31560000  1.0 0.1316249302
H  H122  1  0.13190000  0.21920000  0.81560000  1.0 0.1316249302
H  H123  1  0.28080000  0.63190000  0.31560000  1.0 0.1316249302
H  H124  1  0.86810000  0.78080000  0.81560000  1.0 0.1316249302
H  H125  1  0.21920000  0.13190000  0.18440000  1.0 0.1316249302
H  H126  1  0.78080000  0.86810000  0.18440000  1.0 0.1316249302
H  H127  1  0.36810000  0.71920000  0.68440000  1.0 0.1316249302
H  H128  1  0.63190000  0.28080000  0.68440000  1.0 0.1316249302
H  H129  1  0.77260000  0.37060000  0.25990000  1.0 0.1182833193
H  H130  1  0.12940000  0.27260000  0.75990000  1.0 0.1182833193
H  H131  1  0.22740000  0.62940000  0.25990000  1.0 0.1182833193
H  H132  1  0.87060000  0.72740000  0.75990000  1.0 0.1182833193
H  H133  1  0.27260000  0.12940000  0.24010000  1.0 0.1182833193
H  H134  1  0.72740000  0.87060000  0.24010000  1.0 0.1182833193
H  H135  1  0.37060000  0.77260000  0.74010000  1.0 0.1182833193
H  H136  1  0.62940000  0.22740000  0.74010000  1.0 0.1182833193
H  H137  1  0.82180000  0.44280000  0.10400000  1.0 0.1114451664
H  H138  1  0.05720000  0.32180000  0.60400000  1.0 0.1114451664
H  H139  1  0.17820000  0.55720000  0.10400000  1.0 0.1114451664
H  H140  1  0.94280000  0.67820000  0.60400000  1.0 0.1114451664
H  H141  1  0.32180000  0.05720000  0.39600000  1.0 0.1114451664
H  H142  1  0.67820000  0.94280000  0.39600000  1.0 0.1114451664
H  H143  1  0.44280000  0.82180000  0.89600000  1.0 0.1114451664
H  H144  1  0.55720000  0.17820000  0.89600000  1.0 0.1114451664
C  C1  1  0.61170000  0.43540000  0.34020000  1.0 0.5900958097
C  C2  1  0.06460000  0.11170000  0.84020000  1.0 0.5900958097
C  C3  1  0.38830000  0.56460000  0.34020000  1.0 0.5900958097
C  C4  1  0.93540000  0.88830000  0.84020000  1.0 0.5900958097
C  C5  1  0.11170000  0.06460000  0.15980000  1.0 0.5900958097
C  C6  1  0.88830000  0.93540000  0.15980000  1.0 0.5900958097
C  C7  1  0.43540000  0.61170000  0.65980000  1.0 0.5900958097
C  C8  1  0.56460000  0.38830000  0.65980000  1.0 0.5900958097
C  C9  1  0.76890000  0.63120000  0.14000000  1.0 -0.1293105697
C  C10  1  0.86880000  0.26890000  0.64000000  1.0 -0.1293105697
C  C11  1  0.23110000  0.36880000  0.14000000  1.0 -0.1293105697
C  C12  1  0.13120000  0.73110000  0.64000000  1.0 -0.1293105697
C  C13  1  0.26890000  0.86880000  0.36000000  1.0 -0.1293105697
C  C14  1  0.73110000  0.13120000  0.36000000  1.0 -0.1293105697
C  C15  1  0.63120000  0.76890000  0.86000000  1.0 -0.1293105697
C  C16  1  0.36880000  0.23110000  0.86000000  1.0 -0.1293105697
C  C17  1  0.77930000  0.63000000  0.06770000  1.0 -0.1293105697
C  C18  1  0.87000000  0.27930000  0.56770000  1.0 -0.1293105697
C  C19  1  0.22070000  0.37000000  0.06770000  1.0 -0.1293105697
C  C20  1  0.13000000  0.72070000  0.56770000  1.0 -0.1293105697
C  C21  1  0.27930000  0.87000000  0.43230000  1.0 -0.1293105697
C  C22  1  0.72070000  0.13000000  0.43230000  1.0 -0.1293105697
C  C23  1  0.63000000  0.77930000  0.93230000  1.0 -0.1293105697
C  C24  1  0.37000000  0.22070000  0.93230000  1.0 -0.1293105697
C  C25  1  0.97550000  0.15050000  0.11125000  1.0 0.6016455656
C  C26  1  0.34950000  0.47550000  0.61125000  1.0 0.6016455656
C  C27  1  0.02450000  0.84950000  0.11125000  1.0 0.6016455656
C  C28  1  0.65050000  0.52450000  0.61125000  1.0 0.6016455656
C  C29  1  0.47550000  0.34950000  0.38875000  1.0 0.6016455656
C  C30  1  0.52450000  0.65050000  0.38875000  1.0 0.6016455656
C  C31  1  0.15050000  0.97550000  0.88875000  1.0 0.6016455656
C  C32  1  0.84950000  0.02450000  0.88875000  1.0 0.6016455656
C  C33  1  0.77980000  0.69240000  0.12520000  1.0 -0.101605681
C  C34  1  0.80760000  0.27980000  0.62520000  1.0 -0.101605681
C  C35  1  0.22020000  0.30760000  0.12520000  1.0 -0.101605681
C  C36  1  0.19240000  0.72020000  0.62520000  1.0 -0.101605681
C  C37  1  0.27980000  0.80760000  0.37480000  1.0 -0.101605681
C  C38  1  0.72020000  0.19240000  0.37480000  1.0 -0.101605681
C  C39  1  0.69240000  0.77980000  0.87480000  1.0 -0.101605681
C  C40  1  0.30760000  0.22020000  0.87480000  1.0 -0.101605681
C  C41  1  0.77120000  0.56760000  0.08500000  1.0 -0.101605681
C  C42  1  0.93240000  0.27120000  0.58500000  1.0 -0.101605681
C  C43  1  0.22880000  0.43240000  0.08500000  1.0 -0.101605681
C  C44  1  0.06760000  0.72880000  0.58500000  1.0 -0.101605681
C  C45  1  0.27120000  0.93240000  0.41500000  1.0 -0.101605681
C  C46  1  0.72880000  0.06760000  0.41500000  1.0 -0.101605681
C  C47  1  0.56760000  0.77120000  0.91500000  1.0 -0.101605681
C  C48  1  0.43240000  0.22880000  0.91500000  1.0 -0.101605681
C  C49  1  0.78760000  0.69170000  0.08570000  1.0 -0.014412706
C  C50  1  0.80830000  0.28760000  0.58570000  1.0 -0.014412706
C  C51  1  0.21240000  0.30830000  0.08570000  1.0 -0.014412706
C  C52  1  0.19170000  0.71240000  0.58570000  1.0 -0.014412706
C  C53  1  0.28760000  0.80830000  0.41430000  1.0 -0.014412706
C  C54  1  0.71240000  0.19170000  0.41430000  1.0 -0.014412706
C  C55  1  0.69170000  0.78760000  0.91430000  1.0 -0.014412706
C  C56  1  0.30830000  0.21240000  0.91430000  1.0 -0.014412706
C  C57  1  0.80390000  0.75700000  0.06270000  1.0 0.6016455656
C  C58  1  0.74300000  0.30390000  0.56270000  1.0 0.6016455656
C  C59  1  0.19610000  0.24300000  0.06270000  1.0 0.6016455656
C  C60  1  0.25700000  0.69610000  0.56270000  1.0 0.6016455656
C  C61  1  0.30390000  0.74300000  0.43730000  1.0 0.6016455656
C  C62  1  0.69610000  0.25700000  0.43730000  1.0 0.6016455656
C  C63  1  0.75700000  0.80390000  0.93730000  1.0 0.6016455656
C  C64  1  0.24300000  0.19610000  0.93730000  1.0 0.6016455656
C  C65  1  0.93300000  0.20840000  0.12017000  1.0 -0.101605681
C  C66  1  0.29160000  0.43300000  0.62017000  1.0 -0.1055505285
C  C67  1  0.06700000  0.79160000  0.12017000  1.0 -0.101605681
C  C68  1  0.70840000  0.56700000  0.62017000  1.0 -0.1055505285
C  C69  1  0.43300000  0.29160000  0.37983000  1.0 -0.101605681
C  C70  1  0.56700000  0.70840000  0.37983000  1.0 -0.1055505285
C  C71  1  0.20840000  0.93300000  0.87983000  1.0 -0.1055505285
C  C72  1  0.79160000  0.06700000  0.87983000  1.0 -0.1055505285
C  C73  1  0.61200000  0.47520000  0.27580000  1.0 -0.0811397461
C  C74  1  0.02480000  0.11200000  0.77580000  1.0 -0.0811397461
C  C75  1  0.38800000  0.52480000  0.27580000  1.0 -0.0811397461
C  C76  1  0.97520000  0.88800000  0.77580000  1.0 -0.0811397461
C  C77  1  0.11200000  0.02480000  0.22420000  1.0 -0.0811397461
C  C78  1  0.88800000  0.97520000  0.22420000  1.0 -0.0811397461
C  C79  1  0.47520000  0.61200000  0.72420000  1.0 -0.0811397461
C  C80  1  0.52480000  0.38800000  0.72420000  1.0 -0.0811397461
C  C81  1  0.76330000  0.56380000  0.11850000  1.0 0.0510480086
C  C82  1  0.93620000  0.26330000  0.61850000  1.0 0.0510480086
C  C83  1  0.23670000  0.43620000  0.11850000  1.0 0.0510480086
C  C84  1  0.06380000  0.73670000  0.61850000  1.0 0.0510480086
C  C85  1  0.26330000  0.93620000  0.38150000  1.0 0.0510480086
C  C86  1  0.73670000  0.06380000  0.38150000  1.0 0.0510480086
C  C87  1  0.56380000  0.76330000  0.88150000  1.0 0.0510480086
C  C88  1  0.43620000  0.23670000  0.88150000  1.0 0.0510480086
C  C89  1  0.86930000  0.19660000  0.13870000  1.0 -0.0871923649
C  C90  1  0.30340000  0.36930000  0.63870000  1.0 -0.0871923649
C  C91  1  0.13070000  0.80340000  0.13870000  1.0 -0.0871923649
C  C92  1  0.69660000  0.63070000  0.63870000  1.0 -0.0871923649
C  C93  1  0.36930000  0.30340000  0.36130000  1.0 -0.0871923649
C  C94  1  0.63070000  0.69660000  0.36130000  1.0 -0.0871923649
C  C95  1  0.19660000  0.86930000  0.86130000  1.0 -0.0871923649
C  C96  1  0.80340000  0.13070000  0.86130000  1.0 -0.0871923649
C  C97  1  0.64390000  0.43530000  0.30690000  1.0 -0.1199074713
C  C98  1  0.06470000  0.14390000  0.80690000  1.0 -0.1199074713
C  C99  1  0.35610000  0.56470000  0.30690000  1.0 -0.1199074713
C  C100  1  0.93530000  0.85610000  0.80690000  1.0 -0.1199074713
C  C101  1  0.14390000  0.06470000  0.19310000  1.0 -0.1199074713
C  C102  1  0.85610000  0.93530000  0.19310000  1.0 -0.1199074713
C  C103  1  0.43530000  0.64390000  0.69310000  1.0 -0.1199074713
C  C104  1  0.56470000  0.35610000  0.69310000  1.0 -0.1199074713
C  C105  1  0.95780000  0.27620000  0.10850000  1.0 -0.0811397461
C  C106  1  0.22380000  0.45780000  0.60850000  1.0 -0.0811397461
C  C107  1  0.04220000  0.72380000  0.10850000  1.0 -0.0811397461
C  C108  1  0.77620000  0.54220000  0.60850000  1.0 -0.0811397461
C  C109  1  0.45780000  0.22380000  0.39150000  1.0 -0.0811397461
C  C110  1  0.54220000  0.77620000  0.39150000  1.0 -0.0811397461
C  C111  1  0.27620000  0.95780000  0.89150000  1.0 -0.0811397461
C  C112  1  0.72380000  0.04220000  0.89150000  1.0 -0.0811397461
C  C113  1  0.84290000  0.32150000  0.13833000  1.0 0.0510480086
C  C114  1  0.17850000  0.34290000  0.63833000  1.0 0.0510480086
C  C115  1  0.15710000  0.67850000  0.13833000  1.0 0.0510480086
C  C116  1  0.82150000  0.65710000  0.63833000  1.0 0.0510480086
C  C117  1  0.34290000  0.17850000  0.36167000  1.0 0.0510480086
C  C118  1  0.65710000  0.82150000  0.36167000  1.0 0.0510480086
C  C119  1  0.32150000  0.84290000  0.86167000  1.0 0.0510480086
C  C120  1  0.67850000  0.15710000  0.86167000  1.0 0.0510480086
C  C121  1  0.64540000  0.47370000  0.24420000  1.0 -0.136653915
C  C122  1  0.02630000  0.14540000  0.74420000  1.0 -0.136653915
C  C123  1  0.35460000  0.52630000  0.24420000  1.0 -0.136653915
C  C124  1  0.97370000  0.85460000  0.74420000  1.0 -0.136653915
C  C125  1  0.14540000  0.02630000  0.25580000  1.0 -0.136653915
C  C126  1  0.85460000  0.97370000  0.25580000  1.0 -0.136653915
C  C127  1  0.47370000  0.64540000  0.75580000  1.0 -0.136653915
C  C128  1  0.52630000  0.35460000  0.75580000  1.0 -0.136653915
C  C129  1  0.73030000  0.49340000  0.17410000  1.0 -0.1906628337
C  C130  1  0.00660000  0.23030000  0.67410000  1.0 -0.1906628337
C  C131  1  0.26970000  0.50660000  0.17410000  1.0 -0.1906628337
C  C132  1  0.99340000  0.76970000  0.67410000  1.0 -0.1906628337
C  C133  1  0.23030000  0.00660000  0.32590000  1.0 -0.1906628337
C  C134  1  0.76970000  0.99340000  0.32590000  1.0 -0.1906628337
C  C135  1  0.49340000  0.73030000  0.82590000  1.0 -0.1906628337
C  C136  1  0.50660000  0.26970000  0.82590000  1.0 -0.1906628337
C  C137  1  0.90680000  0.33250000  0.11890000  1.0 -0.1556002656
C  C138  1  0.16750000  0.40680000  0.61890000  1.0 -0.1556002656
C  C139  1  0.09320000  0.66750000  0.11890000  1.0 -0.1556002656
C  C140  1  0.83250000  0.59320000  0.61890000  1.0 -0.1556002656
C  C141  1  0.40680000  0.16750000  0.38110000  1.0 -0.1556002656
C  C142  1  0.59320000  0.83250000  0.38110000  1.0 -0.1556002656
C  C143  1  0.33250000  0.90680000  0.88110000  1.0 -0.1492490301
C  C144  1  0.66750000  0.09320000  0.88110000  1.0 -0.1492490301
C  C145  1  0.80310000  0.38160000  0.14820000  1.0 0.0803313063
C  C146  1  0.11840000  0.30310000  0.64820000  1.0 0.0803313063
C  C147  1  0.19690000  0.61840000  0.14820000  1.0 0.0803313063
C  C148  1  0.88160000  0.69690000  0.64820000  1.0 0.0854654601
C  C149  1  0.30310000  0.11840000  0.35180000  1.0 0.0803313063
C  C150  1  0.69690000  0.88160000  0.35180000  1.0 0.0803313063
C  C151  1  0.38160000  0.80310000  0.85180000  1.0 0.0854654601
C  C152  1  0.61840000  0.19690000  0.85180000  1.0 0.0854654601
C  C153  1  0.83210000  0.25400000  0.14696000  1.0 -0.136653915
C  C154  1  0.24600000  0.33210000  0.64696000  1.0 -0.136653915
C  C155  1  0.16790000  0.74600000  0.14696000  1.0 -0.136653915
C  C156  1  0.75400000  0.66790000  0.64696000  1.0 -0.136653915
C  C157  1  0.33210000  0.24600000  0.35304000  1.0 -0.136653915
C  C158  1  0.66790000  0.75400000  0.35304000  1.0 -0.136653915
C  C159  1  0.25400000  0.83210000  0.85304000  1.0 -0.136653915
C  C160  1  0.74600000  0.16790000  0.85304000  1.0 -0.136653915
C  C161  1  0.76270000  0.49500000  0.13700000  1.0 0.0803313063
C  C162  1  0.00500000  0.26270000  0.63700000  1.0 0.0803313063
C  C163  1  0.23730000  0.50500000  0.13700000  1.0 0.0803313063
C  C164  1  0.99500000  0.73730000  0.63700000  1.0 0.0803313063
C  C165  1  0.26270000  0.00500000  0.36300000  1.0 0.0803313063
C  C166  1  0.73730000  0.99500000  0.36300000  1.0 0.0803313063
C  C167  1  0.49500000  0.76270000  0.86300000  1.0 0.0803313063
C  C168  1  0.50500000  0.23730000  0.86300000  1.0 0.0803313063
C  C169  1  0.76810000  0.37860000  0.18260000  1.0 -0.208180095
C  C170  1  0.12140000  0.26810000  0.68260000  1.0 -0.208180095
C  C171  1  0.23190000  0.62140000  0.18260000  1.0 -0.208180095
C  C172  1  0.87860000  0.73190000  0.68260000  1.0 -0.208180095
C  C173  1  0.26810000  0.12140000  0.31740000  1.0 -0.208180095
C  C174  1  0.73190000  0.87860000  0.31740000  1.0 -0.208180095
C  C175  1  0.37860000  0.76810000  0.81740000  1.0 -0.208180095
C  C176  1  0.62140000  0.23190000  0.81740000  1.0 -0.208180095
C  C177  1  0.73950000  0.44540000  0.45310000  1.0 0.5159852645
C  C178  1  0.05460000  0.23950000  0.95310000  1.0 0.5141180893
C  C179  1  0.26050000  0.55460000  0.45310000  1.0 0.5159852645
C  C180  1  0.94540000  0.76050000  0.95310000  1.0 0.5141180893
C  C181  1  0.23950000  0.05460000  0.04690000  1.0 0.5159852645
C  C182  1  0.76050000  0.94540000  0.04690000  1.0 0.5159852645
C  C183  1  0.44540000  0.73950000  0.54690000  1.0 0.5141180893
C  C184  1  0.55460000  0.26050000  0.54690000  1.0 0.5141180893
C  C185  1  0.69870000  0.43530000  0.23070000  1.0 0.0701259524
C  C186  1  0.06470000  0.19870000  0.73070000  1.0 0.0701259524
C  C187  1  0.30130000  0.56470000  0.23070000  1.0 0.0701259524
C  C188  1  0.93530000  0.80130000  0.73070000  1.0 0.0701259524
C  C189  1  0.19870000  0.06470000  0.26930000  1.0 0.0701259524
C  C190  1  0.80130000  0.93530000  0.26930000  1.0 0.0701259524
C  C191  1  0.43530000  0.69870000  0.76930000  1.0 0.0701259524
C  C192  1  0.56470000  0.30130000  0.76930000  1.0 0.0701259524
C  C193  1  0.73220000  0.43720000  0.19640000  1.0 0.0600090479
C  C194  1  0.06280000  0.23220000  0.69640000  1.0 0.0600090479
C  C195  1  0.26780000  0.56280000  0.19640000  1.0 0.0600090479
C  C196  1  0.93720000  0.76780000  0.69640000  1.0 0.0600090479
C  C197  1  0.23220000  0.06280000  0.30360000  1.0 0.0600090479
C  C198  1  0.76780000  0.93720000  0.30360000  1.0 0.0600090479
C  C199  1  0.43720000  0.73220000  0.80360000  1.0 0.0600090479
C  C200  1  0.56280000  0.26780000  0.80360000  1.0 0.0600090479
C  C201  1  0.70000000  0.39650000  0.29760000  1.0 -0.066898383
C  C202  1  0.10350000  0.20000000  0.79760000  1.0 -0.066898383
C  C203  1  0.30000000  0.60350000  0.29760000  1.0 -0.066898383
C  C204  1  0.89650000  0.80000000  0.79760000  1.0 -0.066898383
C  C205  1  0.20000000  0.10350000  0.20240000  1.0 -0.066898383
C  C206  1  0.80000000  0.89650000  0.20240000  1.0 -0.066898383
C  C207  1  0.39650000  0.70000000  0.70240000  1.0 -0.066898383
C  C208  1  0.60350000  0.30000000  0.70240000  1.0 -0.0649852836
C  C209  1  0.73150000  0.39550000  0.26330000  1.0 -0.1492490301
C  C210  1  0.10450000  0.23150000  0.76330000  1.0 -0.1492490301
C  C211  1  0.26850000  0.60450000  0.26330000  1.0 -0.1492490301
C  C212  1  0.89550000  0.76850000  0.76330000  1.0 -0.1492490301
C  C213  1  0.23150000  0.10450000  0.23670000  1.0 -0.1492490301
C  C214  1  0.76850000  0.89550000  0.23670000  1.0 -0.1492490301
C  C215  1  0.39550000  0.73150000  0.73670000  1.0 -0.1492490301
C  C216  1  0.60450000  0.26850000  0.73670000  1.0 -0.1492490301
C  C217  1  0.79870000  0.44150000  0.12630000  1.0 -0.1847913125
C  C218  1  0.05850000  0.29870000  0.62630000  1.0 -0.1906628337
C  C219  1  0.20130000  0.55850000  0.12630000  1.0 -0.1847913125
C  C220  1  0.94150000  0.70130000  0.62630000  1.0 -0.1847913125
C  C221  1  0.29870000  0.05850000  0.37370000  1.0 -0.1847913125
C  C222  1  0.70130000  0.94150000  0.37370000  1.0 -0.1847913125
C  C223  1  0.44150000  0.79870000  0.87370000  1.0 -0.1847913125
C  C224  1  0.55850000  0.20130000  0.87370000  1.0 -0.1847913125
O  O1  1  0.56495000  0.47062000  0.41844000  1.0 -0.994083763
O  O2  1  0.02938000  0.06495000  0.91844000  1.0 -0.994083763
O  O3  1  0.43505000  0.52938000  0.41844000  1.0 -0.994083763
O  O4  1  0.97062000  0.93505000  0.91844000  1.0 -0.994083763
O  O5  1  0.06495000  0.02938000  0.08156000  1.0 -0.994083763
O  O6  1  0.93505000  0.97062000  0.08156000  1.0 -0.994083763
O  O7  1  0.47062000  0.56495000  0.58156000  1.0 -0.994083763
O  O8  1  0.52938000  0.43505000  0.58156000  1.0 -0.994083763
O  O9  1  0.63950000  0.40100000  0.36565000  1.0 -0.5421408126
O  O10  1  0.09900000  0.13950000  0.86565000  1.0 -0.5421408126
O  O11  1  0.36050000  0.59900000  0.36565000  1.0 -0.5421408126
O  O12  1  0.90100000  0.86050000  0.86565000  1.0 -0.5421408126
O  O13  1  0.13950000  0.09900000  0.13435000  1.0 -0.5421408126
O  O14  1  0.86050000  0.90100000  0.13435000  1.0 -0.5421408126
O  O15  1  0.40100000  0.63950000  0.63435000  1.0 -0.5421408126
O  O16  1  0.59900000  0.36050000  0.63435000  1.0 -0.5421408126
O  O17  1  0.60065000  0.36668000  0.46646000  1.0 -0.9820600459
O  O18  1  0.13332000  0.10065000  0.96646000  1.0 -0.9820600459
O  O19  1  0.39935000  0.63332000  0.46646000  1.0 -0.9820600459
O  O20  1  0.86668000  0.89935000  0.96646000  1.0 -0.9820600459
O  O21  1  0.10065000  0.13332000  0.03354000  1.0 -0.9820600459
O  O22  1  0.89935000  0.86668000  0.03354000  1.0 -0.9820600459
O  O23  1  0.36668000  0.60065000  0.53354000  1.0 -0.9820600459
O  O24  1  0.63332000  0.39935000  0.53354000  1.0 -0.9820600459
O  O25  1  0.55900000  0.47333000  0.34441000  1.0 -0.5515293213
O  O26  1  0.02667000  0.05900000  0.84441000  1.0 -0.5515293213
O  O27  1  0.44100000  0.52667000  0.34441000  1.0 -0.5515293213
O  O28  1  0.97333000  0.94100000  0.84441000  1.0 -0.5551693449
O  O29  1  0.05900000  0.02667000  0.15559000  1.0 -0.5551693449
O  O30  1  0.94100000  0.97333000  0.15559000  1.0 -0.5551693449
O  O31  1  0.47333000  0.55900000  0.65559000  1.0 -0.5515293213
O  O32  1  0.52667000  0.44100000  0.65559000  1.0 -0.5515293213
O  O33  1  0.82701000  0.80370000  0.08835000  1.0 -0.6223285654
O  O34  1  0.69630000  0.32701000  0.58835000  1.0 -0.6223285654
O  O35  1  0.17299000  0.19630000  0.08835000  1.0 -0.6223285654
O  O36  1  0.30370000  0.67299000  0.58835000  1.0 -0.6223285654
O  O37  1  0.32701000  0.69630000  0.41165000  1.0 -0.6223285654
O  O38  1  0.67299000  0.30370000  0.41165000  1.0 -0.6223285654
O  O39  1  0.80370000  0.82701000  0.91165000  1.0 -0.6223285654
O  O40  1  0.19630000  0.17299000  0.91165000  1.0 -0.6223285654
O  O41  1  0.73317000  0.39900000  0.48188000  1.0 -0.6294869715
O  O42  1  0.10100000  0.23317000  0.98188000  1.0 -0.6294869715
O  O43  1  0.26683000  0.60100000  0.48188000  1.0 -0.6294869715
O  O44  1  0.89900000  0.76683000  0.98188000  1.0 -0.6294869715
O  O45  1  0.23317000  0.10100000  0.01812000  1.0 -0.6294869715
O  O46  1  0.76683000  0.89900000  0.01812000  1.0 -0.6294869715
O  O47  1  0.39900000  0.73317000  0.51812000  1.0 -0.6294869715
O  O48  1  0.60100000  0.26683000  0.51812000  1.0 -0.6294869715
O  O49  1  0.03790000  0.16650000  0.09799000  1.0 -0.6223285654
O  O50  1  0.33350000  0.53790000  0.59799000  1.0 -0.6223285654
O  O51  1  0.96210000  0.83350000  0.09799000  1.0 -0.6223285654
O  O52  1  0.66650000  0.46210000  0.59799000  1.0 -0.6223285654
O  O53  1  0.53790000  0.33350000  0.40201000  1.0 -0.6223285654
O  O54  1  0.46210000  0.66650000  0.40201000  1.0 -0.6223285654
O  O55  1  0.16650000  0.03790000  0.90201000  1.0 -0.6223285654
O  O56  1  0.83350000  0.96210000  0.90201000  1.0 -0.6223285654
O  O57  1  0.95740000  0.08940000  0.11988000  1.0 -0.5784576544
O  O58  1  0.41060000  0.45740000  0.61988000  1.0 -0.5784576544
O  O59  1  0.04260000  0.91060000  0.11988000  1.0 -0.5784576544
O  O60  1  0.58940000  0.54260000  0.61988000  1.0 -0.5784576544
O  O61  1  0.45740000  0.41060000  0.38012000  1.0 -0.5784576544
O  O62  1  0.54260000  0.58940000  0.38012000  1.0 -0.5784576544
O  O63  1  0.08940000  0.95740000  0.88012000  1.0 -0.5784576544
O  O64  1  0.91060000  0.04260000  0.88012000  1.0 -0.5784576544
O  O65  1  0.80130000  0.76460000  0.03226000  1.0 -0.4515499184
O  O66  1  0.73540000  0.30130000  0.53226000  1.0 -0.4515499184
O  O67  1  0.19870000  0.23540000  0.03226000  1.0 -0.4515499184
O  O68  1  0.26460000  0.69870000  0.53226000  1.0 -0.4515499184
O  O69  1  0.30130000  0.73540000  0.46774000  1.0 -0.4515499184
O  O70  1  0.69870000  0.26460000  0.46774000  1.0 -0.4515499184
O  O71  1  0.76460000  0.80130000  0.96774000  1.0 -0.4515499184
O  O72  1  0.23540000  0.19870000  0.96774000  1.0 -0.4515499184
O  O73  1  0.69710000  0.43980000  0.42654000  1.0 -0.5515293213
O  O74  1  0.06020000  0.19710000  0.92654000  1.0 -0.5515293213
O  O75  1  0.30290000  0.56020000  0.42654000  1.0 -0.5515293213
O  O76  1  0.93980000  0.80290000  0.92654000  1.0 -0.5515293213
O  O77  1  0.19710000  0.06020000  0.07346000  1.0 -0.5515293213
O  O78  1  0.80290000  0.93980000  0.07346000  1.0 -0.5515293213
O  O79  1  0.43980000  0.69710000  0.57346000  1.0 -0.5515293213
O  O80  1  0.56020000  0.30290000  0.57346000  1.0 -0.5515293213
