# DDEC6 charges by PACMAN v1.1 (https://github.com/mtap-research/PACMAN-charge/)
data_MUF-91-18h-46pc_ASR_pacman
_symmetry_space_group_name_H-M   'P 1'
_cell_length_a   17.11100000
_cell_length_b   17.11100000
_cell_length_c   17.11100000
_cell_angle_alpha   90.00000000
_cell_angle_beta   90.00000000
_cell_angle_gamma   90.00000000
_symmetry_Int_Tables_number   1
_chemical_formula_structural   Zn0.6668H45C70.5N6O6.0417
_chemical_formula_sum   'Zn0.6668 H45 C70.5 N6 O6.0417'
_cell_volume   5009.86673863
_cell_formula_units_Z   1
loop_
 _symmetry_equiv_pos_site_id
 _symmetry_equiv_pos_as_xyz
  1  'x, y, z'
loop_
 _atom_site_type_symbol
 _atom_site_label
 _atom_site_symmetry_multiplicity
 _atom_site_fract_x
 _atom_site_fract_y
 _atom_site_fract_z
 _atom_site_occupancy
 _atom_site_charge
Zn  Zn1  1  0.43473000  0.43473000  0.43473000  0.1667 0.9564107832
Zn  Zn2  1  0.43473000  0.56527000  0.56527000  0.1667 0.9564107832
Zn  Zn3  1  0.56527000  0.56527000  0.43473000  0.1667 0.9564107832
Zn  Zn4  1  0.56527000  0.43473000  0.56527000  0.1667 0.9564107832
H  H1  1  0.56276000  0.05915000  0.59652000  0.25 0.1326364256
H  H2  1  0.05915000  0.43724000  0.40348000  0.25 0.1326364256
H  H3  1  0.43724000  0.94085000  0.59652000  0.25 0.1326364256
H  H4  1  0.94085000  0.56276000  0.40348000  0.25 0.1326364256
H  H5  1  0.43724000  0.59652000  0.94085000  0.25 0.1326364256
H  H6  1  0.56276000  0.94085000  0.40348000  0.25 0.1326364256
H  H7  1  0.43724000  0.40348000  0.05915000  0.25 0.1326364256
H  H8  1  0.40348000  0.94085000  0.56276000  0.25 0.1326364256
H  H9  1  0.43724000  0.05915000  0.40348000  0.25 0.1326364256
H  H10  1  0.59652000  0.94085000  0.43724000  0.25 0.1326364256
H  H11  1  0.59652000  0.56276000  0.05915000  0.25 0.1326364256
H  H12  1  0.05915000  0.59652000  0.56276000  0.25 0.1326364256
H  H13  1  0.94085000  0.40348000  0.56276000  0.25 0.1326364256
H  H14  1  0.59652000  0.43724000  0.94085000  0.25 0.1326364256
H  H15  1  0.94085000  0.59652000  0.43724000  0.25 0.1326364256
H  H16  1  0.40348000  0.43724000  0.05915000  0.25 0.1326364256
H  H17  1  0.40348000  0.56276000  0.94085000  0.25 0.1326364256
H  H18  1  0.05915000  0.40348000  0.43724000  0.25 0.1326364256
H  H19  1  0.94085000  0.43724000  0.59652000  0.25 0.1326364256
H  H20  1  0.05915000  0.56276000  0.59652000  0.25 0.1326364256
H  H21  1  0.56276000  0.40348000  0.94085000  0.25 0.1326364256
H  H22  1  0.56276000  0.59652000  0.05915000  0.25 0.1326364256
H  H23  1  0.40348000  0.05915000  0.43724000  0.25 0.1326364256
H  H24  1  0.59652000  0.05915000  0.56276000  0.25 0.1326364256
H  H25  1  0.69325000  0.00492000  0.67880000  0.25 0.1378932659
H  H26  1  0.00492000  0.30675000  0.32120000  0.25 0.1378932659
H  H27  1  0.30675000  0.99508000  0.67880000  0.25 0.1378932659
H  H28  1  0.99508000  0.69325000  0.32120000  0.25 0.1378932659
H  H29  1  0.30675000  0.67880000  0.99508000  0.25 0.1378932659
H  H30  1  0.69325000  0.99508000  0.32120000  0.25 0.1378932659
H  H31  1  0.30675000  0.32120000  0.00492000  0.25 0.1378932659
H  H32  1  0.32120000  0.99508000  0.69325000  0.25 0.1378932659
H  H33  1  0.30675000  0.00492000  0.32120000  0.25 0.1378932659
H  H34  1  0.67880000  0.99508000  0.30675000  0.25 0.1378932659
H  H35  1  0.67880000  0.69325000  0.00492000  0.25 0.1378932659
H  H36  1  0.00492000  0.67880000  0.69325000  0.25 0.1378932659
H  H37  1  0.99508000  0.32120000  0.69325000  0.25 0.1378932659
H  H38  1  0.67880000  0.30675000  0.99508000  0.25 0.1378932659
H  H39  1  0.99508000  0.67880000  0.30675000  0.25 0.1378932659
H  H40  1  0.32120000  0.30675000  0.00492000  0.25 0.1378932659
H  H41  1  0.32120000  0.69325000  0.99508000  0.25 0.1378932659
H  H42  1  0.00492000  0.32120000  0.30675000  0.25 0.1378932659
H  H43  1  0.99508000  0.30675000  0.67880000  0.25 0.1378932659
H  H44  1  0.00492000  0.69325000  0.67880000  0.25 0.1378932659
H  H45  1  0.69325000  0.32120000  0.99508000  0.25 0.1378932659
H  H46  1  0.69325000  0.67880000  0.00492000  0.25 0.1378932659
H  H47  1  0.32120000  0.00492000  0.30675000  0.25 0.1378932659
H  H48  1  0.67880000  0.00492000  0.69325000  0.25 0.1378932659
H  H49  1  0.77749000  0.94010000  0.76412000  0.25 0.1210001789
H  H50  1  0.94010000  0.22251000  0.23588000  0.25 0.1210001789
H  H51  1  0.22251000  0.05990000  0.76412000  0.25 0.1210001789
H  H52  1  0.05990000  0.77749000  0.23588000  0.25 0.1210001789
H  H53  1  0.22251000  0.76412000  0.05990000  0.25 0.1210001789
H  H54  1  0.77749000  0.05990000  0.23588000  0.25 0.1210001789
H  H55  1  0.22251000  0.23588000  0.94010000  0.25 0.1210001789
H  H56  1  0.23588000  0.05990000  0.77749000  0.25 0.1210001789
H  H57  1  0.22251000  0.94010000  0.23588000  0.25 0.1210001789
H  H58  1  0.76412000  0.05990000  0.22251000  0.25 0.1210001789
H  H59  1  0.76412000  0.77749000  0.94010000  0.25 0.1210001789
H  H60  1  0.94010000  0.76412000  0.77749000  0.25 0.1210001789
H  H61  1  0.05990000  0.23588000  0.77749000  0.25 0.1210001789
H  H62  1  0.76412000  0.22251000  0.05990000  0.25 0.1210001789
H  H63  1  0.05990000  0.76412000  0.22251000  0.25 0.1210001789
H  H64  1  0.23588000  0.22251000  0.94010000  0.25 0.1210001789
H  H65  1  0.23588000  0.77749000  0.05990000  0.25 0.1210001789
H  H66  1  0.94010000  0.23588000  0.22251000  0.25 0.1210001789
H  H67  1  0.05990000  0.22251000  0.76412000  0.25 0.1210001789
H  H68  1  0.94010000  0.77749000  0.76412000  0.25 0.1210001789
H  H69  1  0.77749000  0.23588000  0.05990000  0.25 0.1210001789
H  H70  1  0.77749000  0.76412000  0.94010000  0.25 0.1210001789
H  H71  1  0.23588000  0.94010000  0.22251000  0.25 0.1210001789
H  H72  1  0.76412000  0.94010000  0.77749000  0.25 0.1210001789
H  H73  1  0.72707000  0.87085000  0.87015000  0.25 0.0731751796
H  H74  1  0.87085000  0.27293000  0.12985000  0.25 0.0731751796
H  H75  1  0.27293000  0.12915000  0.87015000  0.25 0.0731751796
H  H76  1  0.12915000  0.72707000  0.12985000  0.25 0.0731751796
H  H77  1  0.27293000  0.87015000  0.12915000  0.25 0.0731751796
H  H78  1  0.72707000  0.12915000  0.12985000  0.25 0.0731751796
H  H79  1  0.12985000  0.12915000  0.72707000  0.25 0.0731751796
H  H80  1  0.87015000  0.12915000  0.27293000  0.25 0.0731751796
H  H81  1  0.87015000  0.72707000  0.87085000  0.25 0.0731751796
H  H82  1  0.87085000  0.87015000  0.72707000  0.25 0.0731751796
H  H83  1  0.12915000  0.87015000  0.27293000  0.25 0.0731751796
H  H84  1  0.12985000  0.27293000  0.87085000  0.25 0.0731751796
H  H85  1  0.59243000  0.86644000  0.89085000  0.25 0.0988824021
H  H86  1  0.86644000  0.40757000  0.10915000  0.25 0.0988824021
H  H87  1  0.40757000  0.13356000  0.89085000  0.25 0.0988824021
H  H88  1  0.13356000  0.59243000  0.10915000  0.25 0.0988824021
H  H89  1  0.40757000  0.89085000  0.13356000  0.25 0.0988824021
H  H90  1  0.59243000  0.13356000  0.10915000  0.25 0.0988824021
H  H91  1  0.40757000  0.10915000  0.86644000  0.25 0.0988824021
H  H92  1  0.10915000  0.13356000  0.59243000  0.25 0.0988824021
H  H93  1  0.40757000  0.86644000  0.10915000  0.25 0.0988824021
H  H94  1  0.89085000  0.13356000  0.40757000  0.25 0.0988824021
H  H95  1  0.89085000  0.59243000  0.86644000  0.25 0.0988824021
H  H96  1  0.86644000  0.89085000  0.59243000  0.25 0.0988824021
H  H97  1  0.13356000  0.10915000  0.59243000  0.25 0.0988824021
H  H98  1  0.89085000  0.40757000  0.13356000  0.25 0.0988824021
H  H99  1  0.13356000  0.89085000  0.40757000  0.25 0.0988824021
H  H100  1  0.10915000  0.40757000  0.86644000  0.25 0.0988824021
H  H101  1  0.10915000  0.59243000  0.13356000  0.25 0.0988824021
H  H102  1  0.86644000  0.10915000  0.40757000  0.25 0.0988824021
H  H103  1  0.13356000  0.40757000  0.89085000  0.25 0.0988824021
H  H104  1  0.86644000  0.59243000  0.89085000  0.25 0.0988824021
H  H105  1  0.59243000  0.10915000  0.13356000  0.25 0.0988824021
H  H106  1  0.59243000  0.89085000  0.86644000  0.25 0.0988824021
H  H107  1  0.10915000  0.86644000  0.40757000  0.25 0.0988824021
H  H108  1  0.89085000  0.86644000  0.59243000  0.25 0.0988824021
H  H109  1  0.50821000  0.93128000  0.80555000  0.25 0.1378932659
H  H110  1  0.93128000  0.49179000  0.19445000  0.25 0.1378932659
H  H111  1  0.49179000  0.06872000  0.80555000  0.25 0.1378932659
H  H112  1  0.06872000  0.50821000  0.19445000  0.25 0.1378932659
H  H113  1  0.49179000  0.80555000  0.06872000  0.25 0.1378932659
H  H114  1  0.50821000  0.06872000  0.19445000  0.25 0.1378932659
H  H115  1  0.49179000  0.19445000  0.93128000  0.25 0.1378932659
H  H116  1  0.19445000  0.06872000  0.50821000  0.25 0.1378932659
H  H117  1  0.49179000  0.93128000  0.19445000  0.25 0.1378932659
H  H118  1  0.80555000  0.06872000  0.49179000  0.25 0.1378932659
H  H119  1  0.80555000  0.50821000  0.93128000  0.25 0.1378932659
H  H120  1  0.93128000  0.80555000  0.50821000  0.25 0.1378932659
H  H121  1  0.06872000  0.19445000  0.50821000  0.25 0.1378932659
H  H122  1  0.80555000  0.49179000  0.06872000  0.25 0.1378932659
H  H123  1  0.06872000  0.80555000  0.49179000  0.25 0.1378932659
H  H124  1  0.19445000  0.49179000  0.93128000  0.25 0.1378932659
H  H125  1  0.19445000  0.50821000  0.06872000  0.25 0.1378932659
H  H126  1  0.93128000  0.19445000  0.49179000  0.25 0.1378932659
H  H127  1  0.06872000  0.49179000  0.80555000  0.25 0.1378932659
H  H128  1  0.93128000  0.50821000  0.80555000  0.25 0.1378932659
H  H129  1  0.50821000  0.19445000  0.06872000  0.25 0.1378932659
H  H130  1  0.50821000  0.80555000  0.93128000  0.25 0.1378932659
H  H131  1  0.19445000  0.93128000  0.49179000  0.25 0.1378932659
H  H132  1  0.80555000  0.93128000  0.50821000  0.25 0.1378932659
H  H133  1  0.56337000  0.19164000  0.59920000  0.5 0.1051960316
H  H134  1  0.19164000  0.43663000  0.40080000  0.5 0.1051960316
H  H135  1  0.43663000  0.80836000  0.59920000  0.5 0.1051960316
H  H136  1  0.80836000  0.56337000  0.40080000  0.5 0.1051960316
H  H137  1  0.43663000  0.59920000  0.80836000  0.5 0.1051960316
H  H138  1  0.56337000  0.80836000  0.40080000  0.5 0.1051960316
H  H139  1  0.43663000  0.40080000  0.19164000  0.5 0.1051960316
H  H140  1  0.40080000  0.80836000  0.56337000  0.5 0.1051960316
H  H141  1  0.43663000  0.19164000  0.40080000  0.5 0.1051960316
H  H142  1  0.59920000  0.80836000  0.43663000  0.5 0.1051960316
H  H143  1  0.59920000  0.56337000  0.19164000  0.5 0.1051960316
H  H144  1  0.19164000  0.59920000  0.56337000  0.5 0.1051960316
H  H145  1  0.80836000  0.40080000  0.56337000  0.5 0.1051960316
H  H146  1  0.59920000  0.43663000  0.80836000  0.5 0.1051960316
H  H147  1  0.80836000  0.59920000  0.43663000  0.5 0.1051960316
H  H148  1  0.40080000  0.43663000  0.19164000  0.5 0.1051960316
H  H149  1  0.40080000  0.56337000  0.80836000  0.5 0.1051960316
H  H150  1  0.19164000  0.40080000  0.43663000  0.5 0.1051960316
H  H151  1  0.80836000  0.43663000  0.59920000  0.5 0.1051960316
H  H152  1  0.19164000  0.56337000  0.59920000  0.5 0.1051960316
H  H153  1  0.56337000  0.40080000  0.80836000  0.5 0.1051960316
H  H154  1  0.56337000  0.59920000  0.19164000  0.5 0.1051960316
H  H155  1  0.40080000  0.19164000  0.43663000  0.5 0.1051960316
H  H156  1  0.59920000  0.19164000  0.56337000  0.5 0.1051960316
C  C1  1  0.50000000  0.29235000  0.50000000  0.25 0.5640269197
C  C2  1  0.29235000  0.50000000  0.50000000  0.25 0.5640269197
C  C3  1  0.50000000  0.70765000  0.50000000  0.25 0.5640269197
C  C4  1  0.70765000  0.50000000  0.50000000  0.25 0.5640269197
C  C5  1  0.50000000  0.50000000  0.70765000  0.25 0.5640269197
C  C6  1  0.50000000  0.50000000  0.29235000  0.25 0.5640269197
C  C7  1  0.50000000  0.20482000  0.50000000  0.25 -0.0080129403
C  C8  1  0.20482000  0.50000000  0.50000000  0.25 -0.0080129403
C  C9  1  0.50000000  0.79518000  0.50000000  0.25 -0.0080129403
C  C10  1  0.79518000  0.50000000  0.50000000  0.25 -0.0080129403
C  C11  1  0.50000000  0.50000000  0.79518000  0.25 -0.0080129403
C  C12  1  0.50000000  0.50000000  0.20482000  0.25 -0.0080129403
C  C13  1  0.50000000  0.04395000  0.50000000  0.25 -0.1208121899
C  C14  1  0.04395000  0.50000000  0.50000000  0.25 -0.1208121899
C  C15  1  0.50000000  0.95605000  0.50000000  0.25 -0.1208121899
C  C16  1  0.95605000  0.50000000  0.50000000  0.25 -0.1208121899
C  C17  1  0.50000000  0.50000000  0.95605000  0.25 -0.1208121899
C  C18  1  0.50000000  0.50000000  0.04395000  0.25 -0.1208121899
C  C19  1  0.53772000  0.01467000  0.67948000  0.25 -0.0229496873
C  C20  1  0.01467000  0.46228000  0.32052000  0.25 -0.0229496873
C  C21  1  0.46228000  0.98533000  0.67948000  0.25 -0.0229496873
C  C22  1  0.98533000  0.53772000  0.32052000  0.25 -0.0229496873
C  C23  1  0.46228000  0.67948000  0.98533000  0.25 -0.0229496873
C  C24  1  0.53772000  0.98533000  0.32052000  0.25 -0.0229496873
C  C25  1  0.46228000  0.32052000  0.01467000  0.25 -0.0229496873
C  C26  1  0.32052000  0.98533000  0.53772000  0.25 -0.0229496873
C  C27  1  0.46228000  0.01467000  0.32052000  0.25 -0.0229496873
C  C28  1  0.67948000  0.98533000  0.46228000  0.25 -0.0229496873
C  C29  1  0.67948000  0.53772000  0.01467000  0.25 -0.0229496873
C  C30  1  0.01467000  0.67948000  0.53772000  0.25 -0.0229496873
C  C31  1  0.98533000  0.32052000  0.53772000  0.25 -0.0229496873
C  C32  1  0.67948000  0.46228000  0.98533000  0.25 -0.0229496873
C  C33  1  0.98533000  0.67948000  0.46228000  0.25 -0.0229496873
C  C34  1  0.32052000  0.46228000  0.01467000  0.25 -0.0229496873
C  C35  1  0.32052000  0.53772000  0.98533000  0.25 -0.0229496873
C  C36  1  0.01467000  0.32052000  0.46228000  0.25 -0.0229496873
C  C37  1  0.98533000  0.46228000  0.67948000  0.25 -0.0229496873
C  C38  1  0.01467000  0.53772000  0.67948000  0.25 -0.0229496873
C  C39  1  0.53772000  0.32052000  0.98533000  0.25 -0.0229496873
C  C40  1  0.53772000  0.67948000  0.01467000  0.25 -0.0229496873
C  C41  1  0.32052000  0.01467000  0.46228000  0.25 -0.0229496873
C  C42  1  0.67948000  0.01467000  0.53772000  0.25 -0.0229496873
C  C43  1  0.59292000  0.97412000  0.73428000  0.25 -0.0401422271
C  C44  1  0.97412000  0.40708000  0.26572000  0.25 -0.0401422271
C  C45  1  0.40708000  0.02588000  0.73428000  0.25 -0.0401422271
C  C46  1  0.02588000  0.59292000  0.26572000  0.25 -0.0401422271
C  C47  1  0.40708000  0.73428000  0.02588000  0.25 -0.0401422271
C  C48  1  0.59292000  0.02588000  0.26572000  0.25 -0.0401422271
C  C49  1  0.40708000  0.26572000  0.97412000  0.25 -0.0401422271
C  C50  1  0.26572000  0.02588000  0.59292000  0.25 -0.0401422271
C  C51  1  0.40708000  0.97412000  0.26572000  0.25 -0.0401422271
C  C52  1  0.73428000  0.02588000  0.40708000  0.25 -0.0401422271
C  C53  1  0.73428000  0.59292000  0.97412000  0.25 -0.0401422271
C  C54  1  0.97412000  0.73428000  0.59292000  0.25 -0.0401422271
C  C55  1  0.02588000  0.26572000  0.59292000  0.25 -0.0401422271
C  C56  1  0.73428000  0.40708000  0.02588000  0.25 -0.0401422271
C  C57  1  0.02588000  0.73428000  0.40708000  0.25 -0.0401422271
C  C58  1  0.26572000  0.40708000  0.97412000  0.25 -0.0401422271
C  C59  1  0.26572000  0.59292000  0.02588000  0.25 -0.0401422271
C  C60  1  0.97412000  0.26572000  0.40708000  0.25 -0.0401422271
C  C61  1  0.02588000  0.40708000  0.73428000  0.25 -0.0401422271
C  C62  1  0.97412000  0.59292000  0.73428000  0.25 -0.0401422271
C  C63  1  0.59292000  0.26572000  0.02588000  0.25 -0.0401422271
C  C64  1  0.59292000  0.73428000  0.97412000  0.25 -0.0401422271
C  C65  1  0.26572000  0.97412000  0.40708000  0.25 -0.0401422271
C  C66  1  0.73428000  0.97412000  0.59292000  0.25 -0.0401422271
C  C67  1  0.67272000  0.97672000  0.72200000  0.25 -0.103116994
C  C68  1  0.97672000  0.32728000  0.27800000  0.25 -0.103116994
C  C69  1  0.32728000  0.02328000  0.72200000  0.25 -0.103116994
C  C70  1  0.02328000  0.67272000  0.27800000  0.25 -0.103116994
C  C71  1  0.32728000  0.72200000  0.02328000  0.25 -0.103116994
C  C72  1  0.67272000  0.02328000  0.27800000  0.25 -0.103116994
C  C73  1  0.32728000  0.27800000  0.97672000  0.25 -0.103116994
C  C74  1  0.27800000  0.02328000  0.67272000  0.25 -0.103116994
C  C75  1  0.32728000  0.97672000  0.27800000  0.25 -0.103116994
C  C76  1  0.72200000  0.02328000  0.32728000  0.25 -0.103116994
C  C77  1  0.72200000  0.67272000  0.97672000  0.25 -0.103116994
C  C78  1  0.97672000  0.72200000  0.67272000  0.25 -0.103116994
C  C79  1  0.02328000  0.27800000  0.67272000  0.25 -0.103116994
C  C80  1  0.72200000  0.32728000  0.02328000  0.25 -0.103116994
C  C81  1  0.02328000  0.72200000  0.32728000  0.25 -0.103116994
C  C82  1  0.27800000  0.32728000  0.97672000  0.25 -0.103116994
C  C83  1  0.27800000  0.67272000  0.02328000  0.25 -0.103116994
C  C84  1  0.97672000  0.27800000  0.32728000  0.25 -0.103116994
C  C85  1  0.02328000  0.32728000  0.72200000  0.25 -0.103116994
C  C86  1  0.97672000  0.67272000  0.72200000  0.25 -0.103116994
C  C87  1  0.67272000  0.27800000  0.02328000  0.25 -0.103116994
C  C88  1  0.67272000  0.72200000  0.97672000  0.25 -0.103116994
C  C89  1  0.27800000  0.97672000  0.32728000  0.25 -0.103116994
C  C90  1  0.72200000  0.97672000  0.67272000  0.25 -0.103116994
C  C91  1  0.72264000  0.93830000  0.77256000  0.25 -0.103116994
C  C92  1  0.93830000  0.27736000  0.22744000  0.25 -0.103116994
C  C93  1  0.27736000  0.06170000  0.77256000  0.25 -0.103116994
C  C94  1  0.06170000  0.72264000  0.22744000  0.25 -0.103116994
C  C95  1  0.27736000  0.77256000  0.06170000  0.25 -0.103116994
C  C96  1  0.72264000  0.06170000  0.22744000  0.25 -0.103116994
C  C97  1  0.27736000  0.22744000  0.93830000  0.25 -0.103116994
C  C98  1  0.22744000  0.06170000  0.72264000  0.25 -0.103116994
C  C99  1  0.27736000  0.93830000  0.22744000  0.25 -0.103116994
C  C100  1  0.77256000  0.06170000  0.27736000  0.25 -0.103116994
C  C101  1  0.77256000  0.72264000  0.93830000  0.25 -0.103116994
C  C102  1  0.93830000  0.77256000  0.72264000  0.25 -0.103116994
C  C103  1  0.06170000  0.22744000  0.72264000  0.25 -0.103116994
C  C104  1  0.77256000  0.27736000  0.06170000  0.25 -0.103116994
C  C105  1  0.06170000  0.77256000  0.27736000  0.25 -0.103116994
C  C106  1  0.22744000  0.27736000  0.93830000  0.25 -0.103116994
C  C107  1  0.22744000  0.72264000  0.06170000  0.25 -0.103116994
C  C108  1  0.93830000  0.22744000  0.27736000  0.25 -0.103116994
C  C109  1  0.06170000  0.27736000  0.77256000  0.25 -0.103116994
C  C110  1  0.93830000  0.72264000  0.77256000  0.25 -0.103116994
C  C111  1  0.72264000  0.22744000  0.06170000  0.25 -0.103116994
C  C112  1  0.72264000  0.77256000  0.93830000  0.25 -0.103116994
C  C113  1  0.22744000  0.93830000  0.27736000  0.25 -0.103116994
C  C114  1  0.77256000  0.93830000  0.72264000  0.25 -0.103116994
C  C115  1  0.69276000  0.89726000  0.83540000  0.25 -0.0816740379
C  C116  1  0.89726000  0.30724000  0.16460000  0.25 -0.0816740379
C  C117  1  0.30724000  0.10274000  0.83540000  0.25 -0.0816740379
C  C118  1  0.10274000  0.69276000  0.16460000  0.25 -0.0816740379
C  C119  1  0.30724000  0.83540000  0.10274000  0.25 -0.0816740379
C  C120  1  0.69276000  0.10274000  0.16460000  0.25 -0.0816740379
C  C121  1  0.30724000  0.16460000  0.89726000  0.25 -0.0816740379
C  C122  1  0.16460000  0.10274000  0.69276000  0.25 -0.0816740379
C  C123  1  0.30724000  0.89726000  0.16460000  0.25 -0.0816740379
C  C124  1  0.83540000  0.10274000  0.30724000  0.25 -0.0816740379
C  C125  1  0.83540000  0.69276000  0.89726000  0.25 -0.0816740379
C  C126  1  0.89726000  0.83540000  0.69276000  0.25 -0.0816740379
C  C127  1  0.10274000  0.16460000  0.69276000  0.25 -0.0816740379
C  C128  1  0.83540000  0.30724000  0.10274000  0.25 -0.0816740379
C  C129  1  0.10274000  0.83540000  0.30724000  0.25 -0.0816740379
C  C130  1  0.16460000  0.30724000  0.89726000  0.25 -0.0816740379
C  C131  1  0.16460000  0.69276000  0.10274000  0.25 -0.0816740379
C  C132  1  0.89726000  0.16460000  0.30724000  0.25 -0.0816740379
C  C133  1  0.10274000  0.30724000  0.83540000  0.25 -0.0816740379
C  C134  1  0.89726000  0.69276000  0.83540000  0.25 -0.0816740379
C  C135  1  0.69276000  0.16460000  0.10274000  0.25 -0.0816740379
C  C136  1  0.69276000  0.83540000  0.89726000  0.25 -0.0816740379
C  C137  1  0.16460000  0.89726000  0.30724000  0.25 -0.0816740379
C  C138  1  0.83540000  0.89726000  0.69276000  0.25 -0.0816740379
C  C139  1  0.61297000  0.89465000  0.84767000  0.25 -0.0554519659
C  C140  1  0.89465000  0.38703000  0.15233000  0.25 -0.0554519659
C  C141  1  0.38703000  0.10535000  0.84767000  0.25 -0.0554519659
C  C142  1  0.10535000  0.61297000  0.15233000  0.25 -0.0554519659
C  C143  1  0.38703000  0.84767000  0.10535000  0.25 -0.0554519659
C  C144  1  0.61297000  0.10535000  0.15233000  0.25 -0.0554519659
C  C145  1  0.38703000  0.15233000  0.89465000  0.25 -0.0554519659
C  C146  1  0.15233000  0.10535000  0.61297000  0.25 -0.0554519659
C  C147  1  0.38703000  0.89465000  0.15233000  0.25 -0.0554519659
C  C148  1  0.84767000  0.10535000  0.38703000  0.25 -0.0554519659
C  C149  1  0.84767000  0.61297000  0.89465000  0.25 -0.0554519659
C  C150  1  0.89465000  0.84767000  0.61297000  0.25 -0.0554519659
C  C151  1  0.10535000  0.15233000  0.61297000  0.25 -0.0554519659
C  C152  1  0.84767000  0.38703000  0.10535000  0.25 -0.0554519659
C  C153  1  0.10535000  0.84767000  0.38703000  0.25 -0.0554519659
C  C154  1  0.15233000  0.38703000  0.89465000  0.25 -0.0554519659
C  C155  1  0.15233000  0.61297000  0.10535000  0.25 -0.0554519659
C  C156  1  0.89465000  0.15233000  0.38703000  0.25 -0.0554519659
C  C157  1  0.10535000  0.38703000  0.84767000  0.25 -0.0554519659
C  C158  1  0.89465000  0.61297000  0.84767000  0.25 -0.0554519659
C  C159  1  0.61297000  0.15233000  0.10535000  0.25 -0.0554519659
C  C160  1  0.61297000  0.84767000  0.89465000  0.25 -0.0554519659
C  C161  1  0.15233000  0.89465000  0.38703000  0.25 -0.0554519659
C  C162  1  0.84767000  0.89465000  0.61297000  0.25 -0.0554519659
C  C163  1  0.56305000  0.93308000  0.79711000  0.25 -0.1722448293
C  C164  1  0.93308000  0.43695000  0.20289000  0.25 -0.1722448293
C  C165  1  0.43695000  0.06692000  0.79711000  0.25 -0.1722448293
C  C166  1  0.06692000  0.56305000  0.20289000  0.25 -0.1722448293
C  C167  1  0.43695000  0.79711000  0.06692000  0.25 -0.1722448293
C  C168  1  0.56305000  0.06692000  0.20289000  0.25 -0.1722448293
C  C169  1  0.43695000  0.20289000  0.93308000  0.25 -0.1722448293
C  C170  1  0.20289000  0.06692000  0.56305000  0.25 -0.1722448293
C  C171  1  0.43695000  0.93308000  0.20289000  0.25 -0.1722448293
C  C172  1  0.79711000  0.06692000  0.43695000  0.25 -0.1722448293
C  C173  1  0.79711000  0.56305000  0.93308000  0.25 -0.1722448293
C  C174  1  0.93308000  0.79711000  0.56305000  0.25 -0.1722448293
C  C175  1  0.06692000  0.20289000  0.56305000  0.25 -0.1722448293
C  C176  1  0.79711000  0.43695000  0.06692000  0.25 -0.1722448293
C  C177  1  0.06692000  0.79711000  0.43695000  0.25 -0.1722448293
C  C178  1  0.20289000  0.43695000  0.93308000  0.25 -0.1722448293
C  C179  1  0.20289000  0.56305000  0.06692000  0.25 -0.1722448293
C  C180  1  0.93308000  0.20289000  0.43695000  0.25 -0.1722448293
C  C181  1  0.06692000  0.43695000  0.79711000  0.25 -0.1722448293
C  C182  1  0.93308000  0.56305000  0.79711000  0.25 -0.1722448293
C  C183  1  0.56305000  0.20289000  0.06692000  0.25 -0.1722448293
C  C184  1  0.56305000  0.79711000  0.93308000  0.25 -0.1722448293
C  C185  1  0.20289000  0.93308000  0.43695000  0.25 -0.1722448293
C  C186  1  0.79711000  0.93308000  0.56305000  0.25 -0.1722448293
C  C187  1  0.53742000  0.16443000  0.55835000  0.5 -0.0920222226
C  C188  1  0.16443000  0.46258000  0.44165000  0.5 -0.0920222226
C  C189  1  0.46258000  0.83557000  0.55835000  0.5 -0.0920222226
C  C190  1  0.83557000  0.53742000  0.44165000  0.5 -0.0920222226
C  C191  1  0.46258000  0.55835000  0.83557000  0.5 -0.0920222226
C  C192  1  0.53742000  0.83557000  0.44165000  0.5 -0.0920222226
C  C193  1  0.46258000  0.44165000  0.16443000  0.5 -0.0920222226
C  C194  1  0.44165000  0.83557000  0.53742000  0.5 -0.0920222226
C  C195  1  0.46258000  0.16443000  0.44165000  0.5 -0.0920222226
C  C196  1  0.55835000  0.83557000  0.46258000  0.5 -0.0920222226
C  C197  1  0.55835000  0.53742000  0.16443000  0.5 -0.0920222226
C  C198  1  0.16443000  0.55835000  0.53742000  0.5 -0.0920222226
C  C199  1  0.83557000  0.44165000  0.53742000  0.5 -0.0920222226
C  C200  1  0.55835000  0.46258000  0.83557000  0.5 -0.0920222226
C  C201  1  0.83557000  0.55835000  0.46258000  0.5 -0.0920222226
C  C202  1  0.44165000  0.46258000  0.16443000  0.5 -0.0920222226
C  C203  1  0.44165000  0.53742000  0.83557000  0.5 -0.0920222226
C  C204  1  0.16443000  0.44165000  0.46258000  0.5 -0.0920222226
C  C205  1  0.83557000  0.46258000  0.55835000  0.5 -0.0920222226
C  C206  1  0.16443000  0.53742000  0.55835000  0.5 -0.0920222226
C  C207  1  0.53742000  0.44165000  0.83557000  0.5 -0.0920222226
C  C208  1  0.53742000  0.55835000  0.16443000  0.5 -0.0920222226
C  C209  1  0.44165000  0.16443000  0.46258000  0.5 -0.0920222226
C  C210  1  0.55835000  0.16443000  0.53742000  0.5 -0.0920222226
C  C211  1  0.53688000  0.08604000  0.55696000  0.5 0.02173135
C  C212  1  0.08604000  0.46312000  0.44304000  0.5 0.02173135
C  C213  1  0.46312000  0.91396000  0.55696000  0.5 0.02173135
C  C214  1  0.91396000  0.53688000  0.44304000  0.5 0.02173135
C  C215  1  0.46312000  0.55696000  0.91396000  0.5 0.02173135
C  C216  1  0.53688000  0.91396000  0.44304000  0.5 0.02173135
C  C217  1  0.46312000  0.44304000  0.08604000  0.5 0.02173135
C  C218  1  0.44304000  0.91396000  0.53688000  0.5 0.02173135
C  C219  1  0.46312000  0.08604000  0.44304000  0.5 0.02173135
C  C220  1  0.55696000  0.91396000  0.46312000  0.5 0.02173135
C  C221  1  0.55696000  0.53688000  0.08604000  0.5 0.02173135
C  C222  1  0.08604000  0.55696000  0.53688000  0.5 0.02173135
C  C223  1  0.91396000  0.44304000  0.53688000  0.5 0.02173135
C  C224  1  0.55696000  0.46312000  0.91396000  0.5 0.02173135
C  C225  1  0.91396000  0.55696000  0.46312000  0.5 0.02173135
C  C226  1  0.44304000  0.46312000  0.08604000  0.5 0.02173135
C  C227  1  0.44304000  0.53688000  0.91396000  0.5 0.02173135
C  C228  1  0.08604000  0.44304000  0.46312000  0.5 0.02173135
C  C229  1  0.91396000  0.46312000  0.55696000  0.5 0.02173135
C  C230  1  0.08604000  0.53688000  0.55696000  0.5 0.02173135
C  C231  1  0.53688000  0.44304000  0.91396000  0.5 0.02173135
C  C232  1  0.53688000  0.55696000  0.08604000  0.5 0.02173135
C  C233  1  0.44304000  0.08604000  0.46312000  0.5 0.02173135
C  C234  1  0.55696000  0.08604000  0.53688000  0.5 0.02173135
N  N1  1  0.57709000  0.05144000  0.62577000  0.25 -0.0920222226
N  N2  1  0.05144000  0.42291000  0.37423000  0.25 -0.0920222226
N  N3  1  0.42291000  0.94856000  0.62577000  0.25 -0.0920222226
N  N4  1  0.94856000  0.57709000  0.37423000  0.25 -0.0920222226
N  N5  1  0.42291000  0.62577000  0.94856000  0.25 -0.0920222226
N  N6  1  0.57709000  0.94856000  0.37423000  0.25 -0.0920222226
N  N7  1  0.42291000  0.37423000  0.05144000  0.25 -0.0920222226
N  N8  1  0.37423000  0.94856000  0.57709000  0.25 -0.0920222226
N  N9  1  0.42291000  0.05144000  0.37423000  0.25 -0.0920222226
N  N10  1  0.62577000  0.94856000  0.42291000  0.25 -0.0920222226
N  N11  1  0.62577000  0.57709000  0.05144000  0.25 -0.0920222226
N  N12  1  0.05144000  0.62577000  0.57709000  0.25 -0.0920222226
N  N13  1  0.94856000  0.37423000  0.57709000  0.25 -0.0920222226
N  N14  1  0.62577000  0.42291000  0.94856000  0.25 -0.0920222226
N  N15  1  0.94856000  0.62577000  0.42291000  0.25 -0.0920222226
N  N16  1  0.37423000  0.42291000  0.05144000  0.25 -0.0920222226
N  N17  1  0.37423000  0.57709000  0.94856000  0.25 -0.0920222226
N  N18  1  0.05144000  0.37423000  0.42291000  0.25 -0.0920222226
N  N19  1  0.94856000  0.42291000  0.62577000  0.25 -0.0920222226
N  N20  1  0.05144000  0.57709000  0.62577000  0.25 -0.0920222226
N  N21  1  0.57709000  0.37423000  0.94856000  0.25 -0.0920222226
N  N22  1  0.57709000  0.62577000  0.05144000  0.25 -0.0920222226
N  N23  1  0.37423000  0.05144000  0.42291000  0.25 -0.0920222226
N  N24  1  0.62577000  0.05144000  0.57709000  0.25 -0.0920222226
O  O1  1  0.50000000  0.50000000  0.50000000  0.0417 -1.0329711262
O  O2  1  0.45376000  0.32511000  0.45376000  0.5 -0.5084822201
O  O3  1  0.32511000  0.54624000  0.54624000  0.5 -0.5084822201
O  O4  1  0.54624000  0.67489000  0.45376000  0.5 -0.5084822201
O  O5  1  0.67489000  0.45376000  0.54624000  0.5 -0.5084822201
O  O6  1  0.54624000  0.45376000  0.67489000  0.5 -0.5084822201
O  O7  1  0.45376000  0.67489000  0.54624000  0.5 -0.5084822201
O  O8  1  0.54624000  0.54624000  0.32511000  0.5 -0.5084822201
O  O9  1  0.54624000  0.32511000  0.54624000  0.5 -0.5084822201
O  O10  1  0.45376000  0.45376000  0.32511000  0.5 -0.5084822201
O  O11  1  0.32511000  0.45376000  0.45376000  0.5 -0.5084822201
O  O12  1  0.67489000  0.54624000  0.45376000  0.5 -0.5084822201
O  O13  1  0.45376000  0.54624000  0.67489000  0.5 -0.5084822201
