# DDEC6 charges by PACMAN v1.1 (https://github.com/mtap-research/PACMAN-charge/)
data_2024[Zn][crb]3[FSR]8
_chemical_formula_sum              "Zn16 H96 C96 N64"
_cell_length_a       9.63356
_cell_length_b       24.0923
_cell_length_c       24.4097
_cell_angle_alpha    90
_cell_angle_beta     90
_cell_angle_gamma    90

_symmetry_space_group_name_H-M    "P 1"
_symmetry_Int_Tables_number       1

loop_
  _symmetry_equiv_pos_as_xyz
  'x, y, z'

loop_
  _atom_site_type_symbol
  _atom_site_label
  _atom_site_symmetry_multiplicity
  _atom_site_fract_x
  _atom_site_fract_y
  _atom_site_fract_z
  _atom_site_occupancy
  _atom_site_charge
Zn  Zn1       1.0  0.01226  0.17443  0.50140  1.0000 0.6068585567
Zn  Zn2       1.0  0.51226  0.32557  0.49860  1.0000 0.6068585567
Zn  Zn3       1.0  0.98774  0.67443  0.99860  1.0000 0.6068585567
Zn  Zn4       1.0  0.48774  0.82557  0.00140  1.0000 0.6068585567
Zn  Zn5       1.0  0.98774  0.82557  0.49860  1.0000 0.6068585567
Zn  Zn6       1.0  0.48774  0.67443  0.50140  1.0000 0.6068585567
Zn  Zn7       1.0  0.01226  0.32557  0.00140  1.0000 0.6068585567
Zn  Zn8       1.0  0.51226  0.17443  0.99860  1.0000 0.6068585567
Zn  Zn9       1.0  0.00267  0.00174  0.32393  1.0000 0.6068585567
Zn  Zn10      1.0  0.50267  0.49826  0.67607  1.0000 0.6068585567
Zn  Zn11      1.0  0.99733  0.50174  0.17607  1.0000 0.6068585567
Zn  Zn12      1.0  0.49733  0.99826  0.82393  1.0000 0.6068585567
Zn  Zn13      1.0  0.99733  0.99826  0.67607  1.0000 0.6068585567
Zn  Zn14      1.0  0.49733  0.50174  0.32393  1.0000 0.6068585567
Zn  Zn15      1.0  0.00267  0.49826  0.82393  1.0000 0.6068585567
Zn  Zn16      1.0  0.50267  0.00174  0.17607  1.0000 0.6068585567
H   H1        1.0  0.75900  0.33400  0.41280  1.0000 0.1080526184
H   H2        1.0  0.25900  0.16600  0.58720  1.0000 0.1080526184
H   H3        1.0  0.24100  0.83400  0.08720  1.0000 0.1080526184
H   H4        1.0  0.74100  0.66600  0.91280  1.0000 0.1080526184
H   H5        1.0  0.24100  0.66600  0.58720  1.0000 0.1080526184
H   H6        1.0  0.74100  0.83400  0.41280  1.0000 0.1080526184
H   H7        1.0  0.75900  0.16600  0.91280  1.0000 0.1080526184
H   H8        1.0  0.25900  0.33400  0.08720  1.0000 0.1080526184
H   H9        1.0  0.49980  0.94910  0.29320  1.0000 0.1080526184
H   H10       1.0  0.99980  0.55090  0.70680  1.0000 0.1080526184
H   H11       1.0  0.50020  0.44910  0.20680  1.0000 0.1080526184
H   H12       1.0  0.00020  0.05090  0.79320  1.0000 0.1080526184
H   H13       1.0  0.50020  0.05090  0.70680  1.0000 0.1080526184
H   H14       1.0  0.00020  0.44910  0.29320  1.0000 0.1080526184
H   H15       1.0  0.49980  0.55090  0.79320  1.0000 0.1080526184
H   H16       1.0  0.99980  0.94910  0.20680  1.0000 0.1080526184
H   H17       1.0  0.96860  0.05500  0.44090  1.0000 0.0903494522
H   H18       1.0  0.46860  0.44500  0.55910  1.0000 0.0903494522
H   H19       1.0  0.03140  0.55500  0.05910  1.0000 0.0903494522
H   H20       1.0  0.53140  0.94500  0.94090  1.0000 0.0903494522
H   H21       1.0  0.03140  0.94500  0.55910  1.0000 0.0903494522
H   H22       1.0  0.53140  0.55500  0.44090  1.0000 0.0903494522
H   H23       1.0  0.96860  0.44500  0.94090  1.0000 0.0903494522
H   H24       1.0  0.46860  0.05500  0.05910  1.0000 0.0903494522
H   H25       1.0  0.19600  0.82340  0.39830  1.0000 0.1027331023
H   H26       1.0  0.69600  0.67660  0.60170  1.0000 0.1027331023
H   H27       1.0  0.80400  0.32340  0.10170  1.0000 0.1027331023
H   H28       1.0  0.30400  0.17660  0.89830  1.0000 0.1027331023
H   H29       1.0  0.80400  0.17660  0.60170  1.0000 0.1027331023
H   H30       1.0  0.30400  0.32340  0.39830  1.0000 0.1027331023
H   H31       1.0  0.19600  0.67660  0.89830  1.0000 0.1027331023
H   H32       1.0  0.69600  0.82340  0.10170  1.0000 0.1027331023
H   H33       1.0  0.14000  0.12200  0.30950  1.0000 0.1080526184
H   H34       1.0  0.64000  0.37800  0.69050  1.0000 0.1080526184
H   H35       1.0  0.86000  0.62200  0.19050  1.0000 0.1080526184
H   H36       1.0  0.36000  0.87800  0.80950  1.0000 0.1080526184
H   H37       1.0  0.86000  0.87800  0.69050  1.0000 0.1080526184
H   H38       1.0  0.36000  0.62200  0.30950  1.0000 0.1080526184
H   H39       1.0  0.14000  0.37800  0.80950  1.0000 0.1080526184
H   H40       1.0  0.64000  0.12200  0.19050  1.0000 0.1080526184
H   H41       1.0  0.14400  0.19180  0.38870  1.0000 0.1027331023
H   H42       1.0  0.64400  0.30820  0.61130  1.0000 0.1027331023
H   H43       1.0  0.85600  0.69180  0.11130  1.0000 0.1027331023
H   H44       1.0  0.35600  0.80820  0.88870  1.0000 0.1027331023
H   H45       1.0  0.85600  0.80820  0.61130  1.0000 0.1027331023
H   H46       1.0  0.35600  0.69180  0.38870  1.0000 0.1027331023
H   H47       1.0  0.14400  0.30820  0.88870  1.0000 0.1027331023
H   H48       1.0  0.64400  0.19180  0.11130  1.0000 0.1027331023
H   H49       1.0  0.92760  0.93810  0.43620  1.0000 0.0903494522
H   H50       1.0  0.42760  0.56190  0.56380  1.0000 0.0903494522
H   H51       1.0  0.07240  0.43810  0.06380  1.0000 0.0903494522
H   H52       1.0  0.57240  0.06190  0.93620  1.0000 0.0903494522
H   H53       1.0  0.07240  0.06190  0.56380  1.0000 0.0903494522
H   H54       1.0  0.57240  0.43810  0.43620  1.0000 0.0903494522
H   H55       1.0  0.92760  0.56190  0.93620  1.0000 0.0903494522
H   H56       1.0  0.42760  0.93810  0.06380  1.0000 0.0903494522
H   H57       1.0  0.19200  0.89630  0.32210  1.0000 0.1080526184
H   H58       1.0  0.69200  0.60370  0.67790  1.0000 0.1080526184
H   H59       1.0  0.80800  0.39630  0.17790  1.0000 0.1080526184
H   H60       1.0  0.30800  0.10370  0.82210  1.0000 0.1080526184
H   H61       1.0  0.80800  0.10370  0.67790  1.0000 0.1080526184
H   H62       1.0  0.30800  0.39630  0.32210  1.0000 0.1080526184
H   H63       1.0  0.19200  0.60370  0.82210  1.0000 0.1080526184
H   H64       1.0  0.69200  0.89630  0.17790  1.0000 0.1080526184
H   H65       1.0  0.71940  0.22860  0.53430  1.0000 0.0793505624
H   H66       1.0  0.21940  0.27140  0.46570  1.0000 0.0793505624
H   H67       1.0  0.28060  0.72860  0.96570  1.0000 0.0793505624
H   H68       1.0  0.78060  0.77140  0.03430  1.0000 0.0793505624
H   H69       1.0  0.28060  0.77140  0.46570  1.0000 0.0793505624
H   H70       1.0  0.78060  0.72860  0.53430  1.0000 0.0793505624
H   H71       1.0  0.71940  0.27140  0.03430  1.0000 0.0793505624
H   H72       1.0  0.21940  0.22860  0.96570  1.0000 0.0793505624
H   H73       1.0  0.97500  0.27110  0.41450  1.0000 0.1027331023
H   H74       1.0  0.47500  0.22890  0.58550  1.0000 0.1027331023
H   H75       1.0  0.02500  0.77110  0.08550  1.0000 0.1027331023
H   H76       1.0  0.52500  0.72890  0.91450  1.0000 0.1027331023
H   H77       1.0  0.02500  0.72890  0.58550  1.0000 0.1027331023
H   H78       1.0  0.52500  0.77110  0.41450  1.0000 0.1027331023
H   H79       1.0  0.97500  0.22890  0.91450  1.0000 0.1027331023
H   H80       1.0  0.47500  0.27110  0.08550  1.0000 0.1027331023
H   H81       1.0  0.71230  0.95110  0.35850  1.0000 0.1027331023
H   H82       1.0  0.21230  0.54890  0.64150  1.0000 0.1027331023
H   H83       1.0  0.28770  0.45110  0.14150  1.0000 0.1027331023
H   H84       1.0  0.78770  0.04890  0.85850  1.0000 0.1027331023
H   H85       1.0  0.28770  0.04890  0.64150  1.0000 0.1027331023
H   H86       1.0  0.78770  0.45110  0.35850  1.0000 0.1027331023
H   H87       1.0  0.71230  0.54890  0.85850  1.0000 0.1027331023
H   H88       1.0  0.21230  0.95110  0.14150  1.0000 0.1027331023
H   H89       1.0  0.80020  0.03350  0.22460  1.0000 0.0903494522
H   H90       1.0  0.30020  0.46650  0.77540  1.0000 0.0903494522
H   H91       1.0  0.19980  0.53350  0.27540  1.0000 0.0903494522
H   H92       1.0  0.69980  0.96650  0.72460  1.0000 0.0903494522
H   H93       1.0  0.19980  0.96650  0.77540  1.0000 0.0903494522
H   H94       1.0  0.69980  0.53350  0.22460  1.0000 0.0903494522
H   H95       1.0  0.80020  0.46650  0.72460  1.0000 0.0903494522
H   H96       1.0  0.30020  0.03350  0.27540  1.0000 0.0903494522
C   C1        1.0  0.78093  0.30471  0.43651  1.0000 -0.0592830315
C   C2        1.0  0.28093  0.19529  0.56349  1.0000 -0.0592830315
C   C3        1.0  0.21907  0.80471  0.06349  1.0000 -0.0592830315
C   C4        1.0  0.71907  0.69529  0.93651  1.0000 -0.0592830315
C   C5        1.0  0.21907  0.69529  0.56349  1.0000 -0.0592830315
C   C6        1.0  0.71907  0.80471  0.43651  1.0000 -0.0592830315
C   C7        1.0  0.78093  0.19529  0.93651  1.0000 -0.0592830315
C   C8        1.0  0.28093  0.30471  0.06349  1.0000 -0.0592830315
C   C9        1.0  0.58889  0.96602  0.28967  1.0000 -0.0773733094
C   C10       1.0  0.08889  0.53398  0.71033  1.0000 -0.0773733094
C   C11       1.0  0.41111  0.46602  0.21033  1.0000 -0.0773733094
C   C12       1.0  0.91111  0.03398  0.78967  1.0000 -0.0773733094
C   C13       1.0  0.41111  0.03398  0.71033  1.0000 -0.0773733094
C   C14       1.0  0.91111  0.46602  0.28967  1.0000 -0.0773733094
C   C15       1.0  0.58889  0.53398  0.78967  1.0000 -0.0773733094
C   C16       1.0  0.08889  0.96602  0.21033  1.0000 -0.0773733094
C   C17       1.0  0.01494  0.08046  0.41801  1.0000 0.1258675657
C   C18       1.0  0.51494  0.41954  0.58199  1.0000 0.1258675657
C   C19       1.0  0.98506  0.58046  0.08199  1.0000 0.1258675657
C   C20       1.0  0.48506  0.91954  0.91801  1.0000 0.1258675657
C   C21       1.0  0.98506  0.91954  0.58199  1.0000 0.1258675657
C   C22       1.0  0.48506  0.58046  0.41801  1.0000 0.1258675657
C   C23       1.0  0.01494  0.41954  0.91801  1.0000 0.1258675657
C   C24       1.0  0.51494  0.08046  0.08199  1.0000 0.1258675657
C   C25       1.0  0.14350  0.85573  0.39543  1.0000 -0.0701647159
C   C26       1.0  0.64350  0.64427  0.60457  1.0000 -0.0701647159
C   C27       1.0  0.85650  0.35573  0.10457  1.0000 -0.0701647159
C   C28       1.0  0.35650  0.14427  0.89543  1.0000 -0.0701647159
C   C29       1.0  0.85650  0.14427  0.60457  1.0000 -0.0701647159
C   C30       1.0  0.35650  0.35573  0.39543  1.0000 -0.0701647159
C   C31       1.0  0.14350  0.64427  0.89543  1.0000 -0.0701647159
C   C32       1.0  0.64350  0.85573  0.10457  1.0000 -0.0701647159
C   C33       1.0  0.10545  0.11784  0.34627  1.0000 -0.0701647159
C   C34       1.0  0.60545  0.38216  0.65373  1.0000 -0.0701647159
C   C35       1.0  0.89455  0.61784  0.15373  1.0000 -0.0701647159
C   C36       1.0  0.39455  0.88216  0.84627  1.0000 -0.0701647159
C   C37       1.0  0.89455  0.88216  0.65373  1.0000 -0.0701647159
C   C38       1.0  0.39455  0.61784  0.34627  1.0000 -0.0701647159
C   C39       1.0  0.10545  0.38216  0.84627  1.0000 -0.0701647159
C   C40       1.0  0.60545  0.11784  0.15373  1.0000 -0.0701647159
C   C41       1.0  0.10921  0.15521  0.38783  1.0000 -0.0701647159
C   C42       1.0  0.60921  0.34479  0.61217  1.0000 -0.0701647159
C   C43       1.0  0.89079  0.65521  0.11217  1.0000 -0.0701647159
C   C44       1.0  0.39079  0.84479  0.88783  1.0000 -0.0701647159
C   C45       1.0  0.89079  0.84479  0.61217  1.0000 -0.0701647159
C   C46       1.0  0.39079  0.65521  0.38783  1.0000 -0.0701647159
C   C47       1.0  0.10921  0.34479  0.88783  1.0000 -0.0701647159
C   C48       1.0  0.60921  0.15521  0.11217  1.0000 -0.0701647159
C   C49       1.0  0.99540  0.91863  0.41780  1.0000 0.120414836
C   C50       1.0  0.49540  0.58137  0.58220  1.0000 0.120414836
C   C51       1.0  0.00460  0.41863  0.08220  1.0000 0.120414836
C   C52       1.0  0.50460  0.08137  0.91780  1.0000 0.120414836
C   C53       1.0  0.00460  0.08137  0.58220  1.0000 0.120414836
C   C54       1.0  0.50460  0.41863  0.41780  1.0000 0.120414836
C   C55       1.0  0.99540  0.58137  0.91780  1.0000 0.120414836
C   C56       1.0  0.49540  0.91863  0.08220  1.0000 0.120414836
C   C57       1.0  0.14203  0.89515  0.35547  1.0000 -0.0592830315
C   C58       1.0  0.64203  0.60485  0.64453  1.0000 -0.0592830315
C   C59       1.0  0.85797  0.39515  0.14453  1.0000 -0.0592830315
C   C60       1.0  0.35797  0.10485  0.85547  1.0000 -0.0592830315
C   C61       1.0  0.85797  0.10485  0.64453  1.0000 -0.0592830315
C   C62       1.0  0.35797  0.39515  0.35547  1.0000 -0.0592830315
C   C63       1.0  0.14203  0.60485  0.85547  1.0000 -0.0592830315
C   C64       1.0  0.64203  0.89515  0.14453  1.0000 -0.0592830315
C   C65       1.0  0.75597  0.24737  0.50263  1.0000 0.1258675657
C   C66       1.0  0.25597  0.25263  0.49737  1.0000 0.1258675657
C   C67       1.0  0.24403  0.74737  0.99737  1.0000 0.1258675657
C   C68       1.0  0.74403  0.75263  0.00263  1.0000 0.1258675657
C   C69       1.0  0.24403  0.75263  0.49737  1.0000 0.1258675657
C   C70       1.0  0.74403  0.74737  0.50263  1.0000 0.1258675657
C   C71       1.0  0.75597  0.25263  0.00263  1.0000 0.1258675657
C   C72       1.0  0.25597  0.24737  0.99737  1.0000 0.1258675657
C   C73       1.0  0.89466  0.27115  0.43821  1.0000 -0.0773733094
C   C74       1.0  0.39466  0.22885  0.56179  1.0000 -0.0773733094
C   C75       1.0  0.10534  0.77115  0.06179  1.0000 -0.0773733094
C   C76       1.0  0.60534  0.72885  0.93821  1.0000 -0.0773733094
C   C77       1.0  0.10534  0.72885  0.56179  1.0000 -0.0773733094
C   C78       1.0  0.60534  0.77115  0.43821  1.0000 -0.0773733094
C   C79       1.0  0.89466  0.22885  0.93821  1.0000 -0.0773733094
C   C80       1.0  0.39466  0.27115  0.06179  1.0000 -0.0773733094
C   C81       1.0  0.70126  0.96610  0.32336  1.0000 -0.0701647159
C   C82       1.0  0.20126  0.53390  0.67664  1.0000 -0.0701647159
C   C83       1.0  0.29874  0.46610  0.17664  1.0000 -0.0701647159
C   C84       1.0  0.79874  0.03390  0.82336  1.0000 -0.0701647159
C   C85       1.0  0.29874  0.03390  0.67664  1.0000 -0.0701647159
C   C86       1.0  0.79874  0.46610  0.32336  1.0000 -0.0701647159
C   C87       1.0  0.70126  0.53390  0.82336  1.0000 -0.0701647159
C   C88       1.0  0.20126  0.96610  0.17664  1.0000 -0.0701647159
C   C89       1.0  0.75238  0.01235  0.25078  1.0000 0.120414836
C   C90       1.0  0.25238  0.48765  0.74922  1.0000 0.120414836
C   C91       1.0  0.24762  0.51235  0.24922  1.0000 0.120414836
C   C92       1.0  0.74762  0.98765  0.75078  1.0000 0.120414836
C   C93       1.0  0.24762  0.98765  0.74922  1.0000 0.120414836
C   C94       1.0  0.74762  0.51235  0.25078  1.0000 0.120414836
C   C95       1.0  0.75238  0.48765  0.75078  1.0000 0.120414836
C   C96       1.0  0.25238  0.01235  0.24922  1.0000 0.120414836
N   N1        1.0  0.04535  0.06976  0.36553  1.0000 -0.2977435376
N   N2        1.0  0.54535  0.43024  0.63447  1.0000 -0.2977435376
N   N3        1.0  0.95465  0.56976  0.13447  1.0000 -0.2977435376
N   N4        1.0  0.45465  0.93024  0.86553  1.0000 -0.2977435376
N   N5        1.0  0.95465  0.93024  0.63447  1.0000 -0.2977435376
N   N6        1.0  0.45465  0.56976  0.36553  1.0000 -0.2977435376
N   N7        1.0  0.04535  0.43024  0.86553  1.0000 -0.2977435376
N   N8        1.0  0.54535  0.06976  0.13447  1.0000 -0.2977435376
N   N9        1.0  0.87902  0.23440  0.48085  1.0000 -0.2907003907
N   N10       1.0  0.37902  0.26560  0.51915  1.0000 -0.2907003907
N   N11       1.0  0.12098  0.73440  0.01915  1.0000 -0.2907003907
N   N12       1.0  0.62098  0.76560  0.98085  1.0000 -0.2907003907
N   N13       1.0  0.12098  0.76560  0.51915  1.0000 -0.2907003907
N   N14       1.0  0.62098  0.73440  0.48085  1.0000 -0.2907003907
N   N15       1.0  0.87902  0.26560  0.98085  1.0000 -0.2907003907
N   N16       1.0  0.37902  0.23440  0.01915  1.0000 -0.2907003907
N   N17       1.0  0.69236  0.28969  0.47784  1.0000 -0.2907003907
N   N18       1.0  0.19236  0.21031  0.52216  1.0000 -0.2907003907
N   N19       1.0  0.30764  0.78969  0.02216  1.0000 -0.2907003907
N   N20       1.0  0.80764  0.71031  0.97784  1.0000 -0.2907003907
N   N21       1.0  0.30764  0.71031  0.52216  1.0000 -0.2907003907
N   N22       1.0  0.80764  0.78969  0.47784  1.0000 -0.2907003907
N   N23       1.0  0.69236  0.21031  0.97784  1.0000 -0.2907003907
N   N24       1.0  0.19236  0.28969  0.02216  1.0000 -0.2907003907
N   N25       1.0  0.04704  0.93529  0.36959  1.0000 -0.2907003907
N   N26       1.0  0.54704  0.56471  0.63041  1.0000 -0.2907003907
N   N27       1.0  0.95296  0.43529  0.13041  1.0000 -0.2907003907
N   N28       1.0  0.45296  0.06471  0.86959  1.0000 -0.2907003907
N   N29       1.0  0.95296  0.06471  0.63041  1.0000 -0.2907003907
N   N30       1.0  0.45296  0.43529  0.36959  1.0000 -0.2907003907
N   N31       1.0  0.04704  0.56471  0.86959  1.0000 -0.2907003907
N   N32       1.0  0.54704  0.93529  0.13041  1.0000 -0.2907003907
N   N33       1.0  0.05122  0.13161  0.43357  1.0000 -0.2977435376
N   N34       1.0  0.55122  0.36839  0.56643  1.0000 -0.2977435376
N   N35       1.0  0.94878  0.63161  0.06643  1.0000 -0.2977435376
N   N36       1.0  0.44878  0.86839  0.93357  1.0000 -0.2977435376
N   N37       1.0  0.94878  0.86839  0.56643  1.0000 -0.2977435376
N   N38       1.0  0.44878  0.63161  0.43357  1.0000 -0.2977435376
N   N39       1.0  0.05122  0.36839  0.93357  1.0000 -0.2977435376
N   N40       1.0  0.55122  0.13161  0.06643  1.0000 -0.2977435376
N   N41       1.0  0.04929  0.87055  0.43520  1.0000 -0.2907003907
N   N42       1.0  0.54929  0.62945  0.56480  1.0000 -0.2907003907
N   N43       1.0  0.95071  0.37055  0.06480  1.0000 -0.2907003907
N   N44       1.0  0.45071  0.12945  0.93520  1.0000 -0.2907003907
N   N45       1.0  0.95071  0.12945  0.56480  1.0000 -0.2907003907
N   N46       1.0  0.45071  0.37055  0.43520  1.0000 -0.2907003907
N   N47       1.0  0.04929  0.62945  0.93520  1.0000 -0.2907003907
N   N48       1.0  0.54929  0.87055  0.06480  1.0000 -0.2907003907
N   N49       1.0  0.12132  0.99579  0.25698  1.0000 -0.2977435376
N   N50       1.0  0.62132  0.50421  0.74302  1.0000 -0.2977435376
N   N51       1.0  0.87868  0.49579  0.24302  1.0000 -0.2977435376
N   N52       1.0  0.37868  0.00421  0.75698  1.0000 -0.2977435376
N   N53       1.0  0.87868  0.00421  0.74302  1.0000 -0.2977435376
N   N54       1.0  0.37868  0.49579  0.25698  1.0000 -0.2907003907
N   N55       1.0  0.12132  0.50421  0.75698  1.0000 -0.2977435376
N   N56       1.0  0.62132  0.99579  0.24302  1.0000 -0.2977435376
N   N57       1.0  0.80621  0.99562  0.29859  1.0000 -0.2907003907
N   N58       1.0  0.30621  0.50438  0.70141  1.0000 -0.2907003907
N   N59       1.0  0.19379  0.49562  0.20141  1.0000 -0.2907003907
N   N60       1.0  0.69379  0.00438  0.79859  1.0000 -0.2907003907
N   N61       1.0  0.19379  0.00438  0.70141  1.0000 -0.2907003907
N   N62       1.0  0.69379  0.49562  0.29859  1.0000 -0.2907003907
N   N63       1.0  0.80621  0.50438  0.79859  1.0000 -0.2907003907
N   N64       1.0  0.30621  0.99562  0.20141  1.0000 -0.2907003907
