# generated by PACMAN-DDEC6 charge (https://github.com/sxm13/PACMAN/)
data_structure
_chemical_formula_sum              "In12 H180 C240 O60"
_cell_length_a       7.2682
_cell_length_b       30.1678
_cell_length_c       49.7021
_cell_angle_alpha    90
_cell_angle_beta     90
_cell_angle_gamma    90

_symmetry_space_group_name_H-M    "P 1"
_symmetry_Int_Tables_number       1

loop_
  _symmetry_equiv_pos_as_xyz
  'x, y, z'

loop_
  _atom_site_type_symbol
  _atom_site_label
  _atom_site_symmetry_multiplicity
  _atom_site_fract_x
  _atom_site_fract_y
  _atom_site_fract_z
  _atom_site_occupancy
  _atom_site_charge
In  In1       1.0  0.49941  0.45730  0.65914  1.0000 1.5397555088
In  In2       1.0  0.50059  0.95730  0.84086  1.0000 1.5397555088
In  In3       1.0  0.99941  0.54270  0.34086  1.0000 1.5397555088
In  In4       1.0  0.00059  0.04270  0.15914  1.0000 1.5397555088
In  In5       1.0  0.50059  0.54270  0.34086  1.0000 1.5397555088
In  In6       1.0  0.49941  0.04270  0.15914  1.0000 1.5397555088
In  In7       1.0  0.00059  0.45730  0.65914  1.0000 1.5397555088
In  In8       1.0  0.99941  0.95730  0.84086  1.0000 1.5397555088
In  In9       1.0  0.00000  0.50000  0.00000  1.0000 1.5397555088
In  In10      1.0  0.00000  0.00000  0.50000  1.0000 1.5397555088
In  In11      1.0  0.50000  0.50000  0.00000  1.0000 1.5397555088
In  In12      1.0  0.50000  0.00000  0.50000  1.0000 1.5397555088
H   H1        1.0  0.97814  0.39751  0.57922  1.0000 0.1262632422
H   H2        1.0  0.02186  0.89751  0.92078  1.0000 0.1262632422
H   H3        1.0  0.47814  0.60249  0.42078  1.0000 0.1262632422
H   H4        1.0  0.52186  0.10249  0.07922  1.0000 0.1262632422
H   H5        1.0  0.02186  0.60249  0.42078  1.0000 0.1262632422
H   H6        1.0  0.97814  0.10249  0.07922  1.0000 0.1262632422
H   H7        1.0  0.52186  0.39751  0.57922  1.0000 0.1262632422
H   H8        1.0  0.47814  0.89751  0.92078  1.0000 0.1262632422
H   H9        1.0  0.97808  0.36310  0.53792  1.0000 0.1230343631
H   H10       1.0  0.02192  0.86310  0.96208  1.0000 0.1230343631
H   H11       1.0  0.47808  0.63690  0.46208  1.0000 0.1230343631
H   H12       1.0  0.52192  0.13690  0.03792  1.0000 0.1230343631
H   H13       1.0  0.02192  0.63690  0.46208  1.0000 0.1230343631
H   H14       1.0  0.97808  0.13690  0.03792  1.0000 0.1230343631
H   H15       1.0  0.52192  0.36310  0.53792  1.0000 0.1230343631
H   H16       1.0  0.47808  0.86310  0.96208  1.0000 0.1230343631
H   H17       1.0  0.97819  0.13800  0.47678  1.0000 0.1262632422
H   H18       1.0  0.02181  0.63800  0.02322  1.0000 0.1262632422
H   H19       1.0  0.47819  0.86200  0.52322  1.0000 0.1262632422
H   H20       1.0  0.52181  0.36200  0.97678  1.0000 0.1262632422
H   H21       1.0  0.02181  0.86200  0.52322  1.0000 0.1262632422
H   H22       1.0  0.97819  0.36200  0.97678  1.0000 0.1262632422
H   H23       1.0  0.52181  0.13800  0.47678  1.0000 0.1262632422
H   H24       1.0  0.47819  0.63800  0.02322  1.0000 0.1262632422
H   H25       1.0  0.97761  0.21374  0.47684  1.0000 0.1262632422
H   H26       1.0  0.02239  0.71374  0.02316  1.0000 0.1262632422
H   H27       1.0  0.47761  0.78626  0.52316  1.0000 0.1262632422
H   H28       1.0  0.52239  0.28626  0.97684  1.0000 0.1262632422
H   H29       1.0  0.02239  0.78626  0.52316  1.0000 0.1262632422
H   H30       1.0  0.97761  0.28626  0.97684  1.0000 0.1262632422
H   H31       1.0  0.52239  0.21374  0.47684  1.0000 0.1262632422
H   H32       1.0  0.47761  0.71374  0.02316  1.0000 0.1262632422
H   H33       1.0  0.97620  0.42887  0.39390  1.0000 0.1230343631
H   H34       1.0  0.02380  0.92887  0.10610  1.0000 0.1230343631
H   H35       1.0  0.47620  0.57113  0.60610  1.0000 0.1230343631
H   H36       1.0  0.52380  0.07113  0.89390  1.0000 0.1230343631
H   H37       1.0  0.02380  0.57113  0.60610  1.0000 0.1230343631
H   H38       1.0  0.97620  0.07113  0.89390  1.0000 0.1230343631
H   H39       1.0  0.52380  0.42887  0.39390  1.0000 0.1230343631
H   H40       1.0  0.47620  0.92887  0.10610  1.0000 0.1230343631
H   H41       1.0  0.97917  0.37718  0.42829  1.0000 0.1230343631
H   H42       1.0  0.02083  0.87718  0.07171  1.0000 0.1230343631
H   H43       1.0  0.47917  0.62282  0.57171  1.0000 0.1230343631
H   H44       1.0  0.52083  0.12282  0.92829  1.0000 0.1230343631
H   H45       1.0  0.02083  0.62282  0.57171  1.0000 0.1230343631
H   H46       1.0  0.97917  0.12282  0.92829  1.0000 0.1230343631
H   H47       1.0  0.52083  0.37718  0.42829  1.0000 0.1230343631
H   H48       1.0  0.47917  0.87718  0.07171  1.0000 0.1230343631
H   H49       1.0  0.25000  0.42707  0.46718  1.0000 0.1230343631
H   H50       1.0  0.75000  0.92707  0.03282  1.0000 0.1230343631
H   H51       1.0  0.75000  0.57293  0.53282  1.0000 0.1230343631
H   H52       1.0  0.25000  0.07293  0.96718  1.0000 0.1230343631
H   H53       1.0  0.25000  0.24397  0.43010  1.0000 0.1124438711
H   H54       1.0  0.75000  0.74397  0.06990  1.0000 0.1124438711
H   H55       1.0  0.75000  0.75603  0.56990  1.0000 0.1124438711
H   H56       1.0  0.25000  0.25603  0.93010  1.0000 0.1124438711
H   H57       1.0  0.25000  0.28316  0.54440  1.0000 0.1262632422
H   H58       1.0  0.75000  0.78316  0.95560  1.0000 0.1262632422
H   H59       1.0  0.75000  0.71684  0.45560  1.0000 0.1262632422
H   H60       1.0  0.25000  0.21684  0.04440  1.0000 0.1262632422
H   H61       1.0  0.02402  0.53612  0.73201  1.0000 0.1230343631
H   H62       1.0  0.97598  0.03612  0.76799  1.0000 0.1230343631
H   H63       1.0  0.52402  0.46388  0.26799  1.0000 0.1230343631
H   H64       1.0  0.47598  0.96388  0.23201  1.0000 0.1230343631
H   H65       1.0  0.97598  0.46388  0.26799  1.0000 0.1230343631
H   H66       1.0  0.02402  0.96388  0.23201  1.0000 0.1230343631
H   H67       1.0  0.47598  0.53612  0.73201  1.0000 0.1230343631
H   H68       1.0  0.52402  0.03612  0.76799  1.0000 0.1230343631
H   H69       1.0  0.02189  0.58172  0.76867  1.0000 0.1262632422
H   H70       1.0  0.97811  0.08172  0.73133  1.0000 0.1262632422
H   H71       1.0  0.52189  0.41828  0.23133  1.0000 0.1262632422
H   H72       1.0  0.47811  0.91828  0.26867  1.0000 0.1262632422
H   H73       1.0  0.97811  0.41828  0.23133  1.0000 0.1262632422
H   H74       1.0  0.02189  0.91828  0.26867  1.0000 0.1262632422
H   H75       1.0  0.47811  0.58172  0.76867  1.0000 0.1262632422
H   H76       1.0  0.52189  0.08172  0.73133  1.0000 0.1262632422
H   H77       1.0  0.01967  0.55646  0.91933  1.0000 0.1230343631
H   H78       1.0  0.98033  0.05646  0.58067  1.0000 0.1230343631
H   H79       1.0  0.51967  0.44354  0.08067  1.0000 0.1230343631
H   H80       1.0  0.48033  0.94354  0.41933  1.0000 0.1230343631
H   H81       1.0  0.98033  0.44354  0.08067  1.0000 0.1230343631
H   H82       1.0  0.01967  0.94354  0.41933  1.0000 0.1230343631
H   H83       1.0  0.48033  0.55646  0.91933  1.0000 0.1230343631
H   H84       1.0  0.51967  0.05646  0.58067  1.0000 0.1230343631
H   H85       1.0  0.02273  0.59287  0.87871  1.0000 0.1230343631
H   H86       1.0  0.97727  0.09287  0.62129  1.0000 0.1262632422
H   H87       1.0  0.52273  0.40713  0.12129  1.0000 0.1262632422
H   H88       1.0  0.47727  0.90713  0.37871  1.0000 0.1262632422
H   H89       1.0  0.97727  0.40713  0.12129  1.0000 0.1262632422
H   H90       1.0  0.02273  0.90713  0.37871  1.0000 0.1230343631
H   H91       1.0  0.47727  0.59287  0.87871  1.0000 0.1230343631
H   H92       1.0  0.52273  0.09287  0.62129  1.0000 0.1262632422
H   H93       1.0  0.02074  0.81996  0.81859  1.0000 0.1230343631
H   H94       1.0  0.97926  0.31996  0.68141  1.0000 0.1230343631
H   H95       1.0  0.52074  0.18004  0.18141  1.0000 0.1230343631
H   H96       1.0  0.47926  0.68004  0.31859  1.0000 0.1230343631
H   H97       1.0  0.97926  0.18004  0.18141  1.0000 0.1230343631
H   H98       1.0  0.02074  0.68004  0.31859  1.0000 0.1230343631
H   H99       1.0  0.47926  0.81996  0.81859  1.0000 0.1230343631
H   H100      1.0  0.52074  0.31996  0.68141  1.0000 0.1230343631
H   H101      1.0  0.02113  0.74387  0.81761  1.0000 0.1262632422
H   H102      1.0  0.97887  0.24387  0.68239  1.0000 0.1262632422
H   H103      1.0  0.52113  0.25613  0.18239  1.0000 0.1262632422
H   H104      1.0  0.47887  0.75613  0.31761  1.0000 0.1262632422
H   H105      1.0  0.97887  0.25613  0.18239  1.0000 0.1262632422
H   H106      1.0  0.02113  0.75613  0.31761  1.0000 0.1262632422
H   H107      1.0  0.47887  0.74387  0.81761  1.0000 0.1262632422
H   H108      1.0  0.52113  0.24387  0.68239  1.0000 0.1262632422
H   H109      1.0  0.75000  0.53430  0.84400  1.0000 0.1230343631
H   H110      1.0  0.25000  0.03430  0.65600  1.0000 0.1230343631
H   H111      1.0  0.25000  0.46570  0.15600  1.0000 0.1230343631
H   H112      1.0  0.75000  0.96570  0.34400  1.0000 0.1230343631
H   H113      1.0  0.75000  0.67301  0.88614  1.0000 0.1262632422
H   H114      1.0  0.25000  0.17301  0.61386  1.0000 0.1262632422
H   H115      1.0  0.25000  0.32699  0.11386  1.0000 0.1262632422
H   H116      1.0  0.75000  0.82699  0.38614  1.0000 0.1262632422
H   H117      1.0  0.75000  0.65946  0.75537  1.0000 0.1124438711
H   H118      1.0  0.25000  0.15946  0.74463  1.0000 0.1124438711
H   H119      1.0  0.25000  0.34054  0.24463  1.0000 0.1124438711
H   H120      1.0  0.75000  0.84054  0.25537  1.0000 0.1124438711
H   H121      1.0  0.25000  0.51761  0.67184  1.0000 0.3983456225
H   H122      1.0  0.75000  0.01761  0.82816  1.0000 0.3983456225
H   H123      1.0  0.75000  0.48239  0.32816  1.0000 0.3983456225
H   H124      1.0  0.25000  0.98239  0.17184  1.0000 0.3983456225
H   H125      1.0  0.75000  0.39640  0.64847  1.0000 0.3983456225
H   H126      1.0  0.25000  0.89640  0.85153  1.0000 0.3983456225
H   H127      1.0  0.25000  0.60360  0.35153  1.0000 0.3983456225
H   H128      1.0  0.75000  0.10360  0.14847  1.0000 0.3983456225
H   H129      1.0  0.75000  0.44144  0.01488  1.0000 0.3983456225
H   H130      1.0  0.25000  0.94144  0.48512  1.0000 0.3983456225
H   H131      1.0  0.25000  0.55856  0.98512  1.0000 0.3983456225
H   H132      1.0  0.75000  0.05856  0.51488  1.0000 0.3983456225
H   H133      1.0  0.14216  0.42372  0.49442  0.5000 0.1262632422
H   H134      1.0  0.85784  0.92372  0.00558  0.5000 0.1262632422
H   H135      1.0  0.64216  0.57628  0.50558  0.5000 0.1262632422
H   H136      1.0  0.35784  0.07628  0.99442  0.5000 0.1262632422
H   H137      1.0  0.85784  0.57628  0.50558  0.5000 0.1262632422
H   H138      1.0  0.14216  0.07628  0.99442  0.5000 0.1262632422
H   H139      1.0  0.35784  0.42372  0.49442  0.5000 0.1262632422
H   H140      1.0  0.64216  0.92372  0.00558  0.5000 0.1262632422
H   H141      1.0  0.14216  0.28419  0.41785  0.5000 0.1230343631
H   H142      1.0  0.85784  0.78419  0.08215  0.5000 0.1230343631
H   H143      1.0  0.64216  0.71581  0.58215  0.5000 0.1230343631
H   H144      1.0  0.35784  0.21581  0.91785  0.5000 0.1230343631
H   H145      1.0  0.85784  0.71581  0.58215  0.5000 0.1230343631
H   H146      1.0  0.14216  0.21581  0.91785  0.5000 0.1230343631
H   H147      1.0  0.35784  0.28419  0.41785  0.5000 0.1230343631
H   H148      1.0  0.64216  0.78419  0.08215  0.5000 0.1230343631
H   H149      1.0  0.14216  0.24589  0.52909  0.5000 0.1262632422
H   H150      1.0  0.85784  0.74589  0.97091  0.5000 0.1262632422
H   H151      1.0  0.64216  0.75411  0.47091  0.5000 0.1262632422
H   H152      1.0  0.35784  0.25411  0.02909  0.5000 0.1262632422
H   H153      1.0  0.85784  0.75411  0.47091  0.5000 0.1262632422
H   H154      1.0  0.14216  0.25411  0.02909  0.5000 0.1262632422
H   H155      1.0  0.35784  0.24589  0.52909  0.5000 0.1262632422
H   H156      1.0  0.64216  0.74589  0.97091  0.5000 0.1262632422
H   H157      1.0  0.64215  0.53129  0.81675  0.5000 0.1230343631
H   H158      1.0  0.35785  0.03129  0.68325  0.5000 0.1230343631
H   H159      1.0  0.14215  0.46871  0.18325  0.5000 0.1230343631
H   H160      1.0  0.85785  0.96871  0.31675  0.5000 0.1230343631
H   H161      1.0  0.35785  0.46871  0.18325  0.5000 0.1230343631
H   H162      1.0  0.64215  0.96871  0.31675  0.5000 0.1230343631
H   H163      1.0  0.85785  0.53129  0.81675  0.5000 0.1230343631
H   H164      1.0  0.14215  0.03129  0.68325  0.5000 0.1230343631
H   H165      1.0  0.85784  0.71068  0.87120  0.5000 0.1262632422
H   H166      1.0  0.14216  0.21068  0.62880  0.5000 0.1262632422
H   H167      1.0  0.35784  0.28932  0.12880  0.5000 0.1262632422
H   H168      1.0  0.64216  0.78932  0.37120  0.5000 0.1262632422
H   H169      1.0  0.14216  0.28932  0.12880  0.5000 0.1262632422
H   H170      1.0  0.85784  0.78932  0.37120  0.5000 0.1262632422
H   H171      1.0  0.64216  0.71068  0.87120  0.5000 0.1262632422
H   H172      1.0  0.35784  0.21068  0.62880  0.5000 0.1262632422
H   H173      1.0  0.64215  0.69981  0.76747  0.5000 0.1230343631
H   H174      1.0  0.35785  0.19981  0.73253  0.5000 0.1230343631
H   H175      1.0  0.14215  0.30019  0.23253  0.5000 0.1230343631
H   H176      1.0  0.85785  0.80019  0.26747  0.5000 0.1230343631
H   H177      1.0  0.35785  0.30019  0.23253  0.5000 0.1230343631
H   H178      1.0  0.64215  0.80019  0.26747  0.5000 0.1230343631
H   H179      1.0  0.85785  0.69981  0.76747  0.5000 0.1230343631
H   H180      1.0  0.14215  0.19981  0.73253  0.5000 0.1230343631
C   C1        1.0  0.25000  0.42210  0.61089  1.0000 0.6108155405
C   C2        1.0  0.75000  0.92210  0.88911  1.0000 0.6108155405
C   C3        1.0  0.75000  0.57790  0.38911  1.0000 0.6108155405
C   C4        1.0  0.25000  0.07790  0.11089  1.0000 0.6108155405
C   C5        1.0  0.25000  0.40090  0.58358  1.0000 -0.0297882165
C   C6        1.0  0.75000  0.90090  0.91642  1.0000 -0.0297882165
C   C7        1.0  0.75000  0.59910  0.41642  1.0000 -0.0297882165
C   C8        1.0  0.25000  0.09910  0.08358  1.0000 -0.0297882165
C   C9        1.0  0.08950  0.39070  0.57097  1.0000 -0.0997975262
C   C10       1.0  0.91050  0.89070  0.92903  1.0000 -0.0997975262
C   C11       1.0  0.58950  0.60930  0.42903  1.0000 -0.0997975262
C   C12       1.0  0.41050  0.10930  0.07097  1.0000 -0.0997975262
C   C13       1.0  0.91050  0.60930  0.42903  1.0000 -0.0997975262
C   C14       1.0  0.08950  0.10930  0.07097  1.0000 -0.0997975262
C   C15       1.0  0.41050  0.39070  0.57097  1.0000 -0.0997975262
C   C16       1.0  0.58950  0.89070  0.92903  1.0000 -0.0997975262
C   C17       1.0  0.08950  0.37030  0.54600  1.0000 -0.1536926665
C   C18       1.0  0.91050  0.87030  0.95400  1.0000 -0.1536926665
C   C19       1.0  0.58950  0.62970  0.45400  1.0000 -0.1536926665
C   C20       1.0  0.41050  0.12970  0.04600  1.0000 -0.1536926665
C   C21       1.0  0.91050  0.62970  0.45400  1.0000 -0.1536926665
C   C22       1.0  0.08950  0.12970  0.04600  1.0000 -0.1536926665
C   C23       1.0  0.41050  0.37030  0.54600  1.0000 -0.1536926665
C   C24       1.0  0.58950  0.87030  0.95400  1.0000 -0.1536926665
C   C25       1.0  0.25000  0.36060  0.53302  1.0000 0.0929053903
C   C26       1.0  0.75000  0.86060  0.96698  1.0000 0.0929053903
C   C27       1.0  0.75000  0.63940  0.46698  1.0000 0.0929053903
C   C28       1.0  0.25000  0.13940  0.03302  1.0000 0.0929053903
C   C29       1.0  0.25000  0.08019  0.48178  1.0000 0.6108155405
C   C30       1.0  0.75000  0.58019  0.01822  1.0000 0.6108155405
C   C31       1.0  0.75000  0.91981  0.51822  1.0000 0.6108155405
C   C32       1.0  0.25000  0.41981  0.98178  1.0000 0.6108155405
C   C33       1.0  0.25000  0.13000  0.47846  1.0000 -0.0297882165
C   C34       1.0  0.75000  0.63000  0.02154  1.0000 -0.0297882165
C   C35       1.0  0.75000  0.87000  0.52154  1.0000 -0.0297882165
C   C36       1.0  0.25000  0.37000  0.97846  1.0000 -0.0297882165
C   C37       1.0  0.08940  0.15321  0.47731  1.0000 -0.0997975262
C   C38       1.0  0.91060  0.65321  0.02269  1.0000 -0.0997975262
C   C39       1.0  0.58940  0.84679  0.52269  1.0000 -0.0997975262
C   C40       1.0  0.41060  0.34679  0.97731  1.0000 -0.0997975262
C   C41       1.0  0.91060  0.84679  0.52269  1.0000 -0.0997975262
C   C42       1.0  0.08940  0.34679  0.97731  1.0000 -0.0997975262
C   C43       1.0  0.41060  0.15321  0.47731  1.0000 -0.0997975262
C   C44       1.0  0.58940  0.65321  0.02269  1.0000 -0.0997975262
C   C45       1.0  0.08940  0.19872  0.47692  1.0000 -0.1536926665
C   C46       1.0  0.91060  0.69872  0.02308  1.0000 -0.1536926665
C   C47       1.0  0.58940  0.80128  0.52308  1.0000 -0.1536926665
C   C48       1.0  0.41060  0.30128  0.97692  1.0000 -0.1536926665
C   C49       1.0  0.91060  0.80128  0.52308  1.0000 -0.1536926665
C   C50       1.0  0.08940  0.30128  0.97692  1.0000 -0.1536926665
C   C51       1.0  0.41060  0.19872  0.47692  1.0000 -0.1536926665
C   C52       1.0  0.58940  0.69872  0.02308  1.0000 -0.1536926665
C   C53       1.0  0.25000  0.22260  0.47665  1.0000 0.0929053903
C   C54       1.0  0.75000  0.72260  0.02335  1.0000 0.0929053903
C   C55       1.0  0.75000  0.77740  0.52335  1.0000 0.0929053903
C   C56       1.0  0.25000  0.27740  0.97665  1.0000 0.0929053903
C   C57       1.0  0.25000  0.47130  0.37038  1.0000 0.6108155405
C   C58       1.0  0.75000  0.97130  0.12962  1.0000 0.6108155405
C   C59       1.0  0.75000  0.52870  0.62962  1.0000 0.6108155405
C   C60       1.0  0.25000  0.02870  0.87038  1.0000 0.6108155405
C   C61       1.0  0.25000  0.43540  0.39055  1.0000 -0.0536735381
C   C62       1.0  0.75000  0.93540  0.10945  1.0000 -0.0536735381
C   C63       1.0  0.75000  0.56460  0.60945  1.0000 -0.0536735381
C   C64       1.0  0.25000  0.06460  0.89055  1.0000 -0.0536735381
C   C65       1.0  0.08790  0.41910  0.40086  1.0000 -0.0876652047
C   C66       1.0  0.91210  0.91910  0.09914  1.0000 -0.0876652047
C   C67       1.0  0.58790  0.58090  0.59914  1.0000 -0.0876652047
C   C68       1.0  0.41210  0.08090  0.90086  1.0000 -0.0876652047
C   C69       1.0  0.91210  0.58090  0.59914  1.0000 -0.0876652047
C   C70       1.0  0.08790  0.08090  0.90086  1.0000 -0.0876652047
C   C71       1.0  0.41210  0.41910  0.40086  1.0000 -0.0876652047
C   C72       1.0  0.58790  0.91910  0.09914  1.0000 -0.0876652047
C   C73       1.0  0.09010  0.38810  0.42172  1.0000 -0.1578890353
C   C74       1.0  0.90990  0.88810  0.07828  1.0000 -0.1578890353
C   C75       1.0  0.59010  0.61190  0.57828  1.0000 -0.1578890353
C   C76       1.0  0.40990  0.11190  0.92172  1.0000 -0.1578890353
C   C77       1.0  0.90990  0.61190  0.57828  1.0000 -0.1578890353
C   C78       1.0  0.09010  0.11190  0.92172  1.0000 -0.1578890353
C   C79       1.0  0.40990  0.38810  0.42172  1.0000 -0.1578890353
C   C80       1.0  0.59010  0.88810  0.07828  1.0000 -0.1578890353
C   C81       1.0  0.25000  0.37350  0.43260  1.0000 0.0929053903
C   C82       1.0  0.75000  0.87350  0.06740  1.0000 0.0929053903
C   C83       1.0  0.75000  0.62650  0.56740  1.0000 0.0929053903
C   C84       1.0  0.25000  0.12650  0.93260  1.0000 0.0929053903
C   C85       1.0  0.25000  0.33860  0.50568  1.0000 -0.0622197227
C   C86       1.0  0.75000  0.83860  0.99432  1.0000 -0.0654157981
C   C87       1.0  0.75000  0.66140  0.49432  1.0000 -0.0654157981
C   C88       1.0  0.25000  0.16140  0.00568  1.0000 -0.0622197227
C   C89       1.0  0.25000  0.36440  0.48260  1.0000 0.0631830208
C   C90       1.0  0.75000  0.86440  0.01740  1.0000 0.0631830208
C   C91       1.0  0.75000  0.63560  0.51740  1.0000 0.0631830208
C   C92       1.0  0.25000  0.13560  0.98260  1.0000 0.0631830208
C   C93       1.0  0.25000  0.34400  0.45749  1.0000 -0.0654157981
C   C94       1.0  0.75000  0.84400  0.04251  1.0000 -0.0654157981
C   C95       1.0  0.75000  0.65600  0.54251  1.0000 -0.0654157981
C   C96       1.0  0.25000  0.15600  0.95749  1.0000 -0.0654157981
C   C97       1.0  0.25000  0.29810  0.45501  1.0000 0.0631830208
C   C98       1.0  0.75000  0.79810  0.04499  1.0000 0.0631830208
C   C99       1.0  0.75000  0.70190  0.54499  1.0000 0.0631830208
C   C100      1.0  0.25000  0.20190  0.95501  1.0000 0.0631830208
C   C101      1.0  0.25000  0.27200  0.47853  1.0000 -0.0654157981
C   C102      1.0  0.75000  0.77200  0.02147  1.0000 -0.0654157981
C   C103      1.0  0.75000  0.72800  0.52147  1.0000 -0.0654157981
C   C104      1.0  0.25000  0.22800  0.97853  1.0000 -0.0654157981
C   C105      1.0  0.25000  0.29230  0.50369  1.0000 0.0631830208
C   C106      1.0  0.75000  0.79230  0.99631  1.0000 0.0631830208
C   C107      1.0  0.75000  0.70770  0.49631  1.0000 0.0631830208
C   C108      1.0  0.25000  0.20770  0.00369  1.0000 0.0631830208
C   C109      1.0  0.25000  0.41430  0.48486  1.0000 -0.4368896902
C   C110      1.0  0.75000  0.91430  0.01514  1.0000 -0.4368896902
C   C111      1.0  0.75000  0.58570  0.51514  1.0000 -0.4368896902
C   C112      1.0  0.25000  0.08570  0.98486  1.0000 -0.4368896902
C   C113      1.0  0.25000  0.27550  0.42769  1.0000 -0.4233843729
C   C114      1.0  0.75000  0.77550  0.07231  1.0000 -0.4233843729
C   C115      1.0  0.75000  0.72450  0.57231  1.0000 -0.4233843729
C   C116      1.0  0.25000  0.22450  0.92769  1.0000 -0.4233843729
C   C117      1.0  0.25000  0.26430  0.52886  1.0000 -0.4368896902
C   C118      1.0  0.75000  0.76430  0.97114  1.0000 -0.4368896902
C   C119      1.0  0.75000  0.73570  0.47114  1.0000 -0.4368896902
C   C120      1.0  0.25000  0.23570  0.02886  1.0000 -0.4368896902
C   C121      1.0  0.75000  0.49859  0.70506  1.0000 0.6108155405
C   C122      1.0  0.25000  0.99859  0.79494  1.0000 0.6108155405
C   C123      1.0  0.25000  0.50141  0.29494  1.0000 0.6108155405
C   C124      1.0  0.75000  0.00141  0.20506  1.0000 0.6108155405
C   C125      1.0  0.75000  0.52940  0.72868  1.0000 -0.0370582727
C   C126      1.0  0.25000  0.02940  0.77132  1.0000 -0.0370582727
C   C127      1.0  0.25000  0.47060  0.27132  1.0000 -0.0370582727
C   C128      1.0  0.75000  0.97060  0.22868  1.0000 -0.0370582727
C   C129      1.0  0.91240  0.54454  0.73960  1.0000 -0.0997975262
C   C130      1.0  0.08760  0.04454  0.76040  1.0000 -0.0997975262
C   C131      1.0  0.41240  0.45546  0.26040  1.0000 -0.0997975262
C   C132      1.0  0.58760  0.95546  0.23960  1.0000 -0.0997975262
C   C133      1.0  0.08760  0.45546  0.26040  1.0000 -0.0997975262
C   C134      1.0  0.91240  0.95546  0.23960  1.0000 -0.0997975262
C   C135      1.0  0.58760  0.54454  0.73960  1.0000 -0.0997975262
C   C136      1.0  0.41240  0.04454  0.76040  1.0000 -0.0997975262
C   C137      1.0  0.91060  0.57200  0.76158  1.0000 -0.1536926665
C   C138      1.0  0.08940  0.07200  0.73842  1.0000 -0.1536926665
C   C139      1.0  0.41060  0.42800  0.23842  1.0000 -0.1536926665
C   C140      1.0  0.58940  0.92800  0.26158  1.0000 -0.1536926665
C   C141      1.0  0.08940  0.42800  0.23842  1.0000 -0.1536926665
C   C142      1.0  0.91060  0.92800  0.26158  1.0000 -0.1536926665
C   C143      1.0  0.58940  0.57200  0.76158  1.0000 -0.1536926665
C   C144      1.0  0.41060  0.07200  0.73842  1.0000 -0.1536926665
C   C145      1.0  0.75000  0.58550  0.77342  1.0000 0.0929053903
C   C146      1.0  0.25000  0.08550  0.72658  1.0000 0.0929053903
C   C147      1.0  0.25000  0.41450  0.22658  1.0000 0.0929053903
C   C148      1.0  0.75000  0.91450  0.27342  1.0000 0.0929053903
C   C149      1.0  0.75000  0.53107  0.95069  1.0000 0.6108155405
C   C150      1.0  0.25000  0.03107  0.54931  1.0000 0.6108155405
C   C151      1.0  0.25000  0.46893  0.04931  1.0000 0.6108155405
C   C152      1.0  0.75000  0.96893  0.45069  1.0000 0.6108155405
C   C153      1.0  0.75000  0.55260  0.92376  1.0000 -0.0370582727
C   C154      1.0  0.25000  0.05260  0.57624  1.0000 -0.0370582727
C   C155      1.0  0.25000  0.44740  0.07624  1.0000 -0.0370582727
C   C156      1.0  0.75000  0.94740  0.42376  1.0000 -0.0370582727
C   C157      1.0  0.90840  0.56370  0.91119  1.0000 -0.0997975262
C   C158      1.0  0.09160  0.06370  0.58881  1.0000 -0.0997975262
C   C159      1.0  0.40840  0.43630  0.08881  1.0000 -0.0997975262
C   C160      1.0  0.59160  0.93630  0.41119  1.0000 -0.0997975262
C   C161      1.0  0.09160  0.43630  0.08881  1.0000 -0.0997975262
C   C162      1.0  0.90840  0.93630  0.41119  1.0000 -0.0997975262
C   C163      1.0  0.59160  0.56370  0.91119  1.0000 -0.0997975262
C   C164      1.0  0.40840  0.06370  0.58881  1.0000 -0.0997975262
C   C165      1.0  0.91100  0.58530  0.88660  1.0000 -0.1536926665
C   C166      1.0  0.08900  0.08530  0.61340  1.0000 -0.1536926665
C   C167      1.0  0.41100  0.41470  0.11340  1.0000 -0.1536926665
C   C168      1.0  0.58900  0.91470  0.38660  1.0000 -0.1536926665
C   C169      1.0  0.08900  0.41470  0.11340  1.0000 -0.1536926665
C   C170      1.0  0.91100  0.91470  0.38660  1.0000 -0.1536926665
C   C171      1.0  0.58900  0.58530  0.88660  1.0000 -0.1536926665
C   C172      1.0  0.41100  0.08530  0.61340  1.0000 -0.1536926665
C   C173      1.0  0.75000  0.59560  0.87393  1.0000 0.0929053903
C   C174      1.0  0.25000  0.09560  0.62607  1.0000 0.0929053903
C   C175      1.0  0.25000  0.40440  0.12607  1.0000 0.0929053903
C   C176      1.0  0.75000  0.90440  0.37393  1.0000 0.0929053903
C   C177      1.0  0.75000  0.87780  0.82116  1.0000 0.6108155405
C   C178      1.0  0.25000  0.37780  0.67884  1.0000 0.6108155405
C   C179      1.0  0.25000  0.12220  0.17884  1.0000 0.6108155405
C   C180      1.0  0.75000  0.62220  0.32116  1.0000 0.6108155405
C   C181      1.0  0.75000  0.82801  0.81895  1.0000 -0.0297882165
C   C182      1.0  0.25000  0.32801  0.68105  1.0000 -0.0297882165
C   C183      1.0  0.25000  0.17199  0.18105  1.0000 -0.0297882165
C   C184      1.0  0.75000  0.67199  0.31895  1.0000 -0.0297882165
C   C185      1.0  0.90930  0.80481  0.81858  1.0000 -0.0997975262
C   C186      1.0  0.09070  0.30481  0.68142  1.0000 -0.0997975262
C   C187      1.0  0.40930  0.19519  0.18142  1.0000 -0.0997975262
C   C188      1.0  0.59070  0.69519  0.31858  1.0000 -0.0997975262
C   C189      1.0  0.09070  0.19519  0.18142  1.0000 -0.0997975262
C   C190      1.0  0.90930  0.69519  0.31858  1.0000 -0.0997975262
C   C191      1.0  0.59070  0.80481  0.81858  1.0000 -0.0997975262
C   C192      1.0  0.40930  0.30481  0.68142  1.0000 -0.0997975262
C   C193      1.0  0.90940  0.75887  0.81818  1.0000 -0.1536926665
C   C194      1.0  0.09060  0.25887  0.68182  1.0000 -0.1536926665
C   C195      1.0  0.40940  0.24113  0.18182  1.0000 -0.1536926665
C   C196      1.0  0.59060  0.74113  0.31818  1.0000 -0.1536926665
C   C197      1.0  0.09060  0.24113  0.18182  1.0000 -0.1536926665
C   C198      1.0  0.90940  0.74113  0.31818  1.0000 -0.1536926665
C   C199      1.0  0.59060  0.75887  0.81818  1.0000 -0.1536926665
C   C200      1.0  0.40940  0.25887  0.68182  1.0000 -0.1536926665
C   C201      1.0  0.75000  0.73510  0.81859  1.0000 0.0929053903
C   C202      1.0  0.25000  0.23510  0.68141  1.0000 0.0929053903
C   C203      1.0  0.25000  0.26490  0.18141  1.0000 0.0929053903
C   C204      1.0  0.75000  0.76490  0.31859  1.0000 0.0929053903
C   C205      1.0  0.75000  0.61350  0.79832  1.0000 -0.0622197227
C   C206      1.0  0.25000  0.11350  0.70168  1.0000 -0.0622197227
C   C207      1.0  0.25000  0.38650  0.20168  1.0000 -0.0622197227
C   C208      1.0  0.75000  0.88650  0.29832  1.0000 -0.0622197227
C   C209      1.0  0.75000  0.59260  0.82337  1.0000 0.0631830208
C   C210      1.0  0.25000  0.09260  0.67663  1.0000 0.0631830208
C   C211      1.0  0.25000  0.40740  0.17663  1.0000 0.0631830208
C   C212      1.0  0.75000  0.90740  0.32337  1.0000 0.0631830208
C   C213      1.0  0.75000  0.61830  0.84701  1.0000 -0.0622197227
C   C214      1.0  0.25000  0.11830  0.65299  1.0000 -0.0622197227
C   C215      1.0  0.25000  0.38170  0.15299  1.0000 -0.0622197227
C   C216      1.0  0.75000  0.88170  0.34701  1.0000 -0.0622197227
C   C217      1.0  0.75000  0.66490  0.84528  1.0000 0.0658476234
C   C218      1.0  0.25000  0.16490  0.65472  1.0000 0.0658476234
C   C219      1.0  0.25000  0.33510  0.15472  1.0000 0.0658476234
C   C220      1.0  0.75000  0.83510  0.34528  1.0000 0.0658476234
C   C221      1.0  0.75000  0.68478  0.81982  1.0000 -0.0622197227
C   C222      1.0  0.25000  0.18478  0.68018  1.0000 -0.0622197227
C   C223      1.0  0.25000  0.31522  0.18018  1.0000 -0.0622197227
C   C224      1.0  0.75000  0.81522  0.31982  1.0000 -0.0622197227
C   C225      1.0  0.75000  0.65966  0.79625  1.0000 0.0631830208
C   C226      1.0  0.25000  0.15966  0.70375  1.0000 0.0631830208
C   C227      1.0  0.25000  0.34034  0.20375  1.0000 0.0631830208
C   C228      1.0  0.75000  0.84034  0.29625  1.0000 0.0631830208
C   C229      1.0  0.75000  0.54287  0.82540  1.0000 -0.4288200483
C   C230      1.0  0.25000  0.04287  0.67460  1.0000 -0.4288200483
C   C231      1.0  0.25000  0.45713  0.17460  1.0000 -0.4288200483
C   C232      1.0  0.75000  0.95713  0.32540  1.0000 -0.4288200483
C   C233      1.0  0.75000  0.69230  0.87079  1.0000 -0.4368896902
C   C234      1.0  0.25000  0.19230  0.62921  1.0000 -0.4368896902
C   C235      1.0  0.25000  0.30770  0.12921  1.0000 -0.4368896902
C   C236      1.0  0.75000  0.80770  0.37079  1.0000 -0.4368896902
C   C237      1.0  0.75000  0.68170  0.76921  1.0000 -0.4233843729
C   C238      1.0  0.25000  0.18170  0.73079  1.0000 -0.4233843729
C   C239      1.0  0.25000  0.31830  0.23079  1.0000 -0.4233843729
C   C240      1.0  0.75000  0.81830  0.26921  1.0000 -0.4233843729
O   O1        1.0  0.40200  0.43033  0.62132  1.0000 -0.5618819918
O   O2        1.0  0.59800  0.93033  0.87868  1.0000 -0.5618819918
O   O3        1.0  0.90200  0.56967  0.37868  1.0000 -0.5618819918
O   O4        1.0  0.09800  0.06967  0.12132  1.0000 -0.5618819918
O   O5        1.0  0.59800  0.56967  0.37868  1.0000 -0.5618819918
O   O6        1.0  0.40200  0.06967  0.12132  1.0000 -0.5618819918
O   O7        1.0  0.09800  0.43033  0.62132  1.0000 -0.5618819918
O   O8        1.0  0.90200  0.93033  0.87868  1.0000 -0.5618819918
O   O9        1.0  0.09750  0.06223  0.48364  1.0000 -0.5618819918
O   O10       1.0  0.90250  0.56223  0.01636  1.0000 -0.5618819918
O   O11       1.0  0.59750  0.93777  0.51636  1.0000 -0.5618819918
O   O12       1.0  0.40250  0.43777  0.98364  1.0000 -0.5618819918
O   O13       1.0  0.90250  0.93777  0.51636  1.0000 -0.5618819918
O   O14       1.0  0.09750  0.43777  0.98364  1.0000 -0.5618819918
O   O15       1.0  0.40250  0.06223  0.48364  1.0000 -0.5618819918
O   O16       1.0  0.59750  0.56223  0.01636  1.0000 -0.5618819918
O   O17       1.0  0.09770  0.48488  0.36250  1.0000 -0.5618819918
O   O18       1.0  0.90230  0.98488  0.13750  1.0000 -0.5618819918
O   O19       1.0  0.59770  0.51512  0.63750  1.0000 -0.5618819918
O   O20       1.0  0.40230  0.01512  0.86250  1.0000 -0.5618819918
O   O21       1.0  0.90230  0.51512  0.63750  1.0000 -0.5618819918
O   O22       1.0  0.09770  0.01512  0.86250  1.0000 -0.5618819918
O   O23       1.0  0.40230  0.48488  0.36250  1.0000 -0.5618819918
O   O24       1.0  0.59770  0.98488  0.13750  1.0000 -0.5618819918
O   O25       1.0  0.59560  0.48687  0.69591  1.0000 -0.5689094297
O   O26       1.0  0.40440  0.98687  0.80409  1.0000 -0.5689094297
O   O27       1.0  0.09560  0.51313  0.30409  1.0000 -0.5689094297
O   O28       1.0  0.90440  0.01313  0.19591  1.0000 -0.5689094297
O   O29       1.0  0.40440  0.51313  0.30409  1.0000 -0.5689094297
O   O30       1.0  0.59560  0.01313  0.19591  1.0000 -0.5689094297
O   O31       1.0  0.90440  0.48687  0.69591  1.0000 -0.5689094297
O   O32       1.0  0.09560  0.98687  0.80409  1.0000 -0.5689094297
O   O33       1.0  0.90240  0.52259  0.96104  1.0000 -0.5618819918
O   O34       1.0  0.09760  0.02259  0.53896  1.0000 -0.5618819918
O   O35       1.0  0.40240  0.47741  0.03896  1.0000 -0.5618819918
O   O36       1.0  0.59760  0.97741  0.46104  1.0000 -0.5618819918
O   O37       1.0  0.09760  0.47741  0.03896  1.0000 -0.5618819918
O   O38       1.0  0.90240  0.97741  0.46104  1.0000 -0.5618819918
O   O39       1.0  0.59760  0.52259  0.96104  1.0000 -0.5618819918
O   O40       1.0  0.40240  0.02259  0.53896  1.0000 -0.5618819918
O   O41       1.0  0.90370  0.89639  0.82225  1.0000 -0.5689094297
O   O42       1.0  0.09630  0.39639  0.67775  1.0000 -0.5689094297
O   O43       1.0  0.40370  0.10361  0.17775  1.0000 -0.5689094297
O   O44       1.0  0.59630  0.60361  0.32225  1.0000 -0.5689094297
O   O45       1.0  0.09630  0.10361  0.17775  1.0000 -0.5689094297
O   O46       1.0  0.90370  0.60361  0.32225  1.0000 -0.5689094297
O   O47       1.0  0.59630  0.89639  0.82225  1.0000 -0.5689094297
O   O48       1.0  0.40370  0.39639  0.67775  1.0000 -0.5689094297
O   O49       1.0  0.25000  0.48848  0.66571  1.0000 -0.8817949042
O   O50       1.0  0.75000  0.98848  0.83429  1.0000 -0.8817949042
O   O51       1.0  0.75000  0.51152  0.33429  1.0000 -0.8817949042
O   O52       1.0  0.25000  0.01152  0.16571  1.0000 -0.8817949042
O   O53       1.0  0.75000  0.42601  0.65366  1.0000 -0.8817949042
O   O54       1.0  0.25000  0.92601  0.84634  1.0000 -0.8817949042
O   O55       1.0  0.25000  0.57399  0.34634  1.0000 -0.8817949042
O   O56       1.0  0.75000  0.07399  0.15366  1.0000 -0.8817949042
O   O57       1.0  0.75000  0.46987  0.00765  1.0000 -0.8817949042
O   O58       1.0  0.25000  0.96987  0.49235  1.0000 -0.8817949042
O   O59       1.0  0.25000  0.53013  0.99235  1.0000 -0.8817949042
O   O60       1.0  0.75000  0.03013  0.50765  1.0000 -0.8817949042
