# DDEC6 charges by PACMAN v1.1 (https://github.com/mtap-research/PACMAN-charge/)
data_anie202303374-sup-0001-single-crystal_structures_2_ASR_pacman
_symmetry_space_group_name_H-M   'P 1'
_cell_length_a   17.55630000
_cell_length_b   15.30090000
_cell_length_c   26.41370000
_cell_angle_alpha   90.00000000
_cell_angle_beta   90.00000000
_cell_angle_gamma   90.00000000
_symmetry_Int_Tables_number   1
_chemical_formula_structural   Zn8H39C44(NO)16
_chemical_formula_sum   'Zn32 H156 C176 N64 O64'
_cell_volume   7095.43802620
_cell_formula_units_Z   4
loop_
 _symmetry_equiv_pos_site_id
 _symmetry_equiv_pos_as_xyz
  1  'x, y, z'
loop_
 _atom_site_type_symbol
 _atom_site_label
 _atom_site_symmetry_multiplicity
 _atom_site_fract_x
 _atom_site_fract_y
 _atom_site_fract_z
 _atom_site_occupancy
 _atom_site_charge
Zn  Zn1  1  0.58919000  0.31314000  0.37318000  1.0 0.7459194225
Zn  Zn2  1  0.41081000  0.68686000  0.87318000  1.0 0.7459194225
Zn  Zn3  1  0.41081000  0.31314000  0.12682000  1.0 0.7459194225
Zn  Zn4  1  0.58919000  0.68686000  0.62682000  1.0 0.7459194225
Zn  Zn5  1  0.08919000  0.81314000  0.37318000  1.0 0.7459194225
Zn  Zn6  1  0.91081000  0.18686000  0.87318000  1.0 0.7459194225
Zn  Zn7  1  0.91081000  0.81314000  0.12682000  1.0 0.7459194225
Zn  Zn8  1  0.08919000  0.18686000  0.62682000  1.0 0.7459194225
Zn  Zn9  1  0.41081000  0.68686000  0.62682000  1.0 0.7459194225
Zn  Zn10  1  0.58919000  0.31314000  0.12682000  1.0 0.7459194225
Zn  Zn11  1  0.58919000  0.68686000  0.87318000  1.0 0.7459194225
Zn  Zn12  1  0.41081000  0.31314000  0.37318000  1.0 0.7459194225
Zn  Zn13  1  0.91081000  0.18686000  0.62682000  1.0 0.7459194225
Zn  Zn14  1  0.08919000  0.81314000  0.12682000  1.0 0.7459194225
Zn  Zn15  1  0.08919000  0.18686000  0.87318000  1.0 0.7459194225
Zn  Zn16  1  0.91081000  0.81314000  0.37318000  1.0 0.7459194225
Zn  Zn17  1  0.59410000  0.67620000  0.36770000  0.31 0.5477114741
Zn  Zn18  1  0.40590000  0.32380000  0.86770000  0.31 0.5477114741
Zn  Zn19  1  0.40590000  0.67620000  0.13230000  0.31 0.5477114741
Zn  Zn20  1  0.59410000  0.32380000  0.63230000  0.31 0.5477114741
Zn  Zn21  1  0.09410000  0.17620000  0.36770000  0.31 0.5477114741
Zn  Zn22  1  0.90590000  0.82380000  0.86770000  0.31 0.5477114741
Zn  Zn23  1  0.90590000  0.17620000  0.13230000  0.31 0.5477114741
Zn  Zn24  1  0.09410000  0.82380000  0.63230000  0.31 0.5477114741
Zn  Zn25  1  0.40590000  0.32380000  0.63230000  0.31 0.5477114741
Zn  Zn26  1  0.59410000  0.67620000  0.13230000  0.31 0.5477114741
Zn  Zn27  1  0.59410000  0.32380000  0.86770000  0.31 0.5477114741
Zn  Zn28  1  0.40590000  0.67620000  0.36770000  0.31 0.5477114741
Zn  Zn29  1  0.90590000  0.82380000  0.63230000  0.31 0.5477114741
Zn  Zn30  1  0.09410000  0.17620000  0.13230000  0.31 0.5477114741
Zn  Zn31  1  0.09410000  0.82380000  0.86770000  0.31 0.5477114741
Zn  Zn32  1  0.90590000  0.17620000  0.36770000  0.31 0.5477114741
Zn  Zn33  1  0.59440000  0.69900000  0.37630000  0.69 0.575612786
Zn  Zn34  1  0.40560000  0.30100000  0.87630000  0.69 0.575612786
Zn  Zn35  1  0.40560000  0.69900000  0.12370000  0.69 0.575612786
Zn  Zn36  1  0.59440000  0.30100000  0.62370000  0.69 0.575612786
Zn  Zn37  1  0.09440000  0.19900000  0.37630000  0.69 0.575612786
Zn  Zn38  1  0.90560000  0.80100000  0.87630000  0.69 0.575612786
Zn  Zn39  1  0.90560000  0.19900000  0.12370000  0.69 0.574443796
Zn  Zn40  1  0.09440000  0.80100000  0.62370000  0.69 0.575612786
Zn  Zn41  1  0.40560000  0.30100000  0.62370000  0.69 0.575612786
Zn  Zn42  1  0.59440000  0.69900000  0.12370000  0.69 0.575612786
Zn  Zn43  1  0.59440000  0.30100000  0.87630000  0.69 0.575612786
Zn  Zn44  1  0.40560000  0.69900000  0.37630000  0.69 0.575612786
Zn  Zn45  1  0.90560000  0.80100000  0.62370000  0.69 0.575612786
Zn  Zn46  1  0.09440000  0.19900000  0.12370000  0.69 0.575612786
Zn  Zn47  1  0.09440000  0.80100000  0.87630000  0.69 0.575612786
Zn  Zn48  1  0.90560000  0.19900000  0.37630000  0.69 0.575612786
H  H33  1  0.59730000  0.65720000  0.50150000  1.0 0.1296403799
H  H34  1  0.40270000  0.34280000  0.00150000  1.0 0.1296403799
H  H35  1  0.40270000  0.65720000  0.99850000  1.0 0.1296403799
H  H36  1  0.59730000  0.34280000  0.49850000  1.0 0.1296403799
H  H37  1  0.09730000  0.15720000  0.50150000  1.0 0.1296403799
H  H38  1  0.90270000  0.84280000  0.00150000  1.0 0.1296403799
H  H39  1  0.90270000  0.15720000  0.99850000  1.0 0.1296403799
H  H40  1  0.09730000  0.84280000  0.49850000  1.0 0.1296403799
H  H41  1  0.40270000  0.34280000  0.49850000  1.0 0.1296403799
H  H42  1  0.59730000  0.65720000  0.99850000  1.0 0.1296403799
H  H43  1  0.59730000  0.34280000  0.00150000  1.0 0.1296403799
H  H44  1  0.40270000  0.65720000  0.50150000  1.0 0.1296403799
H  H45  1  0.90270000  0.84280000  0.49850000  1.0 0.1296403799
H  H46  1  0.09730000  0.15720000  0.99850000  1.0 0.1296403799
H  H47  1  0.09730000  0.84280000  0.00150000  1.0 0.1296403799
H  H48  1  0.90270000  0.15720000  0.50150000  1.0 0.1296403799
H  H49  1  0.88360000  0.79790000  0.25000000  1.0 0.1296403799
H  H50  1  0.11640000  0.20210000  0.75000000  1.0 0.1296403799
H  H51  1  0.11640000  0.79790000  0.25000000  1.0 0.1296403799
H  H52  1  0.88360000  0.20210000  0.75000000  1.0 0.1296403799
H  H53  1  0.38360000  0.29790000  0.25000000  1.0 0.1296403799
H  H54  1  0.61640000  0.70210000  0.75000000  1.0 0.1296403799
H  H55  1  0.61640000  0.29790000  0.25000000  1.0 0.1296403799
H  H56  1  0.38360000  0.70210000  0.75000000  1.0 0.1296403799
H  H57  1  0.61680000  0.72270000  0.25000000  1.0 0.0993308337
H  H58  1  0.38320000  0.27730000  0.75000000  1.0 0.0993308337
H  H59  1  0.38320000  0.72270000  0.25000000  1.0 0.0993308337
H  H60  1  0.61680000  0.27730000  0.75000000  1.0 0.0993308337
H  H61  1  0.11680000  0.22270000  0.25000000  1.0 0.0993308337
H  H62  1  0.88320000  0.77730000  0.75000000  1.0 0.0993308337
H  H63  1  0.88320000  0.22270000  0.25000000  1.0 0.0993308337
H  H64  1  0.11680000  0.77730000  0.75000000  1.0 0.0993308337
H  H65  1  0.56670000  0.55600000  0.30840000  0.125 0.1296403799
H  H66  1  0.43330000  0.44400000  0.80840000  0.125 0.1296403799
H  H67  1  0.43330000  0.55600000  0.19160000  0.125 0.1296403799
H  H68  1  0.56670000  0.44400000  0.69160000  0.125 0.1296403799
H  H69  1  0.06670000  0.05600000  0.30840000  0.125 0.1296403799
H  H70  1  0.93330000  0.94400000  0.80840000  0.125 0.1296403799
H  H71  1  0.93330000  0.05600000  0.19160000  0.125 0.1296403799
H  H72  1  0.06670000  0.94400000  0.69160000  0.125 0.1296403799
H  H73  1  0.43330000  0.44400000  0.69160000  0.125 0.1296403799
H  H74  1  0.56670000  0.55600000  0.19160000  0.125 0.1296403799
H  H75  1  0.56670000  0.44400000  0.80840000  0.125 0.1296403799
H  H76  1  0.43330000  0.55600000  0.30840000  0.125 0.1296403799
H  H77  1  0.93330000  0.94400000  0.69160000  0.125 0.1296403799
H  H78  1  0.06670000  0.05600000  0.19160000  0.125 0.1296403799
H  H79  1  0.06670000  0.94400000  0.80840000  0.125 0.1296403799
H  H80  1  0.93330000  0.05600000  0.30840000  0.125 0.1296403799
H  H81  1  0.65290000  0.52110000  0.30920000  0.125 0.1999412801
H  H82  1  0.34710000  0.47890000  0.80920000  0.125 0.1999412801
H  H83  1  0.34710000  0.52110000  0.19080000  0.125 0.1999412801
H  H84  1  0.65290000  0.47890000  0.69080000  0.125 0.1999412801
H  H85  1  0.15290000  0.02110000  0.30920000  0.125 0.1999412801
H  H86  1  0.84710000  0.97890000  0.80920000  0.125 0.1999412801
H  H87  1  0.84710000  0.02110000  0.19080000  0.125 0.1999412801
H  H88  1  0.15290000  0.97890000  0.69080000  0.125 0.1999412801
H  H89  1  0.34710000  0.47890000  0.69080000  0.125 0.1999412801
H  H90  1  0.65290000  0.52110000  0.19080000  0.125 0.1999412801
H  H91  1  0.65290000  0.47890000  0.80920000  0.125 0.1999412801
H  H92  1  0.34710000  0.52110000  0.30920000  0.125 0.1999412801
H  H93  1  0.84710000  0.97890000  0.69080000  0.125 0.1999412801
H  H94  1  0.15290000  0.02110000  0.19080000  0.125 0.1999412801
H  H95  1  0.15290000  0.97890000  0.80920000  0.125 0.1999412801
H  H96  1  0.84710000  0.02110000  0.30920000  0.125 0.1999412801
H  H161  1  0.73110000  0.81470000  0.44310000  0.125 0.0596649174
H  H162  1  0.26890000  0.18530000  0.94310000  0.125 0.0596649174
H  H163  1  0.26890000  0.81470000  0.05690000  0.125 0.0596649174
H  H164  1  0.73110000  0.18530000  0.55690000  0.125 0.0596649174
H  H165  1  0.23110000  0.31470000  0.44310000  0.125 0.0596649174
H  H166  1  0.76890000  0.68530000  0.94310000  0.125 0.0596649174
H  H167  1  0.76890000  0.31470000  0.05690000  0.125 0.0596649174
H  H168  1  0.23110000  0.68530000  0.55690000  0.125 0.0596649174
H  H169  1  0.26890000  0.18530000  0.55690000  0.125 0.0596649174
H  H170  1  0.73110000  0.81470000  0.05690000  0.125 0.0596649174
H  H171  1  0.73110000  0.18530000  0.94310000  0.125 0.0596649174
H  H172  1  0.26890000  0.81470000  0.44310000  0.125 0.0596649174
H  H173  1  0.76890000  0.68530000  0.55690000  0.125 0.0596649174
H  H174  1  0.23110000  0.31470000  0.05690000  0.125 0.0596649174
H  H175  1  0.23110000  0.68530000  0.94310000  0.125 0.0596649174
H  H176  1  0.76890000  0.31470000  0.44310000  0.125 0.0596649174
H  H177  1  0.71220000  0.71130000  0.44180000  0.125 0.112932052
H  H178  1  0.28780000  0.28870000  0.94180000  0.125 0.112932052
H  H179  1  0.28780000  0.71130000  0.05820000  0.125 0.112932052
H  H180  1  0.71220000  0.28870000  0.55820000  0.125 0.112932052
H  H181  1  0.21220000  0.21130000  0.44180000  0.125 0.112932052
H  H182  1  0.78780000  0.78870000  0.94180000  0.125 0.112932052
H  H183  1  0.78780000  0.21130000  0.05820000  0.125 0.112932052
H  H184  1  0.21220000  0.78870000  0.55820000  0.125 0.112932052
H  H185  1  0.28780000  0.28870000  0.55820000  0.125 0.112932052
H  H186  1  0.71220000  0.71130000  0.05820000  0.125 0.112932052
H  H187  1  0.71220000  0.28870000  0.94180000  0.125 0.112932052
H  H188  1  0.28780000  0.71130000  0.44180000  0.125 0.112932052
H  H189  1  0.78780000  0.78870000  0.55820000  0.125 0.112932052
H  H190  1  0.21220000  0.21130000  0.05820000  0.125 0.112932052
H  H191  1  0.21220000  0.78870000  0.94180000  0.125 0.112932052
H  H192  1  0.78780000  0.21130000  0.44180000  0.125 0.112932052
H  H201  1  0.50000000  0.74580000  0.29510000  0.125 0.3185450521
H  H202  1  0.50000000  0.25420000  0.79510000  0.125 0.3185450521
H  H203  1  0.50000000  0.74580000  0.20490000  0.125 0.3185450521
H  H204  1  0.50000000  0.25420000  0.70490000  0.125 0.3185450521
H  H205  1  0.00000000  0.24580000  0.29510000  0.125 0.3185450521
H  H206  1  0.00000000  0.75420000  0.79510000  0.125 0.3185450521
H  H207  1  0.00000000  0.24580000  0.20490000  0.125 0.3185450521
H  H208  1  0.00000000  0.75420000  0.70490000  0.125 0.3185450521
H  H209  1  0.53330000  0.41240000  0.29450000  0.125 0.1486541059
H  H210  1  0.46670000  0.58760000  0.79450000  0.125 0.1486541059
H  H211  1  0.46670000  0.41240000  0.20550000  0.125 0.1486541059
H  H212  1  0.53330000  0.58760000  0.70550000  0.125 0.1486541059
H  H213  1  0.03330000  0.91240000  0.29450000  0.125 0.1486541059
H  H214  1  0.96670000  0.08760000  0.79450000  0.125 0.1486541059
H  H215  1  0.96670000  0.91240000  0.20550000  0.125 0.1486541059
H  H216  1  0.03330000  0.08760000  0.70550000  0.125 0.1486541059
H  H217  1  0.46670000  0.58760000  0.70550000  0.125 0.1486541059
H  H218  1  0.53330000  0.41240000  0.20550000  0.125 0.1486541059
H  H219  1  0.53330000  0.58760000  0.79450000  0.125 0.1486541059
H  H220  1  0.46670000  0.41240000  0.29450000  0.125 0.1486541059
H  H221  1  0.96670000  0.08760000  0.70550000  0.125 0.1486541059
H  H222  1  0.03330000  0.91240000  0.20550000  0.125 0.1486541059
H  H223  1  0.03330000  0.08760000  0.79450000  0.125 0.1486541059
H  H224  1  0.96670000  0.91240000  0.29450000  0.125 0.1486541059
H  H225  1  0.83230000  0.74200000  0.47640000  0.125 0.3282095298
H  H226  1  0.16770000  0.25800000  0.97640000  0.125 0.3282095298
H  H227  1  0.16770000  0.74200000  0.02360000  0.125 0.3282095298
H  H228  1  0.83230000  0.25800000  0.52360000  0.125 0.3282095298
H  H229  1  0.33230000  0.24200000  0.47640000  0.125 0.3282095298
H  H230  1  0.66770000  0.75800000  0.97640000  0.125 0.3282095298
H  H231  1  0.66770000  0.24200000  0.02360000  0.125 0.3282095298
H  H232  1  0.33230000  0.75800000  0.52360000  0.125 0.3282095298
H  H233  1  0.16770000  0.25800000  0.52360000  0.125 0.3282095298
H  H234  1  0.83230000  0.74200000  0.02360000  0.125 0.3282095298
H  H235  1  0.83230000  0.25800000  0.97640000  0.125 0.3282095298
H  H236  1  0.16770000  0.74200000  0.47640000  0.125 0.3282095298
H  H237  1  0.66770000  0.75800000  0.52360000  0.125 0.3282095298
H  H238  1  0.33230000  0.24200000  0.02360000  0.125 0.3282095298
H  H239  1  0.33230000  0.75800000  0.97640000  0.125 0.3282095298
H  H240  1  0.66770000  0.24200000  0.47640000  0.125 0.3282095298
H  H289  1  0.44740000  0.83890000  0.50920000  0.125 0.023065411
H  H290  1  0.55260000  0.16110000  0.00920000  0.125 0.023065411
H  H291  1  0.55260000  0.83890000  0.99080000  0.125 0.023065411
H  H292  1  0.44740000  0.16110000  0.49080000  0.125 0.023065411
H  H293  1  0.94740000  0.33890000  0.50920000  0.125 0.023065411
H  H294  1  0.05260000  0.66110000  0.00920000  0.125 0.023065411
H  H295  1  0.05260000  0.33890000  0.99080000  0.125 0.023065411
H  H296  1  0.94740000  0.66110000  0.49080000  0.125 0.023065411
H  H297  1  0.55260000  0.16110000  0.49080000  0.125 0.023065411
H  H298  1  0.44740000  0.83890000  0.99080000  0.125 0.023065411
H  H299  1  0.44740000  0.16110000  0.00920000  0.125 0.023065411
H  H300  1  0.55260000  0.83890000  0.50920000  0.125 0.023065411
H  H301  1  0.05260000  0.66110000  0.49080000  0.125 0.023065411
H  H302  1  0.94740000  0.33890000  0.99080000  0.125 0.023065411
H  H303  1  0.94740000  0.66110000  0.00920000  0.125 0.023065411
H  H304  1  0.05260000  0.33890000  0.50920000  0.125 0.023065411
H  H305  1  0.52740000  0.88850000  0.50500000  0.125 -0.0228726574
H  H306  1  0.47260000  0.11150000  0.00500000  0.125 -0.0228726574
H  H307  1  0.47260000  0.88850000  0.99500000  0.125 -0.0228726574
H  H308  1  0.52740000  0.11150000  0.49500000  0.125 -0.0228726574
H  H309  1  0.02740000  0.38850000  0.50500000  0.125 -0.0228726574
H  H310  1  0.97260000  0.61150000  0.00500000  0.125 -0.0228726574
H  H311  1  0.97260000  0.38850000  0.99500000  0.125 -0.0228726574
H  H312  1  0.02740000  0.61150000  0.49500000  0.125 -0.0228726574
H  H313  1  0.47260000  0.11150000  0.49500000  0.125 -0.0228726574
H  H314  1  0.52740000  0.88850000  0.99500000  0.125 -0.0228726574
H  H315  1  0.52740000  0.11150000  0.00500000  0.125 -0.0228726574
H  H316  1  0.47260000  0.88850000  0.50500000  0.125 -0.0228726574
H  H317  1  0.97260000  0.61150000  0.49500000  0.125 -0.0228726574
H  H318  1  0.02740000  0.38850000  0.99500000  0.125 -0.0228726574
H  H319  1  0.02740000  0.61150000  0.00500000  0.125 -0.0228726574
H  H320  1  0.97260000  0.38850000  0.50500000  0.125 -0.0228726574
H  H321  1  0.52520000  0.78500000  0.51380000  0.125 -0.0072504722
H  H322  1  0.47480000  0.21500000  0.01380000  0.125 -0.0072504722
H  H323  1  0.47480000  0.78500000  0.98620000  0.125 -0.0072504722
H  H324  1  0.52520000  0.21500000  0.48620000  0.125 -0.0072504722
H  H325  1  0.02520000  0.28500000  0.51380000  0.125 -0.0072504722
H  H326  1  0.97480000  0.71500000  0.01380000  0.125 -0.0072504722
H  H327  1  0.97480000  0.28500000  0.98620000  0.125 -0.0072504722
H  H328  1  0.02520000  0.71500000  0.48620000  0.125 -0.0072504722
H  H329  1  0.47480000  0.21500000  0.48620000  0.125 -0.0072504722
H  H330  1  0.52520000  0.78500000  0.98620000  0.125 -0.0072504722
H  H331  1  0.52520000  0.21500000  0.01380000  0.125 -0.0072504722
H  H332  1  0.47480000  0.78500000  0.51380000  0.125 -0.0072504722
H  H333  1  0.97480000  0.71500000  0.48620000  0.125 -0.0072504722
H  H334  1  0.02520000  0.28500000  0.98620000  0.125 -0.0072504722
H  H335  1  0.02520000  0.71500000  0.01380000  0.125 -0.0072504722
H  H336  1  0.97480000  0.28500000  0.51380000  0.125 -0.0072504722
H  H193  1  0.50000000  0.80630000  0.36850000  0.375 0.3020202976
H  H194  1  0.50000000  0.19370000  0.86850000  0.375 0.3020202976
H  H195  1  0.50000000  0.80630000  0.13150000  0.375 0.3020202976
H  H196  1  0.50000000  0.19370000  0.63150000  0.375 0.3020202976
H  H197  1  0.00000000  0.30630000  0.36850000  0.375 0.3020202976
H  H198  1  0.00000000  0.69370000  0.86850000  0.375 0.3020202976
H  H199  1  0.00000000  0.30630000  0.13150000  0.375 0.3020202976
H  H200  1  0.00000000  0.69370000  0.63150000  0.375 0.3020202976
H  H241  1  0.53290000  0.08440000  0.47420000  0.375 0.0492201906
H  H242  1  0.46710000  0.91560000  0.97420000  0.375 0.0492201906
H  H243  1  0.46710000  0.08440000  0.02580000  0.375 0.0492201906
H  H244  1  0.53290000  0.91560000  0.52580000  0.375 0.0492201906
H  H245  1  0.03290000  0.58440000  0.47420000  0.375 0.0492201906
H  H246  1  0.96710000  0.41560000  0.97420000  0.375 0.0492201906
H  H247  1  0.96710000  0.58440000  0.02580000  0.375 0.0492201906
H  H248  1  0.03290000  0.41560000  0.52580000  0.375 0.0492201906
H  H249  1  0.46710000  0.91560000  0.52580000  0.375 0.0492201906
H  H250  1  0.53290000  0.08440000  0.02580000  0.375 0.0492201906
H  H251  1  0.53290000  0.91560000  0.97420000  0.375 0.0492201906
H  H252  1  0.46710000  0.08440000  0.47420000  0.375 0.0492201906
H  H253  1  0.96710000  0.41560000  0.52580000  0.375 0.0492201906
H  H254  1  0.03290000  0.58440000  0.02580000  0.375 0.0492201906
H  H255  1  0.03290000  0.41560000  0.97420000  0.375 0.0492201906
H  H256  1  0.96710000  0.58440000  0.47420000  0.375 0.0492201906
H  H257  1  0.44800000  0.11210000  0.48940000  0.375 0.0596649174
H  H258  1  0.55200000  0.88790000  0.98940000  0.375 0.0596649174
H  H259  1  0.55200000  0.11210000  0.01060000  0.375 0.0596649174
H  H260  1  0.44800000  0.88790000  0.51060000  0.375 0.0596649174
H  H261  1  0.94800000  0.61210000  0.48940000  0.375 0.0596649174
H  H262  1  0.05200000  0.38790000  0.98940000  0.375 0.0596649174
H  H263  1  0.05200000  0.61210000  0.01060000  0.375 0.0596649174
H  H264  1  0.94800000  0.38790000  0.51060000  0.375 0.0596649174
H  H265  1  0.55200000  0.88790000  0.51060000  0.375 0.0596649174
H  H266  1  0.44800000  0.11210000  0.01060000  0.375 0.0596649174
H  H267  1  0.44800000  0.88790000  0.98940000  0.375 0.0596649174
H  H268  1  0.55200000  0.11210000  0.48940000  0.375 0.0596649174
H  H269  1  0.05200000  0.38790000  0.51060000  0.375 0.0596649174
H  H270  1  0.94800000  0.61210000  0.01060000  0.375 0.0596649174
H  H271  1  0.94800000  0.38790000  0.98940000  0.375 0.0596649174
H  H272  1  0.05200000  0.61210000  0.48940000  0.375 0.0596649174
H  H273  1  0.51920000  0.15970000  0.51530000  0.375 -0.0956434712
H  H274  1  0.48080000  0.84030000  0.01530000  0.375 -0.0956434712
H  H275  1  0.48080000  0.15970000  0.98470000  0.375 -0.0956434712
H  H276  1  0.51920000  0.84030000  0.48470000  0.375 -0.0956434712
H  H277  1  0.01920000  0.65970000  0.51530000  0.375 -0.0956434712
H  H278  1  0.98080000  0.34030000  0.01530000  0.375 -0.0956434712
H  H279  1  0.98080000  0.65970000  0.98470000  0.375 -0.0956434712
H  H280  1  0.01920000  0.34030000  0.48470000  0.375 -0.0956434712
H  H281  1  0.48080000  0.84030000  0.48470000  0.375 -0.0956434712
H  H282  1  0.51920000  0.15970000  0.98470000  0.375 -0.0956434712
H  H283  1  0.51920000  0.84030000  0.01530000  0.375 -0.0956434712
H  H284  1  0.48080000  0.15970000  0.51530000  0.375 -0.0956434712
H  H285  1  0.98080000  0.34030000  0.48470000  0.375 -0.0956434712
H  H286  1  0.01920000  0.65970000  0.98470000  0.375 -0.0956434712
H  H287  1  0.01920000  0.34030000  0.01530000  0.375 -0.0956434712
H  H288  1  0.98080000  0.65970000  0.51530000  0.375 -0.0956434712
H  H1  1  0.52450000  0.58670000  0.29830000  0.875 0.1612794634
H  H2  1  0.47550000  0.41330000  0.79830000  0.875 0.1612794634
H  H3  1  0.47550000  0.58670000  0.20170000  0.875 0.1612794634
H  H4  1  0.52450000  0.41330000  0.70170000  0.875 0.1612794634
H  H5  1  0.02450000  0.08670000  0.29830000  0.875 0.1612794634
H  H6  1  0.97550000  0.91330000  0.79830000  0.875 0.1612794634
H  H7  1  0.97550000  0.08670000  0.20170000  0.875 0.1612794634
H  H8  1  0.02450000  0.91330000  0.70170000  0.875 0.1612794634
H  H9  1  0.47550000  0.41330000  0.70170000  0.875 0.1612794634
H  H10  1  0.52450000  0.58670000  0.20170000  0.875 0.1612794634
H  H11  1  0.52450000  0.41330000  0.79830000  0.875 0.1612794634
H  H12  1  0.47550000  0.58670000  0.29830000  0.875 0.1612794634
H  H13  1  0.97550000  0.91330000  0.70170000  0.875 0.1612794634
H  H14  1  0.02450000  0.08670000  0.20170000  0.875 0.1612794634
H  H15  1  0.02450000  0.91330000  0.79830000  0.875 0.1612794634
H  H16  1  0.97550000  0.08670000  0.29830000  0.875 0.1612794634
H  H17  1  0.66110000  0.81160000  0.46290000  0.875 0.281203964
H  H18  1  0.33890000  0.18840000  0.96290000  0.875 0.281203964
H  H19  1  0.33890000  0.81160000  0.03710000  0.875 0.281203964
H  H20  1  0.66110000  0.18840000  0.53710000  0.875 0.281203964
H  H21  1  0.16110000  0.31160000  0.46290000  0.875 0.281203964
H  H22  1  0.83890000  0.68840000  0.96290000  0.875 0.281203964
H  H23  1  0.83890000  0.31160000  0.03710000  0.875 0.281203964
H  H24  1  0.16110000  0.68840000  0.53710000  0.875 0.281203964
H  H25  1  0.33890000  0.18840000  0.53710000  0.875 0.281203964
H  H26  1  0.66110000  0.81160000  0.03710000  0.875 0.281203964
H  H27  1  0.66110000  0.18840000  0.96290000  0.875 0.281203964
H  H28  1  0.33890000  0.81160000  0.46290000  0.875 0.281203964
H  H29  1  0.83890000  0.68840000  0.53710000  0.875 0.281203964
H  H30  1  0.16110000  0.31160000  0.03710000  0.875 0.281203964
H  H31  1  0.16110000  0.68840000  0.96290000  0.875 0.281203964
H  H32  1  0.83890000  0.31160000  0.46290000  0.875 0.281203964
H  H97  1  0.65320000  0.49890000  0.30900000  0.875 0.2075284703
H  H98  1  0.34680000  0.50110000  0.80900000  0.875 0.2075284703
H  H99  1  0.34680000  0.49890000  0.19100000  0.875 0.2075284703
H  H100  1  0.65320000  0.50110000  0.69100000  0.875 0.2075284703
H  H101  1  0.15320000  0.99890000  0.30900000  0.875 0.2075284703
H  H102  1  0.84680000  0.00110000  0.80900000  0.875 0.2075284703
H  H103  1  0.84680000  0.99890000  0.19100000  0.875 0.2075284703
H  H104  1  0.15320000  0.00110000  0.69100000  0.875 0.2075284703
H  H105  1  0.34680000  0.50110000  0.69100000  0.875 0.2075284703
H  H106  1  0.65320000  0.49890000  0.19100000  0.875 0.2075284703
H  H107  1  0.65320000  0.50110000  0.80900000  0.875 0.2075284703
H  H108  1  0.34680000  0.49890000  0.30900000  0.875 0.2075284703
H  H109  1  0.84680000  0.00110000  0.69100000  0.875 0.2075284703
H  H110  1  0.15320000  0.99890000  0.19100000  0.875 0.2075284703
H  H111  1  0.15320000  0.00110000  0.80900000  0.875 0.2075284703
H  H112  1  0.84680000  0.99890000  0.30900000  0.875 0.2075284703
H  H113  1  0.56660000  0.46290000  0.30730000  0.875 0.1397339341
H  H114  1  0.43340000  0.53710000  0.80730000  0.875 0.1397339341
H  H115  1  0.43340000  0.46290000  0.19270000  0.875 0.1397339341
H  H116  1  0.56660000  0.53710000  0.69270000  0.875 0.1397339341
H  H117  1  0.06660000  0.96290000  0.30730000  0.875 0.1397339341
H  H118  1  0.93340000  0.03710000  0.80730000  0.875 0.1397339341
H  H119  1  0.93340000  0.96290000  0.19270000  0.875 0.1397339341
H  H120  1  0.06660000  0.03710000  0.69270000  0.875 0.1397339341
H  H121  1  0.43340000  0.53710000  0.69270000  0.875 0.1397339341
H  H122  1  0.56660000  0.46290000  0.19270000  0.875 0.1397339341
H  H123  1  0.56660000  0.53710000  0.80730000  0.875 0.1397339341
H  H124  1  0.43340000  0.46290000  0.30730000  0.875 0.1397339341
H  H125  1  0.93340000  0.03710000  0.69270000  0.875 0.1397339341
H  H126  1  0.06660000  0.96290000  0.19270000  0.875 0.1397339341
H  H127  1  0.06660000  0.03710000  0.80730000  0.875 0.1397339341
H  H128  1  0.93340000  0.96290000  0.30730000  0.875 0.1397339341
H  H129  1  0.77670000  0.80660000  0.44350000  0.875 0.0993308337
H  H130  1  0.22330000  0.19340000  0.94350000  0.875 0.0993308337
H  H131  1  0.22330000  0.80660000  0.05650000  0.875 0.0993308337
H  H132  1  0.77670000  0.19340000  0.55650000  0.875 0.0993308337
H  H133  1  0.27670000  0.30660000  0.44350000  0.875 0.0993308337
H  H134  1  0.72330000  0.69340000  0.94350000  0.875 0.0993308337
H  H135  1  0.72330000  0.30660000  0.05650000  0.875 0.0993308337
H  H136  1  0.27670000  0.69340000  0.55650000  0.875 0.0993308337
H  H137  1  0.22330000  0.19340000  0.55650000  0.875 0.0993308337
H  H138  1  0.77670000  0.80660000  0.05650000  0.875 0.0993308337
H  H139  1  0.77670000  0.19340000  0.94350000  0.875 0.0993308337
H  H140  1  0.22330000  0.80660000  0.44350000  0.875 0.0993308337
H  H141  1  0.72330000  0.69340000  0.55650000  0.875 0.0993308337
H  H142  1  0.27670000  0.30660000  0.05650000  0.875 0.0993308337
H  H143  1  0.27670000  0.69340000  0.94350000  0.875 0.0993308337
H  H144  1  0.72330000  0.30660000  0.44350000  0.875 0.0993308337
H  H145  1  0.76730000  0.70150000  0.44250000  0.875 0.1193583729
H  H146  1  0.23270000  0.29850000  0.94250000  0.875 0.1193583729
H  H147  1  0.23270000  0.70150000  0.05750000  0.875 0.1193583729
H  H148  1  0.76730000  0.29850000  0.55750000  0.875 0.1193583729
H  H149  1  0.26730000  0.20150000  0.44250000  0.875 0.1296403799
H  H150  1  0.73270000  0.79850000  0.94250000  0.875 0.1193583729
H  H151  1  0.73270000  0.20150000  0.05750000  0.875 0.1193583729
H  H152  1  0.26730000  0.79850000  0.55750000  0.875 0.1193583729
H  H153  1  0.23270000  0.29850000  0.55750000  0.875 0.1193583729
H  H154  1  0.76730000  0.70150000  0.05750000  0.875 0.1193583729
H  H155  1  0.76730000  0.29850000  0.94250000  0.875 0.1193583729
H  H156  1  0.23270000  0.70150000  0.44250000  0.875 0.1193583729
H  H157  1  0.73270000  0.79850000  0.55750000  0.875 0.1193583729
H  H158  1  0.26730000  0.20150000  0.05750000  0.875 0.1296403799
H  H159  1  0.26730000  0.79850000  0.94250000  0.875 0.1193583729
H  H160  1  0.73270000  0.20150000  0.44250000  0.875 0.1193583729
C  C1  1  0.59920000  0.50760000  0.37870000  1.0 0.112932052
C  C2  1  0.40080000  0.49240000  0.87870000  1.0 0.112932052
C  C3  1  0.40080000  0.50760000  0.12130000  1.0 0.112932052
C  C4  1  0.59920000  0.49240000  0.62130000  1.0 0.112932052
C  C5  1  0.09920000  0.00760000  0.37870000  1.0 0.112932052
C  C6  1  0.90080000  0.99240000  0.87870000  1.0 0.112932052
C  C7  1  0.90080000  0.00760000  0.12130000  1.0 0.112932052
C  C8  1  0.09920000  0.99240000  0.62130000  1.0 0.112932052
C  C9  1  0.40080000  0.49240000  0.62130000  1.0 0.112932052
C  C10  1  0.59920000  0.50760000  0.12130000  1.0 0.112932052
C  C11  1  0.59920000  0.49240000  0.87870000  1.0 0.112932052
C  C12  1  0.40080000  0.50760000  0.37870000  1.0 0.112932052
C  C13  1  0.90080000  0.99240000  0.62130000  1.0 0.112932052
C  C14  1  0.09920000  0.00760000  0.12130000  1.0 0.112932052
C  C15  1  0.09920000  0.99240000  0.87870000  1.0 0.112932052
C  C16  1  0.90080000  0.00760000  0.37870000  1.0 0.112932052
C  C17  1  0.60010000  0.45540000  0.45520000  1.0 0.1193583729
C  C18  1  0.39990000  0.54460000  0.95520000  1.0 0.1193583729
C  C19  1  0.39990000  0.45540000  0.04480000  1.0 0.1193583729
C  C20  1  0.60010000  0.54460000  0.54480000  1.0 0.1193583729
C  C21  1  0.10010000  0.95540000  0.45520000  1.0 0.1193583729
C  C22  1  0.89990000  0.04460000  0.95520000  1.0 0.1193583729
C  C23  1  0.89990000  0.95540000  0.04480000  1.0 0.1193583729
C  C24  1  0.10010000  0.04460000  0.54480000  1.0 0.1193583729
C  C25  1  0.39990000  0.54460000  0.54480000  1.0 0.1193583729
C  C26  1  0.60010000  0.45540000  0.04480000  1.0 0.1193583729
C  C27  1  0.60010000  0.54460000  0.95520000  1.0 0.1193583729
C  C28  1  0.39990000  0.45540000  0.45520000  1.0 0.1193583729
C  C29  1  0.89990000  0.04460000  0.54480000  1.0 0.1193583729
C  C30  1  0.10010000  0.95540000  0.04480000  1.0 0.1193583729
C  C31  1  0.10010000  0.04460000  0.95520000  1.0 0.1193583729
C  C32  1  0.89990000  0.95540000  0.45520000  1.0 0.1193583729
C  C33  1  0.60060000  0.54710000  0.45640000  1.0 0.0936478583
C  C34  1  0.39940000  0.45290000  0.95640000  1.0 0.0936478583
C  C35  1  0.39940000  0.54710000  0.04360000  1.0 0.0936478583
C  C36  1  0.60060000  0.45290000  0.54360000  1.0 0.0936478583
C  C37  1  0.10060000  0.04710000  0.45640000  1.0 0.0936478583
C  C38  1  0.89940000  0.95290000  0.95640000  1.0 0.0936478583
C  C39  1  0.89940000  0.04710000  0.04360000  1.0 0.0936478583
C  C40  1  0.10060000  0.95290000  0.54360000  1.0 0.0936478583
C  C41  1  0.39940000  0.45290000  0.54360000  1.0 0.0936478583
C  C42  1  0.60060000  0.54710000  0.04360000  1.0 0.0936478583
C  C43  1  0.60060000  0.45290000  0.95640000  1.0 0.0936478583
C  C44  1  0.39940000  0.54710000  0.45640000  1.0 0.0936478583
C  C45  1  0.89940000  0.95290000  0.54360000  1.0 0.0936478583
C  C46  1  0.10060000  0.04710000  0.04360000  1.0 0.0936478583
C  C47  1  0.10060000  0.95290000  0.95640000  1.0 0.0936478583
C  C48  1  0.89940000  0.04710000  0.45640000  1.0 0.0936478583
C  C49  1  0.74930000  0.75880000  0.37210000  1.0 0.1999412801
C  C50  1  0.25070000  0.24120000  0.87210000  1.0 0.1999412801
C  C51  1  0.25070000  0.75880000  0.12790000  1.0 0.1999412801
C  C52  1  0.74930000  0.24120000  0.62790000  1.0 0.1999412801
C  C53  1  0.24930000  0.25880000  0.37210000  1.0 0.1999412801
C  C54  1  0.75070000  0.74120000  0.87210000  1.0 0.1999412801
C  C55  1  0.75070000  0.25880000  0.12790000  1.0 0.1999412801
C  C56  1  0.24930000  0.74120000  0.62790000  1.0 0.1999412801
C  C57  1  0.25070000  0.24120000  0.62790000  1.0 0.1999412801
C  C58  1  0.74930000  0.75880000  0.12790000  1.0 0.1999412801
C  C59  1  0.74930000  0.24120000  0.87210000  1.0 0.1999412801
C  C60  1  0.25070000  0.75880000  0.37210000  1.0 0.1999412801
C  C61  1  0.75070000  0.74120000  0.62790000  1.0 0.1999412801
C  C62  1  0.24930000  0.25880000  0.12790000  1.0 0.1999412801
C  C63  1  0.24930000  0.74120000  0.87210000  1.0 0.1999412801
C  C64  1  0.75070000  0.25880000  0.37210000  1.0 0.1999412801
C  C65  1  0.59900000  0.59510000  0.50100000  1.0 -0.3235051716
C  C66  1  0.40100000  0.40490000  0.00100000  1.0 -0.3235051716
C  C67  1  0.40100000  0.59510000  0.99900000  1.0 -0.3235051716
C  C68  1  0.59900000  0.40490000  0.49900000  1.0 -0.3235051716
C  C69  1  0.09900000  0.09510000  0.50100000  1.0 -0.3235051716
C  C70  1  0.90100000  0.90490000  0.00100000  1.0 -0.3235051716
C  C71  1  0.90100000  0.09510000  0.99900000  1.0 -0.3235051716
C  C72  1  0.09900000  0.90490000  0.49900000  1.0 -0.3253759358
C  C73  1  0.40100000  0.40490000  0.49900000  1.0 -0.3235051716
C  C74  1  0.59900000  0.59510000  0.99900000  1.0 -0.3235051716
C  C75  1  0.59900000  0.40490000  0.00100000  1.0 -0.3235051716
C  C76  1  0.40100000  0.59510000  0.50100000  1.0 -0.3235051716
C  C77  1  0.90100000  0.90490000  0.49900000  1.0 -0.3235051716
C  C78  1  0.09900000  0.09510000  0.99900000  1.0 -0.3235051716
C  C79  1  0.09900000  0.90490000  0.00100000  1.0 -0.3253759358
C  C80  1  0.90100000  0.09510000  0.50100000  1.0 -0.3235051716
C  C81  1  0.78990000  0.76910000  0.29420000  1.0 0.1486541059
C  C82  1  0.21010000  0.23090000  0.79420000  1.0 0.1486541059
C  C83  1  0.21010000  0.76910000  0.20580000  1.0 0.1486541059
C  C84  1  0.78990000  0.23090000  0.70580000  1.0 0.1486541059
C  C85  1  0.28990000  0.26910000  0.29420000  1.0 0.1486541059
C  C86  1  0.71010000  0.73090000  0.79420000  1.0 0.1486541059
C  C87  1  0.71010000  0.26910000  0.20580000  1.0 0.1486541059
C  C88  1  0.28990000  0.73090000  0.70580000  1.0 0.1486541059
C  C89  1  0.21010000  0.23090000  0.70580000  1.0 0.1486541059
C  C90  1  0.78990000  0.76910000  0.20580000  1.0 0.1486541059
C  C91  1  0.78990000  0.23090000  0.79420000  1.0 0.1486541059
C  C92  1  0.21010000  0.76910000  0.29420000  1.0 0.1486541059
C  C93  1  0.71010000  0.73090000  0.70580000  1.0 0.1486541059
C  C94  1  0.28990000  0.26910000  0.20580000  1.0 0.1486541059
C  C95  1  0.28990000  0.73090000  0.79420000  1.0 0.1486541059
C  C96  1  0.71010000  0.26910000  0.29420000  1.0 0.1486541059
C  C97  1  0.83130000  0.78180000  0.25000000  1.0 -0.2635834205
C  C98  1  0.16870000  0.21820000  0.75000000  1.0 -0.2635834205
C  C99  1  0.16870000  0.78180000  0.25000000  1.0 -0.2635834205
C  C100  1  0.83130000  0.21820000  0.75000000  1.0 -0.2635834205
C  C101  1  0.33130000  0.28180000  0.25000000  1.0 -0.2635834205
C  C102  1  0.66870000  0.71820000  0.75000000  1.0 -0.2635834205
C  C103  1  0.66870000  0.28180000  0.25000000  1.0 -0.2635834205
C  C104  1  0.33130000  0.71820000  0.75000000  1.0 -0.2635834205
C  C105  1  0.71180000  0.74740000  0.29410000  1.0 0.1193583729
C  C106  1  0.28820000  0.25260000  0.79410000  1.0 0.1193583729
C  C107  1  0.28820000  0.74740000  0.20590000  1.0 0.1193583729
C  C108  1  0.71180000  0.25260000  0.70590000  1.0 0.1193583729
C  C109  1  0.21180000  0.24740000  0.29410000  1.0 0.1193583729
C  C110  1  0.78820000  0.75260000  0.79410000  1.0 0.1193583729
C  C111  1  0.78820000  0.24740000  0.20590000  1.0 0.1193583729
C  C112  1  0.21180000  0.75260000  0.70590000  1.0 0.1193583729
C  C113  1  0.28820000  0.25260000  0.70590000  1.0 0.1193583729
C  C114  1  0.71180000  0.74740000  0.20590000  1.0 0.1193583729
C  C115  1  0.71180000  0.25260000  0.79410000  1.0 0.1193583729
C  C116  1  0.28820000  0.74740000  0.29410000  1.0 0.1193583729
C  C117  1  0.78820000  0.75260000  0.70590000  1.0 0.1193583729
C  C118  1  0.21180000  0.24740000  0.20590000  1.0 0.1193583729
C  C119  1  0.21180000  0.75260000  0.79410000  1.0 0.1193583729
C  C120  1  0.78820000  0.24740000  0.29410000  1.0 0.1193583729
C  C121  1  0.66960000  0.73640000  0.25000000  1.0 -0.3705389736
C  C122  1  0.33040000  0.26360000  0.75000000  1.0 -0.3705389736
C  C123  1  0.33040000  0.73640000  0.25000000  1.0 -0.3705389736
C  C124  1  0.66960000  0.26360000  0.75000000  1.0 -0.3705389736
C  C125  1  0.16960000  0.23640000  0.25000000  1.0 -0.3705389736
C  C126  1  0.83040000  0.76360000  0.75000000  1.0 -0.3705389736
C  C127  1  0.83040000  0.23640000  0.25000000  1.0 -0.3705389736
C  C128  1  0.16960000  0.76360000  0.75000000  1.0 -0.3705389736
C  C129  1  0.60050000  0.50890000  0.32100000  1.0 -0.0696151701
C  C130  1  0.39950000  0.49110000  0.82100000  1.0 -0.0696151701
C  C131  1  0.39950000  0.50890000  0.17900000  1.0 -0.0696151701
C  C132  1  0.60050000  0.49110000  0.67900000  1.0 -0.0696151701
C  C133  1  0.10050000  0.00890000  0.32100000  1.0 -0.0696151701
C  C134  1  0.89950000  0.99110000  0.82100000  1.0 -0.0696151701
C  C135  1  0.89950000  0.00890000  0.17900000  1.0 -0.0696151701
C  C136  1  0.10050000  0.99110000  0.67900000  1.0 -0.0696151701
C  C137  1  0.39950000  0.49110000  0.67900000  1.0 -0.0696151701
C  C138  1  0.60050000  0.50890000  0.17900000  1.0 -0.0696151701
C  C139  1  0.60050000  0.49110000  0.82100000  1.0 -0.0696151701
C  C140  1  0.39950000  0.50890000  0.32100000  1.0 -0.0696151701
C  C141  1  0.89950000  0.99110000  0.67900000  1.0 -0.0696151701
C  C142  1  0.10050000  0.00890000  0.17900000  1.0 -0.0696151701
C  C143  1  0.10050000  0.99110000  0.82100000  1.0 -0.0696151701
C  C144  1  0.89950000  0.00890000  0.32100000  1.0 -0.0696151701
C  C145  1  0.74700000  0.75740000  0.42920000  1.0 -0.0892566468
C  C146  1  0.25300000  0.24260000  0.92920000  1.0 -0.0892566468
C  C147  1  0.25300000  0.75740000  0.07080000  1.0 -0.0892566468
C  C148  1  0.74700000  0.24260000  0.57080000  1.0 -0.0892566468
C  C149  1  0.24700000  0.25740000  0.42920000  1.0 -0.0892566468
C  C150  1  0.75300000  0.74260000  0.92920000  1.0 -0.0892566468
C  C151  1  0.75300000  0.25740000  0.07080000  1.0 -0.0892566468
C  C152  1  0.24700000  0.74260000  0.57080000  1.0 -0.0892566468
C  C153  1  0.25300000  0.24260000  0.57080000  1.0 -0.0892566468
C  C154  1  0.74700000  0.75740000  0.07080000  1.0 -0.0892566468
C  C155  1  0.74700000  0.24260000  0.92920000  1.0 -0.0892566468
C  C156  1  0.25300000  0.75740000  0.42920000  1.0 -0.0892566468
C  C157  1  0.75300000  0.74260000  0.57080000  1.0 -0.0892566468
C  C158  1  0.24700000  0.25740000  0.07080000  1.0 -0.0892566468
C  C159  1  0.24700000  0.74260000  0.92920000  1.0 -0.0892566468
C  C160  1  0.75300000  0.25740000  0.42920000  1.0 -0.0892566468
C  C169  1  0.50000000  0.81600000  0.43930000  0.25 0.1397339341
C  C170  1  0.50000000  0.18400000  0.93930000  0.25 0.1397339341
C  C171  1  0.50000000  0.81600000  0.06070000  0.25 0.1397339341
C  C172  1  0.50000000  0.18400000  0.56070000  0.25 0.1397339341
C  C173  1  0.00000000  0.31600000  0.43930000  0.25 0.1397339341
C  C174  1  0.00000000  0.68400000  0.93930000  0.25 0.1397339341
C  C175  1  0.00000000  0.31600000  0.06070000  0.25 0.1397339341
C  C176  1  0.00000000  0.68400000  0.56070000  0.25 0.1397339341
C  C185  1  0.50000000  0.83400000  0.49710000  0.25 -0.1709519353
C  C186  1  0.50000000  0.16600000  0.99710000  0.25 -0.1709519353
C  C187  1  0.50000000  0.83400000  0.00290000  0.25 -0.1709519353
C  C188  1  0.50000000  0.16600000  0.50290000  0.25 -0.1709519353
C  C189  1  0.00000000  0.33400000  0.49710000  0.25 -0.1709519353
C  C190  1  0.00000000  0.66600000  0.99710000  0.25 -0.1709519353
C  C191  1  0.00000000  0.33400000  0.00290000  0.25 -0.1709519353
C  C192  1  0.00000000  0.66600000  0.50290000  0.25 -0.1709519353
C  C161  1  0.50000000  0.20140000  0.44210000  0.75 0.3020202976
C  C162  1  0.50000000  0.79860000  0.94210000  0.75 0.3020202976
C  C163  1  0.50000000  0.20140000  0.05790000  0.75 0.3020202976
C  C164  1  0.50000000  0.79860000  0.55790000  0.75 0.3020202976
C  C165  1  0.00000000  0.70140000  0.44210000  0.75 0.3020202976
C  C166  1  0.00000000  0.29860000  0.94210000  0.75 0.3020202976
C  C167  1  0.00000000  0.70140000  0.05790000  0.75 0.3020202976
C  C168  1  0.00000000  0.29860000  0.55790000  0.75 0.3020202976
C  C177  1  0.50000000  0.13300000  0.48400000  0.75 -0.2117522496
C  C178  1  0.50000000  0.86700000  0.98400000  0.75 -0.2117522496
C  C179  1  0.50000000  0.13300000  0.01600000  0.75 -0.2117522496
C  C180  1  0.50000000  0.86700000  0.51600000  0.75 -0.2117522496
C  C181  1  0.00000000  0.63300000  0.48400000  0.75 -0.2117522496
C  C182  1  0.00000000  0.36700000  0.98400000  0.75 -0.2117522496
C  C183  1  0.00000000  0.63300000  0.01600000  0.75 -0.2117522496
C  C184  1  0.00000000  0.36700000  0.51600000  0.75 -0.2117522496
N  N1  1  0.59860000  0.42980000  0.40300000  1.0 -0.4237991374
N  N2  1  0.40140000  0.57020000  0.90300000  1.0 -0.4237991374
N  N3  1  0.40140000  0.42980000  0.09700000  1.0 -0.4237991374
N  N4  1  0.59860000  0.57020000  0.59700000  1.0 -0.4237991374
N  N5  1  0.09860000  0.92980000  0.40300000  1.0 -0.4237991374
N  N6  1  0.90140000  0.07020000  0.90300000  1.0 -0.4237991374
N  N7  1  0.90140000  0.92980000  0.09700000  1.0 -0.4237991374
N  N8  1  0.09860000  0.07020000  0.59700000  1.0 -0.4237991374
N  N9  1  0.40140000  0.57020000  0.59700000  1.0 -0.4237991374
N  N10  1  0.59860000  0.42980000  0.09700000  1.0 -0.4237991374
N  N11  1  0.59860000  0.57020000  0.90300000  1.0 -0.4237991374
N  N12  1  0.40140000  0.42980000  0.40300000  1.0 -0.4237991374
N  N13  1  0.90140000  0.07020000  0.59700000  1.0 -0.4237991374
N  N14  1  0.09860000  0.92980000  0.09700000  1.0 -0.4237991374
N  N15  1  0.09860000  0.07020000  0.90300000  1.0 -0.4237991374
N  N16  1  0.90140000  0.92980000  0.40300000  1.0 -0.4237991374
N  N17  1  0.60030000  0.57780000  0.40630000  1.0 -0.4355360108
N  N18  1  0.39970000  0.42220000  0.90630000  1.0 -0.4355360108
N  N19  1  0.39970000  0.57780000  0.09370000  1.0 -0.4355360108
N  N20  1  0.60030000  0.42220000  0.59370000  1.0 -0.4355360108
N  N21  1  0.10030000  0.07780000  0.40630000  1.0 -0.4355360108
N  N22  1  0.89970000  0.92220000  0.90630000  1.0 -0.4355360108
N  N23  1  0.89970000  0.07780000  0.09370000  1.0 -0.4355360108
N  N24  1  0.10030000  0.92220000  0.59370000  1.0 -0.4355360108
N  N25  1  0.39970000  0.42220000  0.59370000  1.0 -0.4355360108
N  N26  1  0.60030000  0.57780000  0.09370000  1.0 -0.4355360108
N  N27  1  0.60030000  0.42220000  0.90630000  1.0 -0.4355360108
N  N28  1  0.39970000  0.57780000  0.40630000  1.0 -0.4355360108
N  N29  1  0.89970000  0.92220000  0.59370000  1.0 -0.4355360108
N  N30  1  0.10030000  0.07780000  0.09370000  1.0 -0.4355360108
N  N31  1  0.10030000  0.92220000  0.90630000  1.0 -0.4355360108
N  N32  1  0.89970000  0.07780000  0.40630000  1.0 -0.4355360108
N  N33  1  0.81300000  0.77590000  0.34480000  1.0 -0.3924979482
N  N34  1  0.18700000  0.22410000  0.84480000  1.0 -0.3924979482
N  N35  1  0.18700000  0.77590000  0.15520000  1.0 -0.3924979482
N  N36  1  0.81300000  0.22410000  0.65520000  1.0 -0.3924979482
N  N37  1  0.31300000  0.27590000  0.34480000  1.0 -0.3924979482
N  N38  1  0.68700000  0.72410000  0.84480000  1.0 -0.3924979482
N  N39  1  0.68700000  0.27590000  0.15520000  1.0 -0.3924979482
N  N40  1  0.31300000  0.72410000  0.65520000  1.0 -0.3924979482
N  N41  1  0.18700000  0.22410000  0.65520000  1.0 -0.3924979482
N  N42  1  0.81300000  0.77590000  0.15520000  1.0 -0.3924979482
N  N43  1  0.81300000  0.22410000  0.84480000  1.0 -0.3924979482
N  N44  1  0.18700000  0.77590000  0.34480000  1.0 -0.3924979482
N  N45  1  0.68700000  0.72410000  0.65520000  1.0 -0.3924979482
N  N46  1  0.31300000  0.27590000  0.15520000  1.0 -0.3924979482
N  N47  1  0.31300000  0.72410000  0.84480000  1.0 -0.3924979482
N  N48  1  0.68700000  0.27590000  0.34480000  1.0 -0.3924979482
N  N49  1  0.68750000  0.74000000  0.34420000  1.0 -0.4355360108
N  N50  1  0.31250000  0.26000000  0.84420000  1.0 -0.4355360108
N  N51  1  0.31250000  0.74000000  0.15580000  1.0 -0.4355360108
N  N52  1  0.68750000  0.26000000  0.65580000  1.0 -0.4355360108
N  N53  1  0.18750000  0.24000000  0.34420000  1.0 -0.4355360108
N  N54  1  0.81250000  0.76000000  0.84420000  1.0 -0.4355360108
N  N55  1  0.81250000  0.24000000  0.15580000  1.0 -0.4355360108
N  N56  1  0.18750000  0.76000000  0.65580000  1.0 -0.4355360108
N  N57  1  0.31250000  0.26000000  0.65580000  1.0 -0.4355360108
N  N58  1  0.68750000  0.74000000  0.15580000  1.0 -0.4355360108
N  N59  1  0.68750000  0.26000000  0.84420000  1.0 -0.4355360108
N  N60  1  0.31250000  0.74000000  0.34420000  1.0 -0.4355360108
N  N61  1  0.81250000  0.76000000  0.65580000  1.0 -0.4355360108
N  N62  1  0.18750000  0.24000000  0.15580000  1.0 -0.4355360108
N  N63  1  0.18750000  0.76000000  0.84420000  1.0 -0.4355360108
N  N64  1  0.81250000  0.24000000  0.34420000  1.0 -0.4355360108
O  O1  1  0.50000000  0.30870000  0.32820000  1.0 -0.5887233082
O  O2  1  0.50000000  0.69130000  0.82820000  1.0 -0.5887233082
O  O3  1  0.50000000  0.30870000  0.17180000  1.0 -0.5887233082
O  O4  1  0.50000000  0.69130000  0.67180000  1.0 -0.5887233082
O  O5  1  0.00000000  0.80870000  0.32820000  1.0 -0.5887233082
O  O6  1  0.00000000  0.19130000  0.82820000  1.0 -0.5887233082
O  O7  1  0.00000000  0.80870000  0.17180000  1.0 -0.5887233082
O  O8  1  0.00000000  0.19130000  0.67180000  1.0 -0.5887233082
O  O89  1  0.58200000  0.42700000  0.30430000  0.125 -0.4129083368
O  O90  1  0.41800000  0.57300000  0.80430000  0.125 -0.4129083368
O  O91  1  0.41800000  0.42700000  0.19570000  0.125 -0.4129083368
O  O92  1  0.58200000  0.57300000  0.69570000  0.125 -0.4129083368
O  O93  1  0.08200000  0.92700000  0.30430000  0.125 -0.4129083368
O  O94  1  0.91800000  0.07300000  0.80430000  0.125 -0.4129083368
O  O95  1  0.91800000  0.92700000  0.19570000  0.125 -0.4129083368
O  O96  1  0.08200000  0.07300000  0.69570000  0.125 -0.4129083368
O  O97  1  0.41800000  0.57300000  0.69570000  0.125 -0.4129083368
O  O98  1  0.58200000  0.42700000  0.19570000  0.125 -0.4129083368
O  O99  1  0.58200000  0.57300000  0.80430000  0.125 -0.4129083368
O  O100  1  0.41800000  0.42700000  0.30430000  0.125 -0.4129083368
O  O101  1  0.91800000  0.07300000  0.69570000  0.125 -0.4129083368
O  O102  1  0.08200000  0.92700000  0.19570000  0.125 -0.4129083368
O  O103  1  0.08200000  0.07300000  0.80430000  0.125 -0.4129083368
O  O104  1  0.91800000  0.92700000  0.30430000  0.125 -0.4129083368
O  O105  1  0.83110000  0.73900000  0.43980000  0.125 -0.3705389736
O  O106  1  0.16890000  0.26100000  0.93980000  0.125 -0.3705389736
O  O107  1  0.16890000  0.73900000  0.06020000  0.125 -0.3705389736
O  O108  1  0.83110000  0.26100000  0.56020000  0.125 -0.3705389736
O  O109  1  0.33110000  0.23900000  0.43980000  0.125 -0.3705389736
O  O110  1  0.66890000  0.76100000  0.93980000  0.125 -0.3705389736
O  O111  1  0.66890000  0.23900000  0.06020000  0.125 -0.3705389736
O  O112  1  0.33110000  0.76100000  0.56020000  0.125 -0.3705389736
O  O113  1  0.16890000  0.26100000  0.56020000  0.125 -0.3705389736
O  O114  1  0.83110000  0.73900000  0.06020000  0.125 -0.3705389736
O  O115  1  0.83110000  0.26100000  0.93980000  0.125 -0.3705389736
O  O116  1  0.16890000  0.73900000  0.43980000  0.125 -0.3705389736
O  O117  1  0.66890000  0.76100000  0.56020000  0.125 -0.3705389736
O  O118  1  0.33110000  0.23900000  0.06020000  0.125 -0.3705389736
O  O119  1  0.33110000  0.76100000  0.93980000  0.125 -0.3705389736
O  O120  1  0.66890000  0.23900000  0.43980000  0.125 -0.3705389736
O  O65  1  0.50000000  0.71070000  0.33020000  0.25 -0.4289266195
O  O66  1  0.50000000  0.28930000  0.83020000  0.25 -0.4289266195
O  O67  1  0.50000000  0.71070000  0.16980000  0.25 -0.4289266195
O  O68  1  0.50000000  0.28930000  0.66980000  0.25 -0.4289266195
O  O69  1  0.00000000  0.21070000  0.33020000  0.25 -0.4289266195
O  O70  1  0.00000000  0.78930000  0.83020000  0.25 -0.4289266195
O  O71  1  0.00000000  0.21070000  0.16980000  0.25 -0.4289266195
O  O72  1  0.00000000  0.78930000  0.66980000  0.25 -0.4289266195
O  O73  1  0.56420000  0.78200000  0.42620000  0.25 -0.2755033102
O  O74  1  0.43580000  0.21800000  0.92620000  0.25 -0.2755033102
O  O75  1  0.43580000  0.78200000  0.07380000  0.25 -0.2755033102
O  O76  1  0.56420000  0.21800000  0.57380000  0.25 -0.2755033102
O  O77  1  0.06420000  0.28200000  0.42620000  0.25 -0.2755033102
O  O78  1  0.93580000  0.71800000  0.92620000  0.25 -0.2755033102
O  O79  1  0.93580000  0.28200000  0.07380000  0.25 -0.2755033102
O  O80  1  0.06420000  0.71800000  0.57380000  0.25 -0.2755033102
O  O81  1  0.43580000  0.21800000  0.57380000  0.25 -0.2755033102
O  O82  1  0.56420000  0.78200000  0.07380000  0.25 -0.2755033102
O  O83  1  0.56420000  0.21800000  0.92620000  0.25 -0.2755033102
O  O84  1  0.43580000  0.78200000  0.42620000  0.25 -0.2755033102
O  O85  1  0.93580000  0.71800000  0.57380000  0.25 -0.2755033102
O  O86  1  0.06420000  0.28200000  0.07380000  0.25 -0.2755033102
O  O87  1  0.06420000  0.71800000  0.92620000  0.25 -0.2755033102
O  O88  1  0.93580000  0.28200000  0.42620000  0.25 -0.2755033102
O  O9  1  0.56450000  0.22640000  0.42680000  0.75 -0.3059772962
O  O10  1  0.43550000  0.77360000  0.92680000  0.75 -0.3059772962
O  O11  1  0.43550000  0.22640000  0.07320000  0.75 -0.3059772962
O  O12  1  0.56450000  0.77360000  0.57320000  0.75 -0.3059772962
O  O13  1  0.06450000  0.72640000  0.42680000  0.75 -0.3059772962
O  O14  1  0.93550000  0.27360000  0.92680000  0.75 -0.303722969
O  O15  1  0.93550000  0.72640000  0.07320000  0.75 -0.3059772962
O  O16  1  0.06450000  0.27360000  0.57320000  0.75 -0.303722969
O  O17  1  0.43550000  0.77360000  0.57320000  0.75 -0.3059772962
O  O18  1  0.56450000  0.22640000  0.07320000  0.75 -0.3059772962
O  O19  1  0.56450000  0.77360000  0.92680000  0.75 -0.3059772962
O  O20  1  0.43550000  0.22640000  0.42680000  0.75 -0.3059772962
O  O21  1  0.93550000  0.27360000  0.57320000  0.75 -0.303722969
O  O22  1  0.06450000  0.72640000  0.07320000  0.75 -0.3059772962
O  O23  1  0.06450000  0.27360000  0.92680000  0.75 -0.303722969
O  O24  1  0.93550000  0.72640000  0.42680000  0.75 -0.3059772962
O  O57  1  0.50000000  0.74900000  0.37510000  0.75 -0.1968746397
O  O58  1  0.50000000  0.25100000  0.87510000  0.75 -0.1968746397
O  O59  1  0.50000000  0.74900000  0.12490000  0.75 -0.1968746397
O  O60  1  0.50000000  0.25100000  0.62490000  0.75 -0.1968746397
O  O61  1  0.00000000  0.24900000  0.37510000  0.75 -0.1968746397
O  O62  1  0.00000000  0.75100000  0.87510000  0.75 -0.1968746397
O  O63  1  0.00000000  0.24900000  0.12490000  0.75 -0.1968746397
O  O64  1  0.00000000  0.75100000  0.62490000  0.75 -0.1968746397
O  O25  1  0.57710000  0.59070000  0.30500000  0.875 -0.4289266195
O  O26  1  0.42290000  0.40930000  0.80500000  0.875 -0.4289266195
O  O27  1  0.42290000  0.59070000  0.19500000  0.875 -0.4289266195
O  O28  1  0.57710000  0.40930000  0.69500000  0.875 -0.4289266195
O  O29  1  0.07710000  0.09070000  0.30500000  0.875 -0.4289266195
O  O30  1  0.92290000  0.90930000  0.80500000  0.875 -0.4289266195
O  O31  1  0.92290000  0.09070000  0.19500000  0.875 -0.4289266195
O  O32  1  0.07710000  0.90930000  0.69500000  0.875 -0.4289266195
O  O33  1  0.42290000  0.40930000  0.69500000  0.875 -0.4289266195
O  O34  1  0.57710000  0.59070000  0.19500000  0.875 -0.4289266195
O  O35  1  0.57710000  0.40930000  0.80500000  0.875 -0.4289266195
O  O36  1  0.42290000  0.59070000  0.30500000  0.875 -0.4289266195
O  O37  1  0.92290000  0.90930000  0.69500000  0.875 -0.4289266195
O  O38  1  0.07710000  0.09070000  0.19500000  0.875 -0.4289266195
O  O39  1  0.07710000  0.90930000  0.80500000  0.875 -0.4289266195
O  O40  1  0.92290000  0.09070000  0.30500000  0.875 -0.4289266195
O  O41  1  0.66370000  0.76760000  0.44160000  0.875 -0.3543484441
O  O42  1  0.33630000  0.23240000  0.94160000  0.875 -0.3543484441
O  O43  1  0.33630000  0.76760000  0.05840000  0.875 -0.3543484441
O  O44  1  0.66370000  0.23240000  0.55840000  0.875 -0.3543484441
O  O45  1  0.16370000  0.26760000  0.44160000  0.875 -0.3543484441
O  O46  1  0.83630000  0.73240000  0.94160000  0.875 -0.3543484441
O  O47  1  0.83630000  0.26760000  0.05840000  0.875 -0.3543484441
O  O48  1  0.16370000  0.73240000  0.55840000  0.875 -0.3543484441
O  O49  1  0.33630000  0.23240000  0.55840000  0.875 -0.3543484441
O  O50  1  0.66370000  0.76760000  0.05840000  0.875 -0.3543484441
O  O51  1  0.66370000  0.23240000  0.94160000  0.875 -0.3543484441
O  O52  1  0.33630000  0.76760000  0.44160000  0.875 -0.3543484441
O  O53  1  0.83630000  0.73240000  0.55840000  0.875 -0.3543484441
O  O54  1  0.16370000  0.26760000  0.05840000  0.875 -0.3543484441
O  O55  1  0.16370000  0.73240000  0.94160000  0.875 -0.3543484441
O  O56  1  0.83630000  0.26760000  0.44160000  0.875 -0.3543484441
