# DDEC6 charges by PACMAN v1.1 (https://github.com/mtap-research/PACMAN-charge/)
data_oc7b00169_si_003_12_ASR_pacman
_symmetry_space_group_name_H-M   'P 1'
_cell_length_a   19.08300000
_cell_length_b   19.08300000
_cell_length_c   36.72500000
_cell_angle_alpha   90.00000000
_cell_angle_beta   90.00000000
_cell_angle_gamma   90.00000000
_symmetry_Int_Tables_number   1
_chemical_formula_structural   Al2H21(C17O5)2
_chemical_formula_sum   'Al16 H168 C272 O80'
_cell_volume   13373.80864852
_cell_formula_units_Z   8
loop_
 _symmetry_equiv_pos_site_id
 _symmetry_equiv_pos_as_xyz
  1  'x, y, z'
loop_
 _atom_site_type_symbol
 _atom_site_label
 _atom_site_symmetry_multiplicity
 _atom_site_fract_x
 _atom_site_fract_y
 _atom_site_fract_z
 _atom_site_occupancy
 _atom_site_charge
Al  Al1  1  0.66445000  0.33555000  0.50000000  1.0 1.6509975912
Al  Al2  1  0.16445000  0.16445000  0.00000000  1.0 1.6509975912
Al  Al3  1  0.33555000  0.66445000  0.50000000  1.0 1.6509975912
Al  Al4  1  0.83555000  0.83555000  0.00000000  1.0 1.6509975912
Al  Al5  1  0.61826000  0.38609000  0.41681000  1.0 1.6590981406
Al  Al6  1  0.11391000  0.11826000  0.91681000  1.0 1.6590981406
Al  Al7  1  0.38174000  0.61391000  0.41681000  1.0 1.6590981406
Al  Al8  1  0.88609000  0.88174000  0.91681000  1.0 1.6590981406
Al  Al9  1  0.11826000  0.11391000  0.08319000  1.0 1.6590981406
Al  Al10  1  0.88174000  0.88609000  0.08319000  1.0 1.6590981406
Al  Al11  1  0.38609000  0.61826000  0.58319000  1.0 1.6590981406
Al  Al12  1  0.61391000  0.38174000  0.58319000  1.0 1.6590981406
Al  Al13  1  0.50000000  0.50000000  0.38628000  1.0 1.6590981406
Al  Al14  1  0.00000000  0.00000000  0.88628000  1.0 1.6590981406
Al  Al15  1  0.00000000  0.00000000  0.11372000  1.0 1.6590981406
Al  Al16  1  0.50000000  0.50000000  0.61372000  1.0 1.6590981406
H  H1  1  0.57880000  0.50050000  0.43750000  1.0 0.4286164613
H  H2  1  0.99950000  0.07880000  0.93750000  1.0 0.4286164613
H  H3  1  0.42120000  0.49950000  0.43750000  1.0 0.4286164613
H  H4  1  0.00050000  0.92120000  0.93750000  1.0 0.4286164613
H  H5  1  0.07880000  0.99950000  0.06250000  1.0 0.4286164613
H  H6  1  0.92120000  0.00050000  0.06250000  1.0 0.4286164613
H  H7  1  0.50050000  0.57880000  0.56250000  1.0 0.4286164613
H  H8  1  0.49950000  0.42120000  0.56250000  1.0 0.4286164613
H  H9  1  0.55370000  0.36760000  0.47310000  1.0 0.4286164613
H  H10  1  0.13240000  0.05370000  0.97310000  1.0 0.4286164613
H  H11  1  0.44630000  0.63240000  0.47310000  1.0 0.4286164613
H  H12  1  0.86760000  0.94630000  0.97310000  1.0 0.4286164613
H  H13  1  0.05370000  0.13240000  0.02690000  1.0 0.4286164613
H  H14  1  0.94630000  0.86760000  0.02690000  1.0 0.4286164613
H  H15  1  0.36760000  0.55370000  0.52690000  1.0 0.4286164613
H  H16  1  0.63240000  0.44630000  0.52690000  1.0 0.4286164613
H  H17  1  0.76530000  0.62320000  0.16590000  1.0 0.1208892721
H  H18  1  0.87680000  0.26530000  0.66590000  1.0 0.1208892721
H  H19  1  0.23470000  0.37680000  0.16590000  1.0 0.1208892721
H  H20  1  0.12320000  0.73470000  0.66590000  1.0 0.1208892721
H  H21  1  0.26530000  0.87680000  0.33410000  1.0 0.1208892721
H  H22  1  0.73470000  0.12320000  0.33410000  1.0 0.1208892721
H  H23  1  0.62320000  0.76530000  0.83410000  1.0 0.1208892721
H  H24  1  0.37680000  0.23470000  0.83410000  1.0 0.1208892721
H  H25  1  0.76840000  0.63300000  0.03760000  1.0 0.1316651133
H  H26  1  0.86700000  0.26840000  0.53760000  1.0 0.1316651133
H  H27  1  0.23160000  0.36700000  0.03760000  1.0 0.1316651133
H  H28  1  0.13300000  0.73160000  0.53760000  1.0 0.1316651133
H  H29  1  0.26840000  0.86700000  0.46240000  1.0 0.1316651133
H  H30  1  0.73160000  0.13300000  0.46240000  1.0 0.1316651133
H  H31  1  0.63300000  0.76840000  0.96240000  1.0 0.1316651133
H  H32  1  0.36700000  0.23160000  0.96240000  1.0 0.1316651133
H  H33  1  0.76950000  0.72980000  0.13380000  1.0 0.1208892721
H  H34  1  0.77020000  0.26950000  0.63380000  1.0 0.1208892721
H  H35  1  0.23050000  0.27020000  0.13380000  1.0 0.1208892721
H  H36  1  0.22980000  0.73050000  0.63380000  1.0 0.1208892721
H  H37  1  0.26950000  0.77020000  0.36620000  1.0 0.1208892721
H  H38  1  0.73050000  0.22980000  0.36620000  1.0 0.1208892721
H  H39  1  0.72980000  0.76950000  0.86620000  1.0 0.1208892721
H  H40  1  0.27020000  0.23050000  0.86620000  1.0 0.1208892721
H  H41  1  0.74320000  0.52510000  0.07020000  1.0 0.1111637543
H  H42  1  0.97490000  0.24320000  0.57020000  1.0 0.1111637543
H  H43  1  0.25680000  0.47490000  0.07020000  1.0 0.1111637543
H  H44  1  0.02510000  0.75680000  0.57020000  1.0 0.1111637543
H  H45  1  0.24320000  0.97490000  0.42980000  1.0 0.1111637543
H  H46  1  0.75680000  0.02510000  0.42980000  1.0 0.1111637543
H  H47  1  0.52510000  0.74320000  0.92980000  1.0 0.1111637543
H  H48  1  0.47490000  0.25680000  0.92980000  1.0 0.1111637543
H  H49  1  0.56760000  0.50030000  0.27950000  1.0 0.1316651133
H  H50  1  0.99970000  0.06760000  0.77950000  1.0 0.1316651133
H  H51  1  0.43240000  0.49970000  0.27950000  1.0 0.1316651133
H  H52  1  0.00030000  0.93240000  0.77950000  1.0 0.1316651133
H  H53  1  0.06760000  0.99970000  0.22050000  1.0 0.1316651133
H  H54  1  0.93240000  0.00030000  0.22050000  1.0 0.1316651133
H  H55  1  0.50030000  0.56760000  0.72050000  1.0 0.1316651133
H  H56  1  0.49970000  0.43240000  0.72050000  1.0 0.1316651133
H  H57  1  0.84950000  0.15640000  0.13630000  1.0 0.1316651133
H  H58  1  0.34360000  0.34950000  0.63630000  1.0 0.1316651133
H  H59  1  0.15050000  0.84360000  0.13630000  1.0 0.1316651133
H  H60  1  0.65640000  0.65050000  0.63630000  1.0 0.1316651133
H  H61  1  0.34950000  0.34360000  0.36370000  1.0 0.1316651133
H  H62  1  0.65050000  0.65640000  0.36370000  1.0 0.1316651133
H  H63  1  0.15640000  0.84950000  0.86370000  1.0 0.1316651133
H  H64  1  0.84360000  0.15050000  0.86370000  1.0 0.1316651133
H  H65  1  0.98720000  0.28880000  0.09390000  1.0 0.1208892721
H  H66  1  0.21120000  0.48720000  0.59390000  1.0 0.1208892721
H  H67  1  0.01280000  0.71120000  0.09390000  1.0 0.1208892721
H  H68  1  0.78880000  0.51280000  0.59390000  1.0 0.1208892721
H  H69  1  0.48720000  0.21120000  0.40610000  1.0 0.1208892721
H  H70  1  0.51280000  0.78880000  0.40610000  1.0 0.1208892721
H  H71  1  0.28880000  0.98720000  0.90610000  1.0 0.1208892721
H  H72  1  0.71120000  0.01280000  0.90610000  1.0 0.1208892721
H  H73  1  0.71120000  0.35000000  0.30830000  1.0 0.1417588144
H  H74  1  0.15000000  0.21120000  0.80830000  1.0 0.1417588144
H  H75  1  0.28880000  0.65000000  0.30830000  1.0 0.1417588144
H  H76  1  0.85000000  0.78880000  0.80830000  1.0 0.1417588144
H  H77  1  0.21120000  0.15000000  0.19170000  1.0 0.1417588144
H  H78  1  0.78880000  0.85000000  0.19170000  1.0 0.1417588144
H  H79  1  0.35000000  0.71120000  0.69170000  1.0 0.1417588144
H  H80  1  0.65000000  0.28880000  0.69170000  1.0 0.1417588144
H  H81  1  0.75970000  0.35940000  0.25440000  1.0 0.1208892721
H  H82  1  0.14060000  0.25970000  0.75440000  1.0 0.1208892721
H  H83  1  0.24030000  0.64060000  0.25440000  1.0 0.1208892721
H  H84  1  0.85940000  0.74030000  0.75440000  1.0 0.1208892721
H  H85  1  0.25970000  0.14060000  0.24560000  1.0 0.1208892721
H  H86  1  0.74030000  0.85940000  0.24560000  1.0 0.1208892721
H  H87  1  0.35940000  0.75970000  0.74560000  1.0 0.1208892721
H  H88  1  0.64060000  0.24030000  0.74560000  1.0 0.1208892721
H  H89  1  0.60810000  0.48780000  0.22370000  1.0 0.1208892721
H  H90  1  0.01220000  0.10810000  0.72370000  1.0 0.1208892721
H  H91  1  0.39190000  0.51220000  0.22370000  1.0 0.1208892721
H  H92  1  0.98780000  0.89190000  0.72370000  1.0 0.1208892721
H  H93  1  0.10810000  0.01220000  0.27630000  1.0 0.1208892721
H  H94  1  0.89190000  0.98780000  0.27630000  1.0 0.1208892721
H  H95  1  0.48780000  0.60810000  0.77630000  1.0 0.1208892721
H  H96  1  0.51220000  0.39190000  0.77630000  1.0 0.1208892721
H  H97  1  0.68330000  0.53010000  0.17950000  1.0 0.1111637543
H  H98  1  0.96990000  0.18330000  0.67950000  1.0 0.1111637543
H  H99  1  0.31670000  0.46990000  0.17950000  1.0 0.1111637543
H  H100  1  0.03010000  0.81670000  0.67950000  1.0 0.1111637543
H  H101  1  0.18330000  0.96990000  0.32050000  1.0 0.1111637543
H  H102  1  0.81670000  0.03010000  0.32050000  1.0 0.1111637543
H  H103  1  0.53010000  0.68330000  0.82050000  1.0 0.1111637543
H  H104  1  0.46990000  0.31670000  0.82050000  1.0 0.1111637543
H  H105  1  0.91110000  0.37990000  0.11250000  1.0 0.1208892721
H  H106  1  0.12010000  0.41110000  0.61250000  1.0 0.1208892721
H  H107  1  0.08890000  0.62010000  0.11250000  1.0 0.1208892721
H  H108  1  0.87990000  0.58890000  0.61250000  1.0 0.1208892721
H  H109  1  0.41110000  0.12010000  0.38750000  1.0 0.1208892721
H  H110  1  0.58890000  0.87990000  0.38750000  1.0 0.1208892721
H  H111  1  0.37990000  0.91110000  0.88750000  1.0 0.1208892721
H  H112  1  0.62010000  0.08890000  0.88750000  1.0 0.1208892721
H  H113  1  0.78480000  0.23240000  0.15870000  1.0 0.1208892721
H  H114  1  0.26760000  0.28480000  0.65870000  1.0 0.1208892721
H  H115  1  0.21520000  0.76760000  0.15870000  1.0 0.1208892721
H  H116  1  0.73240000  0.71520000  0.65870000  1.0 0.1208892721
H  H117  1  0.28480000  0.26760000  0.34130000  1.0 0.1208892721
H  H118  1  0.71520000  0.73240000  0.34130000  1.0 0.1208892721
H  H119  1  0.23240000  0.78480000  0.84130000  1.0 0.1208892721
H  H120  1  0.76760000  0.21520000  0.84130000  1.0 0.1208892721
H  H121  1  0.80760000  0.44570000  0.10440000  1.0 0.1111637543
H  H122  1  0.05430000  0.30760000  0.60440000  1.0 0.1111637543
H  H123  1  0.19240000  0.55430000  0.10440000  1.0 0.1111637543
H  H124  1  0.94570000  0.69240000  0.60440000  1.0 0.1111637543
H  H125  1  0.30760000  0.05430000  0.39560000  1.0 0.1111637543
H  H126  1  0.69240000  0.94570000  0.39560000  1.0 0.1111637543
H  H127  1  0.44570000  0.80760000  0.89560000  1.0 0.1111637543
H  H128  1  0.55430000  0.19240000  0.89560000  1.0 0.1111637543
H  H129  1  0.75490000  0.32980000  0.19240000  1.0 0.1208892721
H  H130  1  0.17020000  0.25490000  0.69240000  1.0 0.1208892721
H  H131  1  0.24510000  0.67020000  0.19240000  1.0 0.1208892721
H  H132  1  0.82980000  0.74510000  0.69240000  1.0 0.1208892721
H  H133  1  0.25490000  0.17020000  0.30760000  1.0 0.1208892721
H  H134  1  0.74510000  0.82980000  0.30760000  1.0 0.1208892721
H  H135  1  0.32980000  0.75490000  0.80760000  1.0 0.1208892721
H  H136  1  0.67020000  0.24510000  0.80760000  1.0 0.1208892721
H  H137  1  0.82400000  0.47580000  0.39450000  1.0 0.1417588144
H  H138  1  0.02420000  0.32400000  0.89450000  1.0 0.1417588144
H  H139  1  0.17600000  0.52420000  0.39450000  1.0 0.1417588144
H  H140  1  0.97580000  0.67600000  0.89450000  1.0 0.1417588144
H  H141  1  0.32400000  0.02420000  0.10550000  1.0 0.1417588144
H  H142  1  0.67600000  0.97580000  0.10550000  1.0 0.1417588144
H  H143  1  0.47580000  0.82400000  0.60550000  1.0 0.1417588144
H  H144  1  0.52420000  0.17600000  0.60550000  1.0 0.1417588144
H  H145  1  0.93520000  0.51530000  0.39240000  1.0 0.1208892721
H  H146  1  0.98470000  0.43520000  0.89240000  1.0 0.1208892721
H  H147  1  0.06480000  0.48470000  0.39240000  1.0 0.1208892721
H  H148  1  0.01530000  0.56480000  0.89240000  1.0 0.1208892721
H  H149  1  0.43520000  0.98470000  0.10760000  1.0 0.1208892721
H  H150  1  0.56480000  0.01530000  0.10760000  1.0 0.1208892721
H  H151  1  0.51530000  0.93520000  0.60760000  1.0 0.1208892721
H  H152  1  0.48470000  0.06480000  0.60760000  1.0 0.1208892721
H  H153  1  0.84840000  0.42580000  0.49740000  1.0 0.1316651133
H  H154  1  0.07420000  0.34840000  0.99740000  1.0 0.1316651133
H  H155  1  0.15160000  0.57420000  0.49740000  1.0 0.1316651133
H  H156  1  0.92580000  0.65160000  0.99740000  1.0 0.1316651133
H  H157  1  0.34840000  0.07420000  0.00260000  1.0 0.1316651133
H  H158  1  0.65160000  0.92580000  0.00260000  1.0 0.1316651133
H  H159  1  0.42580000  0.84840000  0.50260000  1.0 0.1316651133
H  H160  1  0.57420000  0.15160000  0.50260000  1.0 0.1316651133
H  H161  1  0.96720000  0.44140000  0.49440000  1.0 0.1208892721
H  H162  1  0.05860000  0.46720000  0.99440000  1.0 0.1208892721
H  H163  1  0.03280000  0.55860000  0.49440000  1.0 0.1208892721
H  H164  1  0.94140000  0.53280000  0.99440000  1.0 0.1208892721
H  H165  1  0.46720000  0.05860000  0.00560000  1.0 0.1208892721
H  H166  1  0.53280000  0.94140000  0.00560000  1.0 0.1208892721
H  H167  1  0.44140000  0.96720000  0.50560000  1.0 0.1208892721
H  H168  1  0.55860000  0.03280000  0.50560000  1.0 0.1208892721
C  C1  1  0.61050000  0.43160000  0.34150000  1.0 0.6361575247
C  C2  1  0.06840000  0.11050000  0.84150000  1.0 0.6361575247
C  C3  1  0.38950000  0.56840000  0.34150000  1.0 0.6361575247
C  C4  1  0.93160000  0.88950000  0.84150000  1.0 0.6361575247
C  C5  1  0.11050000  0.06840000  0.15850000  1.0 0.6361575247
C  C6  1  0.88950000  0.93160000  0.15850000  1.0 0.6361575247
C  C7  1  0.43160000  0.61050000  0.65850000  1.0 0.6361575247
C  C8  1  0.56840000  0.38950000  0.65850000  1.0 0.6361575247
C  C9  1  0.76240000  0.62440000  0.14060000  1.0 -0.1589033483
C  C10  1  0.87560000  0.26240000  0.64060000  1.0 -0.1589033483
C  C11  1  0.23760000  0.37560000  0.14060000  1.0 -0.1589033483
C  C12  1  0.12440000  0.73760000  0.64060000  1.0 -0.1589033483
C  C13  1  0.26240000  0.87560000  0.35940000  1.0 -0.1589033483
C  C14  1  0.73760000  0.12440000  0.35940000  1.0 -0.1589033483
C  C15  1  0.62440000  0.76240000  0.85940000  1.0 -0.1589033483
C  C16  1  0.37560000  0.23760000  0.85940000  1.0 -0.1589033483
C  C17  1  0.76720000  0.63170000  0.06290000  1.0 -0.1000515141
C  C18  1  0.86830000  0.26720000  0.56290000  1.0 -0.1000515141
C  C19  1  0.23280000  0.36830000  0.06290000  1.0 -0.1000515141
C  C20  1  0.13170000  0.73280000  0.56290000  1.0 -0.1000515141
C  C21  1  0.26720000  0.86830000  0.43710000  1.0 -0.1000515141
C  C22  1  0.73280000  0.13170000  0.43710000  1.0 -0.1000515141
C  C23  1  0.63170000  0.76720000  0.93710000  1.0 -0.1000515141
C  C24  1  0.36830000  0.23280000  0.93710000  1.0 -0.1000515141
C  C25  1  0.97330000  0.15220000  0.10910000  1.0 0.5818474414
C  C26  1  0.34780000  0.47330000  0.60910000  1.0 0.5818474414
C  C27  1  0.02670000  0.84780000  0.10910000  1.0 0.5818474414
C  C28  1  0.65220000  0.52670000  0.60910000  1.0 0.5818474414
C  C29  1  0.47330000  0.34780000  0.39090000  1.0 0.5818474414
C  C30  1  0.52670000  0.65220000  0.39090000  1.0 0.5818474414
C  C31  1  0.15220000  0.97330000  0.89090000  1.0 0.5818474414
C  C32  1  0.84780000  0.02670000  0.89090000  1.0 0.5818474414
C  C33  1  0.77050000  0.68790000  0.12090000  1.0 -0.0863570739
C  C34  1  0.81210000  0.27050000  0.62090000  1.0 -0.0863570739
C  C35  1  0.22950000  0.31210000  0.12090000  1.0 -0.0863570739
C  C36  1  0.18790000  0.72950000  0.62090000  1.0 -0.0863570739
C  C37  1  0.27050000  0.81210000  0.37910000  1.0 -0.0863570739
C  C38  1  0.72950000  0.18790000  0.37910000  1.0 -0.0863570739
C  C39  1  0.68790000  0.77050000  0.87910000  1.0 -0.0863570739
C  C40  1  0.31210000  0.22950000  0.87910000  1.0 -0.0863570739
C  C41  1  0.75180000  0.56600000  0.08330000  1.0 -0.1503061746
C  C42  1  0.93400000  0.25180000  0.58330000  1.0 -0.1503061746
C  C43  1  0.24820000  0.43400000  0.08330000  1.0 -0.1503061746
C  C44  1  0.06600000  0.74820000  0.58330000  1.0 -0.1503061746
C  C45  1  0.25180000  0.93400000  0.41670000  1.0 -0.1503061746
C  C46  1  0.74820000  0.06600000  0.41670000  1.0 -0.1503061746
C  C47  1  0.56600000  0.75180000  0.91670000  1.0 -0.1503061746
C  C48  1  0.43400000  0.24820000  0.91670000  1.0 -0.1503061746
C  C49  1  0.77980000  0.69060000  0.08380000  1.0 -0.0479146382
C  C50  1  0.80940000  0.27980000  0.58380000  1.0 -0.0479146382
C  C51  1  0.22020000  0.30940000  0.08380000  1.0 -0.0479146382
C  C52  1  0.19060000  0.72020000  0.58380000  1.0 -0.0479146382
C  C53  1  0.27980000  0.80940000  0.41620000  1.0 -0.0479146382
C  C54  1  0.72020000  0.19060000  0.41620000  1.0 -0.0479146382
C  C55  1  0.69060000  0.77980000  0.91620000  1.0 -0.0479146382
C  C56  1  0.30940000  0.22020000  0.91620000  1.0 -0.0479146382
C  C57  1  0.80090000  0.75820000  0.06580000  1.0 0.6291593844
C  C58  1  0.74180000  0.30090000  0.56580000  1.0 0.6291593844
C  C59  1  0.19910000  0.24180000  0.06580000  1.0 0.6291593844
C  C60  1  0.25820000  0.69910000  0.56580000  1.0 0.6291593844
C  C61  1  0.30090000  0.74180000  0.43420000  1.0 0.6291593844
C  C62  1  0.69910000  0.25820000  0.43420000  1.0 0.6291593844
C  C63  1  0.75820000  0.80090000  0.93420000  1.0 0.6291593844
C  C64  1  0.24180000  0.19910000  0.93420000  1.0 0.6291593844
C  C65  1  0.93020000  0.20810000  0.11860000  1.0 -0.1205883088
C  C66  1  0.29190000  0.43020000  0.61860000  1.0 -0.1205883088
C  C67  1  0.06980000  0.79190000  0.11860000  1.0 -0.1205883088
C  C68  1  0.70810000  0.56980000  0.61860000  1.0 -0.1205883088
C  C69  1  0.43020000  0.29190000  0.38140000  1.0 -0.1205883088
C  C70  1  0.56980000  0.70810000  0.38140000  1.0 -0.1205883088
C  C71  1  0.20810000  0.93020000  0.88140000  1.0 -0.1205883088
C  C72  1  0.79190000  0.06980000  0.88140000  1.0 -0.1205883088
C  C73  1  0.60450000  0.46990000  0.27440000  1.0 -0.1000515141
C  C74  1  0.03010000  0.10450000  0.77440000  1.0 -0.1000515141
C  C75  1  0.39550000  0.53010000  0.27440000  1.0 -0.1000515141
C  C76  1  0.96990000  0.89550000  0.77440000  1.0 -0.1000515141
C  C77  1  0.10450000  0.03010000  0.22560000  1.0 -0.1000515141
C  C78  1  0.89550000  0.96990000  0.22560000  1.0 -0.1000515141
C  C79  1  0.46990000  0.60450000  0.72560000  1.0 -0.1000515141
C  C80  1  0.53010000  0.39550000  0.72560000  1.0 -0.1000515141
C  C81  1  0.74980000  0.56360000  0.12020000  1.0 0.0799301221
C  C82  1  0.93640000  0.24980000  0.62020000  1.0 0.0799301221
C  C83  1  0.25020000  0.43640000  0.12020000  1.0 0.0799301221
C  C84  1  0.06360000  0.75020000  0.62020000  1.0 0.0799301221
C  C85  1  0.24980000  0.93640000  0.37980000  1.0 0.0799301221
C  C86  1  0.75020000  0.06360000  0.37980000  1.0 0.0799301221
C  C87  1  0.56360000  0.74980000  0.87980000  1.0 0.0799301221
C  C88  1  0.43640000  0.25020000  0.87980000  1.0 0.0799301221
C  C89  1  0.68810000  0.42770000  0.23240000  1.0 0.0799301221
C  C90  1  0.07230000  0.18810000  0.73240000  1.0 0.0799301221
C  C91  1  0.31190000  0.57230000  0.23240000  1.0 0.0799301221
C  C92  1  0.92770000  0.81190000  0.73240000  1.0 0.0799301221
C  C93  1  0.18810000  0.07230000  0.26760000  1.0 0.0799301221
C  C94  1  0.81190000  0.92770000  0.26760000  1.0 0.0680121768
C  C95  1  0.42770000  0.68810000  0.76760000  1.0 0.0799301221
C  C96  1  0.57230000  0.31190000  0.76760000  1.0 0.0799301221
C  C97  1  0.86490000  0.20240000  0.13380000  1.0 -0.0722160442
C  C98  1  0.29760000  0.36490000  0.63380000  1.0 -0.0722160442
C  C99  1  0.13510000  0.79760000  0.13380000  1.0 -0.0722160442
C  C100  1  0.70240000  0.63510000  0.63380000  1.0 -0.0722160442
C  C101  1  0.36490000  0.29760000  0.36620000  1.0 -0.0722160442
C  C102  1  0.63510000  0.70240000  0.36620000  1.0 -0.0722160442
C  C103  1  0.20240000  0.86490000  0.86620000  1.0 -0.0722160442
C  C104  1  0.79760000  0.13510000  0.86620000  1.0 -0.0722160442
C  C105  1  0.72210000  0.43070000  0.19320000  1.0 0.09576206
C  C106  1  0.06930000  0.22210000  0.69320000  1.0 0.09576206
C  C107  1  0.27790000  0.56930000  0.19320000  1.0 0.09576206
C  C108  1  0.93070000  0.77790000  0.69320000  1.0 0.09576206
C  C109  1  0.22210000  0.06930000  0.30680000  1.0 0.09576206
C  C110  1  0.77790000  0.93070000  0.30680000  1.0 0.09576206
C  C111  1  0.43070000  0.72210000  0.80680000  1.0 0.09576206
C  C112  1  0.56930000  0.27790000  0.80680000  1.0 0.09576206
C  C113  1  0.63830000  0.42280000  0.30390000  1.0 -0.0344228829
C  C114  1  0.07720000  0.13830000  0.80390000  1.0 -0.0344228829
C  C115  1  0.36170000  0.57720000  0.30390000  1.0 -0.0344228829
C  C116  1  0.92280000  0.86170000  0.80390000  1.0 -0.0344228829
C  C117  1  0.13830000  0.07720000  0.19610000  1.0 -0.0344228829
C  C118  1  0.86170000  0.92280000  0.19610000  1.0 -0.0344228829
C  C119  1  0.42280000  0.63830000  0.69610000  1.0 -0.0344228829
C  C120  1  0.57720000  0.36170000  0.69610000  1.0 -0.0344228829
C  C121  1  0.94690000  0.27910000  0.10730000  1.0 -0.0762567251
C  C122  1  0.22090000  0.44690000  0.60730000  1.0 -0.0762567251
C  C123  1  0.05310000  0.72090000  0.10730000  1.0 -0.0762567251
C  C124  1  0.77910000  0.55310000  0.60730000  1.0 -0.0762567251
C  C125  1  0.44690000  0.22090000  0.39270000  1.0 -0.0762567251
C  C126  1  0.55310000  0.77910000  0.39270000  1.0 -0.0762567251
C  C127  1  0.27910000  0.94690000  0.89270000  1.0 -0.0762567251
C  C128  1  0.72090000  0.05310000  0.89270000  1.0 -0.0762567251
C  C129  1  0.69240000  0.38220000  0.29200000  1.0 -0.1000515141
C  C130  1  0.11780000  0.19240000  0.79200000  1.0 -0.1000515141
C  C131  1  0.30760000  0.61780000  0.29200000  1.0 -0.1000515141
C  C132  1  0.88220000  0.80760000  0.79200000  1.0 -0.1000515141
C  C133  1  0.19240000  0.11780000  0.20800000  1.0 -0.1000515141
C  C134  1  0.80760000  0.88220000  0.20800000  1.0 -0.1000515141
C  C135  1  0.38220000  0.69240000  0.70800000  1.0 -0.1000515141
C  C136  1  0.61780000  0.30760000  0.70800000  1.0 -0.1000515141
C  C137  1  0.71960000  0.38520000  0.25970000  1.0 -0.1503061746
C  C138  1  0.11480000  0.21960000  0.75970000  1.0 -0.1503061746
C  C139  1  0.28040000  0.61480000  0.25970000  1.0 -0.1503061746
C  C140  1  0.88520000  0.78040000  0.75970000  1.0 -0.1503061746
C  C141  1  0.21960000  0.11480000  0.24030000  1.0 -0.1503061746
C  C142  1  0.78040000  0.88520000  0.24030000  1.0 -0.1503061746
C  C143  1  0.38520000  0.71960000  0.74030000  1.0 -0.1503061746
C  C144  1  0.61480000  0.28040000  0.74030000  1.0 -0.1503061746
C  C145  1  0.83440000  0.31850000  0.13500000  1.0 0.0680121768
C  C146  1  0.18150000  0.33440000  0.63500000  1.0 0.0680121768
C  C147  1  0.16560000  0.68150000  0.13500000  1.0 0.0680121768
C  C148  1  0.81850000  0.66560000  0.63500000  1.0 0.0680121768
C  C149  1  0.33440000  0.18150000  0.36500000  1.0 0.0680121768
C  C150  1  0.66560000  0.81850000  0.36500000  1.0 0.0680121768
C  C151  1  0.31850000  0.83440000  0.86500000  1.0 0.0680121768
C  C152  1  0.68150000  0.16560000  0.86500000  1.0 0.0680121768
C  C153  1  0.63120000  0.46400000  0.24230000  1.0 -0.1205883088
C  C154  1  0.03600000  0.13120000  0.74230000  1.0 -0.1205883088
C  C155  1  0.36880000  0.53600000  0.24230000  1.0 -0.1205883088
C  C156  1  0.96400000  0.86880000  0.74230000  1.0 -0.1205883088
C  C157  1  0.13120000  0.03600000  0.25770000  1.0 -0.1205883088
C  C158  1  0.86880000  0.96400000  0.25770000  1.0 -0.1205883088
C  C159  1  0.46400000  0.63120000  0.75770000  1.0 -0.1205883088
C  C160  1  0.53600000  0.36880000  0.75770000  1.0 -0.1205883088
C  C161  1  0.71120000  0.49330000  0.17140000  1.0 -0.2172445851
C  C162  1  0.00670000  0.21120000  0.67140000  1.0 -0.2172445851
C  C163  1  0.28880000  0.50670000  0.17140000  1.0 -0.2172445851
C  C164  1  0.99330000  0.78880000  0.67140000  1.0 -0.2172445851
C  C165  1  0.21120000  0.00670000  0.32860000  1.0 -0.2172445851
C  C166  1  0.78880000  0.99330000  0.32860000  1.0 -0.2172445851
C  C167  1  0.49330000  0.71120000  0.82860000  1.0 -0.2172445851
C  C168  1  0.50670000  0.28880000  0.82860000  1.0 -0.2172445851
C  C169  1  0.89940000  0.33350000  0.11750000  1.0 -0.1690282403
C  C170  1  0.16650000  0.39940000  0.61750000  1.0 -0.1690282403
C  C171  1  0.10060000  0.66650000  0.11750000  1.0 -0.1690282403
C  C172  1  0.83350000  0.60060000  0.61750000  1.0 -0.1690282403
C  C173  1  0.39940000  0.16650000  0.38250000  1.0 -0.1690282403
C  C174  1  0.60060000  0.83350000  0.38250000  1.0 -0.1690282403
C  C175  1  0.33350000  0.89940000  0.88250000  1.0 -0.1690282403
C  C176  1  0.66650000  0.10060000  0.88250000  1.0 -0.1690282403
C  C177  1  0.79080000  0.37570000  0.14870000  1.0 0.0799301221
C  C178  1  0.12430000  0.29080000  0.64870000  1.0 0.0799301221
C  C179  1  0.20920000  0.62430000  0.14870000  1.0 0.0799301221
C  C180  1  0.87570000  0.70920000  0.64870000  1.0 0.0799301221
C  C181  1  0.29080000  0.12430000  0.35130000  1.0 0.0799301221
C  C182  1  0.70920000  0.87570000  0.35130000  1.0 0.0799301221
C  C183  1  0.37570000  0.79080000  0.85130000  1.0 0.0799301221
C  C184  1  0.62430000  0.20920000  0.85130000  1.0 0.0799301221
C  C185  1  0.82310000  0.24560000  0.14460000  1.0 -0.1205883088
C  C186  1  0.25440000  0.32310000  0.64460000  1.0 -0.1205883088
C  C187  1  0.17690000  0.75440000  0.14460000  1.0 -0.1205883088
C  C188  1  0.74560000  0.67690000  0.64460000  1.0 -0.1205883088
C  C189  1  0.32310000  0.25440000  0.35540000  1.0 -0.1205883088
C  C190  1  0.67690000  0.74560000  0.35540000  1.0 -0.1205883088
C  C191  1  0.24560000  0.82310000  0.85540000  1.0 -0.1205883088
C  C192  1  0.75440000  0.17690000  0.85540000  1.0 -0.1205883088
C  C193  1  0.74350000  0.49530000  0.13900000  1.0 0.0799301221
C  C194  1  0.00470000  0.24350000  0.63900000  1.0 0.0799301221
C  C195  1  0.25650000  0.50470000  0.13900000  1.0 0.0799301221
C  C196  1  0.99530000  0.75650000  0.63900000  1.0 0.0799301221
C  C197  1  0.24350000  0.00470000  0.36100000  1.0 0.0799301221
C  C198  1  0.75650000  0.99530000  0.36100000  1.0 0.0799301221
C  C199  1  0.49530000  0.74350000  0.86100000  1.0 0.0799301221
C  C200  1  0.50470000  0.25650000  0.86100000  1.0 0.0799301221
C  C201  1  0.78410000  0.44160000  0.12650000  1.0 -0.2013377501
C  C202  1  0.05840000  0.28410000  0.62650000  1.0 -0.2013377501
C  C203  1  0.21590000  0.55840000  0.12650000  1.0 -0.2013377501
C  C204  1  0.94160000  0.71590000  0.62650000  1.0 -0.2013377501
C  C205  1  0.28410000  0.05840000  0.37350000  1.0 -0.2013377501
C  C206  1  0.71590000  0.94160000  0.37350000  1.0 -0.2013377501
C  C207  1  0.44160000  0.78410000  0.87350000  1.0 -0.2013377501
C  C208  1  0.55840000  0.21590000  0.87350000  1.0 -0.2013377501
C  C209  1  0.75640000  0.37190000  0.17960000  1.0 -0.2013377501
C  C210  1  0.12810000  0.25640000  0.67960000  1.0 -0.2013377501
C  C211  1  0.24360000  0.62810000  0.17960000  1.0 -0.2013377501
C  C212  1  0.87190000  0.74360000  0.67960000  1.0 -0.2013377501
C  C213  1  0.25640000  0.12810000  0.32040000  1.0 -0.2013377501
C  C214  1  0.74360000  0.87190000  0.32040000  1.0 -0.2013377501
C  C215  1  0.37190000  0.75640000  0.82040000  1.0 -0.2013377501
C  C216  1  0.62810000  0.24360000  0.82040000  1.0 -0.2013377501
C  C217  1  0.75070000  0.42580000  0.45480000  1.0 0.6291593844
C  C218  1  0.07420000  0.25070000  0.95480000  1.0 0.6291593844
C  C219  1  0.24930000  0.57420000  0.45480000  1.0 0.6291593844
C  C220  1  0.92580000  0.74930000  0.95480000  1.0 0.6291593844
C  C221  1  0.25070000  0.07420000  0.04520000  1.0 0.6291593844
C  C222  1  0.74930000  0.92580000  0.04520000  1.0 0.6291593844
C  C223  1  0.42580000  0.75070000  0.54520000  1.0 0.6291593844
C  C224  1  0.57420000  0.24930000  0.54520000  1.0 0.6291593844
C  C225  1  0.85120000  0.47470000  0.41550000  1.0 -0.1000515141
C  C226  1  0.02530000  0.35120000  0.91550000  1.0 -0.1000515141
C  C227  1  0.14880000  0.52530000  0.41550000  1.0 -0.1000515141
C  C228  1  0.97470000  0.64880000  0.91550000  1.0 -0.1000515141
C  C229  1  0.35120000  0.02530000  0.08450000  1.0 -0.1000515141
C  C230  1  0.64880000  0.97470000  0.08450000  1.0 -0.1000515141
C  C231  1  0.47470000  0.85120000  0.58450000  1.0 -0.1000515141
C  C232  1  0.52530000  0.14880000  0.58450000  1.0 -0.1000515141
C  C233  1  0.82340000  0.45110000  0.44590000  1.0 -0.0444316315
C  C234  1  0.04890000  0.32340000  0.94590000  1.0 -0.0444316315
C  C235  1  0.17660000  0.54890000  0.44590000  1.0 -0.0444316315
C  C236  1  0.95110000  0.67660000  0.94590000  1.0 -0.0444316315
C  C237  1  0.32340000  0.04890000  0.05410000  1.0 -0.0444316315
C  C238  1  0.67660000  0.95110000  0.05410000  1.0 -0.0444316315
C  C239  1  0.45110000  0.82340000  0.55410000  1.0 -0.0444316315
C  C240  1  0.54890000  0.17660000  0.55410000  1.0 -0.0444316315
C  C241  1  0.91730000  0.49690000  0.41400000  1.0 -0.1503061746
C  C242  1  0.00310000  0.41730000  0.91400000  1.0 -0.1503061746
C  C243  1  0.08270000  0.50310000  0.41400000  1.0 -0.1503061746
C  C244  1  0.99690000  0.58270000  0.91400000  1.0 -0.1503061746
C  C245  1  0.41730000  0.00310000  0.08600000  1.0 -0.1503061746
C  C246  1  0.58270000  0.99690000  0.08600000  1.0 -0.1503061746
C  C247  1  0.49690000  0.91730000  0.58600000  1.0 -0.1503061746
C  C248  1  0.50310000  0.08270000  0.58600000  1.0 -0.1503061746
C  C249  1  0.86820000  0.44210000  0.47590000  1.0 -0.1099928525
C  C250  1  0.05790000  0.36820000  0.97590000  1.0 -0.1099928525
C  C251  1  0.13180000  0.55790000  0.47590000  1.0 -0.1099928525
C  C252  1  0.94210000  0.63180000  0.97590000  1.0 -0.1099928525
C  C253  1  0.36820000  0.05790000  0.02410000  1.0 -0.1099928525
C  C254  1  0.63180000  0.94210000  0.02410000  1.0 -0.1099928525
C  C255  1  0.44210000  0.86820000  0.52410000  1.0 -0.1099928525
C  C256  1  0.55790000  0.13180000  0.52410000  1.0 -0.1099928525
C  C257  1  0.95890000  0.49250000  0.44440000  1.0 0.0799301221
C  C258  1  0.00750000  0.45890000  0.94440000  1.0 0.0799301221
C  C259  1  0.04110000  0.50750000  0.44440000  1.0 0.0799301221
C  C260  1  0.99250000  0.54110000  0.94440000  1.0 0.0799301221
C  C261  1  0.45890000  0.00750000  0.05560000  1.0 0.0799301221
C  C262  1  0.54110000  0.99250000  0.05560000  1.0 0.0799301221
C  C263  1  0.49250000  0.95890000  0.55560000  1.0 0.0799301221
C  C264  1  0.50750000  0.04110000  0.55560000  1.0 0.0799301221
C  C265  1  0.93700000  0.45520000  0.47590000  1.0 -0.1503061746
C  C266  1  0.04480000  0.43700000  0.97590000  1.0 -0.1503061746
C  C267  1  0.06300000  0.54480000  0.47590000  1.0 -0.1503061746
C  C268  1  0.95520000  0.56300000  0.97590000  1.0 -0.1503061746
C  C269  1  0.43700000  0.04480000  0.02410000  1.0 -0.1503061746
C  C270  1  0.56300000  0.95520000  0.02410000  1.0 -0.1503061746
C  C271  1  0.45520000  0.93700000  0.52410000  1.0 -0.1503061746
C  C272  1  0.54480000  0.06300000  0.52410000  1.0 -0.1503061746
O  O1  1  0.56820000  0.47030000  0.41837000  1.0 -1.0025956808
O  O2  1  0.02970000  0.06820000  0.91837000  1.0 -1.0025956808
O  O3  1  0.43180000  0.52970000  0.41837000  1.0 -1.0025956808
O  O4  1  0.97030000  0.93180000  0.91837000  1.0 -1.0025956808
O  O5  1  0.06820000  0.02970000  0.08163000  1.0 -1.0025956808
O  O6  1  0.93180000  0.97030000  0.08163000  1.0 -1.0025956808
O  O7  1  0.47030000  0.56820000  0.58163000  1.0 -1.0025956808
O  O8  1  0.52970000  0.43180000  0.58163000  1.0 -1.0025956808
O  O9  1  0.64000000  0.39470000  0.36585000  1.0 -0.5704807704
O  O10  1  0.10530000  0.14000000  0.86585000  1.0 -0.5704807704
O  O11  1  0.36000000  0.60530000  0.36585000  1.0 -0.5704807704
O  O12  1  0.89470000  0.86000000  0.86585000  1.0 -0.5704807704
O  O13  1  0.14000000  0.10530000  0.13415000  1.0 -0.5704807704
O  O14  1  0.86000000  0.89470000  0.13415000  1.0 -0.5704807704
O  O15  1  0.39470000  0.64000000  0.63415000  1.0 -0.5704807704
O  O16  1  0.60530000  0.36000000  0.63415000  1.0 -0.5704807704
O  O17  1  0.60000000  0.36390000  0.46548000  1.0 -1.0084702848
O  O18  1  0.13610000  0.10000000  0.96548000  1.0 -1.0084702848
O  O19  1  0.40000000  0.63610000  0.46548000  1.0 -1.0084702848
O  O20  1  0.86390000  0.90000000  0.96548000  1.0 -1.0084702848
O  O21  1  0.10000000  0.13610000  0.03452000  1.0 -1.0084702848
O  O22  1  0.90000000  0.86390000  0.03452000  1.0 -1.0084702848
O  O23  1  0.36390000  0.60000000  0.53452000  1.0 -1.0084702848
O  O24  1  0.63610000  0.40000000  0.53452000  1.0 -1.0084702848
O  O25  1  0.55780000  0.47180000  0.34836000  1.0 -0.6005548118
O  O26  1  0.02820000  0.05780000  0.84836000  1.0 -0.6005548118
O  O27  1  0.44220000  0.52820000  0.34836000  1.0 -0.6005548118
O  O28  1  0.97180000  0.94220000  0.84836000  1.0 -0.6005548118
O  O29  1  0.05780000  0.02820000  0.15164000  1.0 -0.6005548118
O  O30  1  0.94220000  0.97180000  0.15164000  1.0 -0.6005548118
O  O31  1  0.47180000  0.55780000  0.65164000  1.0 -0.6005548118
O  O32  1  0.52820000  0.44220000  0.65164000  1.0 -0.6005548118
O  O33  1  0.82430000  0.80430000  0.08822000  1.0 -0.5704807704
O  O34  1  0.69570000  0.32430000  0.58822000  1.0 -0.5704807704
O  O35  1  0.17570000  0.19570000  0.08822000  1.0 -0.5704807704
O  O36  1  0.30430000  0.67570000  0.58822000  1.0 -0.5704807704
O  O37  1  0.32430000  0.69570000  0.41178000  1.0 -0.5704807704
O  O38  1  0.67570000  0.30430000  0.41178000  1.0 -0.5704807704
O  O39  1  0.80430000  0.82430000  0.91178000  1.0 -0.5704807704
O  O40  1  0.19570000  0.17570000  0.91178000  1.0 -0.5704807704
O  O41  1  0.73320000  0.39390000  0.48186000  1.0 -0.5373884468
O  O42  1  0.10610000  0.23320000  0.98186000  1.0 -0.5373884468
O  O43  1  0.26680000  0.60610000  0.48186000  1.0 -0.5373884468
O  O44  1  0.89390000  0.76680000  0.98186000  1.0 -0.5373884468
O  O45  1  0.23320000  0.10610000  0.01814000  1.0 -0.5373884468
O  O46  1  0.76680000  0.89390000  0.01814000  1.0 -0.5373884468
O  O47  1  0.39390000  0.73320000  0.51814000  1.0 -0.5373884468
O  O48  1  0.60610000  0.26680000  0.51814000  1.0 -0.5373884468
O  O49  1  0.04170000  0.16490000  0.09682000  1.0 -0.6717666267
O  O50  1  0.33510000  0.54170000  0.59682000  1.0 -0.6717666267
O  O51  1  0.95830000  0.83510000  0.09682000  1.0 -0.6717666267
O  O52  1  0.66490000  0.45830000  0.59682000  1.0 -0.6717666267
O  O53  1  0.54170000  0.33510000  0.40318000  1.0 -0.6717666267
O  O54  1  0.45830000  0.66490000  0.40318000  1.0 -0.6717666267
O  O55  1  0.16490000  0.04170000  0.90318000  1.0 -0.6717666267
O  O56  1  0.83510000  0.95830000  0.90318000  1.0 -0.6717666267
O  O57  1  0.95660000  0.08880000  0.11642000  1.0 -0.580320376
O  O58  1  0.41120000  0.45660000  0.61642000  1.0 -0.580320376
O  O59  1  0.04340000  0.91120000  0.11642000  1.0 -0.580320376
O  O60  1  0.58880000  0.54340000  0.61642000  1.0 -0.580320376
O  O61  1  0.45660000  0.41120000  0.38358000  1.0 -0.580320376
O  O62  1  0.54340000  0.58880000  0.38358000  1.0 -0.580320376
O  O63  1  0.08880000  0.95660000  0.88358000  1.0 -0.580320376
O  O64  1  0.91120000  0.04340000  0.88358000  1.0 -0.580320376
O  O65  1  0.70290000  0.43340000  0.42562000  1.0 -0.6829811884
O  O66  1  0.06660000  0.20290000  0.92562000  1.0 -0.6829811884
O  O67  1  0.29710000  0.56660000  0.42562000  1.0 -0.6829811884
O  O68  1  0.93340000  0.79710000  0.92562000  1.0 -0.6829811884
O  O69  1  0.20290000  0.06660000  0.07438000  1.0 -0.6829811884
O  O70  1  0.79710000  0.93340000  0.07438000  1.0 -0.6829811884
O  O71  1  0.43340000  0.70290000  0.57438000  1.0 -0.6829811884
O  O72  1  0.56660000  0.29710000  0.57438000  1.0 -0.6829811884
O  O73  1  0.80270000  0.76230000  0.03171000  1.0 -0.5545216752
O  O74  1  0.73770000  0.30270000  0.53171000  1.0 -0.5545216752
O  O75  1  0.19730000  0.23770000  0.03171000  1.0 -0.5545216752
O  O76  1  0.26230000  0.69730000  0.53171000  1.0 -0.5545216752
O  O77  1  0.30270000  0.73770000  0.46829000  1.0 -0.5545216752
O  O78  1  0.69730000  0.26230000  0.46829000  1.0 -0.5545216752
O  O79  1  0.76230000  0.80270000  0.96829000  1.0 -0.5545216752
O  O80  1  0.23770000  0.19730000  0.96829000  1.0 -0.5545216752
