# DDEC6 charges by PACMAN v1.1 (https://github.com/mtap-research/PACMAN-charge/)
data_c9cc02787d2_2_ASR_pacman
_symmetry_space_group_name_H-M   'P 1'
_cell_length_a   30.37760000
_cell_length_b   30.37760000
_cell_length_c   30.37760000
_cell_angle_alpha   90.00000000
_cell_angle_beta   90.00000000
_cell_angle_gamma   90.00000000
_symmetry_Int_Tables_number   1
_chemical_formula_structural   Zn7H114(C24O5)6
_chemical_formula_sum   'Zn28 H456 C576 O120'
_cell_volume   28032.40619727
_cell_formula_units_Z   4
loop_
 _symmetry_equiv_pos_site_id
 _symmetry_equiv_pos_as_xyz
  1  'x, y, z'
loop_
 _atom_site_type_symbol
 _atom_site_label
 _atom_site_symmetry_multiplicity
 _atom_site_fract_x
 _atom_site_fract_y
 _atom_site_fract_z
 _atom_site_occupancy
 _atom_site_charge
Zn  Zn1  1  0.88252000  0.50000000  0.50000000  1.0 0.9314283049
Zn  Zn2  1  0.50000000  0.88252000  0.50000000  1.0 0.9314283049
Zn  Zn3  1  0.11748000  0.50000000  0.50000000  1.0 0.9314283049
Zn  Zn4  1  0.50000000  0.11748000  0.50000000  1.0 0.9314283049
Zn  Zn5  1  0.50000000  0.50000000  0.11748000  1.0 0.9314283049
Zn  Zn6  1  0.50000000  0.50000000  0.88252000  1.0 0.9314283049
Zn  Zn7  1  0.78554000  0.50000000  0.50000000  1.0 0.9314283049
Zn  Zn8  1  0.50000000  0.78554000  0.50000000  1.0 0.9314283049
Zn  Zn9  1  0.21446000  0.50000000  0.50000000  1.0 0.9314283049
Zn  Zn10  1  0.50000000  0.21446000  0.50000000  1.0 0.9314283049
Zn  Zn11  1  0.50000000  0.50000000  0.21446000  1.0 0.9314283049
Zn  Zn12  1  0.50000000  0.50000000  0.78554000  1.0 0.9314283049
Zn  Zn13  1  0.65392000  0.65392000  0.34608000  1.0 0.9401514074
Zn  Zn14  1  0.34608000  0.65392000  0.34608000  1.0 0.9401514074
Zn  Zn15  1  0.34608000  0.34608000  0.34608000  1.0 0.9401514074
Zn  Zn16  1  0.65392000  0.34608000  0.34608000  1.0 0.9401514074
Zn  Zn17  1  0.65392000  0.65392000  0.65392000  1.0 0.9401514074
Zn  Zn18  1  0.65392000  0.34608000  0.65392000  1.0 0.9401514074
Zn  Zn19  1  0.34608000  0.65392000  0.65392000  1.0 0.9401514074
Zn  Zn20  1  0.34608000  0.34608000  0.65392000  1.0 0.9401514074
Zn  Zn21  1  0.72323000  0.72323000  0.27677000  1.0 1.0186359799
Zn  Zn22  1  0.27677000  0.72323000  0.27677000  1.0 1.0186359799
Zn  Zn23  1  0.27677000  0.27677000  0.27677000  1.0 1.0186359799
Zn  Zn24  1  0.72323000  0.27677000  0.27677000  1.0 1.0186359799
Zn  Zn25  1  0.72323000  0.72323000  0.72323000  1.0 1.0186359799
Zn  Zn26  1  0.72323000  0.27677000  0.72323000  1.0 1.0186359799
Zn  Zn27  1  0.27677000  0.72323000  0.72323000  1.0 1.0186359799
Zn  Zn28  1  0.27677000  0.27677000  0.72323000  1.0 1.0186359799
H  H1  1  0.01239000  0.76737000  0.29285000  1.0 0.3458905422
H  H2  1  0.23263000  0.01239000  0.29285000  1.0 0.3458905422
H  H3  1  0.98761000  0.23263000  0.29285000  1.0 0.3458905422
H  H4  1  0.76737000  0.98761000  0.29285000  1.0 0.3458905422
H  H5  1  0.01239000  0.70715000  0.76737000  1.0 0.3458905422
H  H6  1  0.01239000  0.23263000  0.70715000  1.0 0.3458905422
H  H7  1  0.01239000  0.29285000  0.23263000  1.0 0.3458905422
H  H8  1  0.29285000  0.76737000  0.98761000  1.0 0.3458905422
H  H9  1  0.98761000  0.76737000  0.70715000  1.0 0.3458905422
H  H10  1  0.70715000  0.76737000  0.01239000  1.0 0.3458905422
H  H11  1  0.29285000  0.01239000  0.76737000  1.0 0.3458905422
H  H12  1  0.76737000  0.29285000  0.01239000  1.0 0.3458905422
H  H13  1  0.23263000  0.70715000  0.01239000  1.0 0.3458905422
H  H14  1  0.29285000  0.98761000  0.23263000  1.0 0.3458905422
H  H15  1  0.23263000  0.29285000  0.98761000  1.0 0.3458905422
H  H16  1  0.70715000  0.98761000  0.76737000  1.0 0.3458905422
H  H17  1  0.70715000  0.01239000  0.23263000  1.0 0.3458905422
H  H18  1  0.76737000  0.70715000  0.98761000  1.0 0.3458905422
H  H19  1  0.76737000  0.01239000  0.70715000  1.0 0.3458905422
H  H20  1  0.23263000  0.98761000  0.70715000  1.0 0.3458905422
H  H21  1  0.98761000  0.29285000  0.76737000  1.0 0.3458905422
H  H22  1  0.98761000  0.70715000  0.23263000  1.0 0.3458905422
H  H23  1  0.29285000  0.23263000  0.01239000  1.0 0.3458905422
H  H24  1  0.70715000  0.23263000  0.98761000  1.0 0.3458905422
H  H25  1  0.76690000  0.60332000  0.40960000  1.0 0.131858302
H  H26  1  0.39668000  0.76690000  0.40960000  1.0 0.131858302
H  H27  1  0.23310000  0.39668000  0.40960000  1.0 0.131858302
H  H28  1  0.60332000  0.23310000  0.40960000  1.0 0.131858302
H  H29  1  0.76690000  0.59040000  0.60332000  1.0 0.131858302
H  H30  1  0.76690000  0.39668000  0.59040000  1.0 0.131858302
H  H31  1  0.76690000  0.40960000  0.39668000  1.0 0.131858302
H  H32  1  0.40960000  0.60332000  0.23310000  1.0 0.131858302
H  H33  1  0.23310000  0.60332000  0.59040000  1.0 0.131858302
H  H34  1  0.59040000  0.60332000  0.76690000  1.0 0.131858302
H  H35  1  0.40960000  0.76690000  0.60332000  1.0 0.131858302
H  H36  1  0.60332000  0.40960000  0.76690000  1.0 0.131858302
H  H37  1  0.39668000  0.59040000  0.76690000  1.0 0.131858302
H  H38  1  0.40960000  0.23310000  0.39668000  1.0 0.131858302
H  H39  1  0.39668000  0.40960000  0.23310000  1.0 0.131858302
H  H40  1  0.59040000  0.23310000  0.60332000  1.0 0.131858302
H  H41  1  0.59040000  0.76690000  0.39668000  1.0 0.131858302
H  H42  1  0.60332000  0.59040000  0.23310000  1.0 0.131858302
H  H43  1  0.60332000  0.76690000  0.59040000  1.0 0.131858302
H  H44  1  0.39668000  0.23310000  0.59040000  1.0 0.131858302
H  H45  1  0.23310000  0.40960000  0.60332000  1.0 0.131858302
H  H46  1  0.23310000  0.59040000  0.39668000  1.0 0.131858302
H  H47  1  0.40960000  0.39668000  0.76690000  1.0 0.131858302
H  H48  1  0.59040000  0.39668000  0.23310000  1.0 0.131858302
H  H49  1  0.82667000  0.70138000  0.34169000  1.0 0.121218544
H  H50  1  0.29862000  0.82667000  0.34169000  1.0 0.121218544
H  H51  1  0.17333000  0.29862000  0.34169000  1.0 0.121218544
H  H52  1  0.70138000  0.17333000  0.34169000  1.0 0.121218544
H  H53  1  0.82667000  0.65831000  0.70138000  1.0 0.121218544
H  H54  1  0.82667000  0.29862000  0.65831000  1.0 0.121218544
H  H55  1  0.82667000  0.34169000  0.29862000  1.0 0.121218544
H  H56  1  0.34169000  0.70138000  0.17333000  1.0 0.121218544
H  H57  1  0.17333000  0.70138000  0.65831000  1.0 0.121218544
H  H58  1  0.65831000  0.70138000  0.82667000  1.0 0.121218544
H  H59  1  0.34169000  0.82667000  0.70138000  1.0 0.121218544
H  H60  1  0.70138000  0.34169000  0.82667000  1.0 0.121218544
H  H61  1  0.29862000  0.65831000  0.82667000  1.0 0.121218544
H  H62  1  0.34169000  0.17333000  0.29862000  1.0 0.121218544
H  H63  1  0.29862000  0.34169000  0.17333000  1.0 0.121218544
H  H64  1  0.65831000  0.17333000  0.70138000  1.0 0.121218544
H  H65  1  0.65831000  0.82667000  0.29862000  1.0 0.121218544
H  H66  1  0.70138000  0.65831000  0.17333000  1.0 0.121218544
H  H67  1  0.70138000  0.82667000  0.65831000  1.0 0.121218544
H  H68  1  0.29862000  0.17333000  0.65831000  1.0 0.121218544
H  H69  1  0.17333000  0.34169000  0.70138000  1.0 0.121218544
H  H70  1  0.17333000  0.65831000  0.29862000  1.0 0.121218544
H  H71  1  0.34169000  0.29862000  0.82667000  1.0 0.121218544
H  H72  1  0.65831000  0.29862000  0.17333000  1.0 0.121218544
H  H73  1  0.89979000  0.61485000  0.41216000  1.0 0.121218544
H  H74  1  0.38515000  0.89979000  0.41216000  1.0 0.121218544
H  H75  1  0.10021000  0.38515000  0.41216000  1.0 0.121218544
H  H76  1  0.61485000  0.10021000  0.41216000  1.0 0.121218544
H  H77  1  0.89979000  0.58784000  0.61485000  1.0 0.121218544
H  H78  1  0.89979000  0.38515000  0.58784000  1.0 0.121218544
H  H79  1  0.89979000  0.41216000  0.38515000  1.0 0.121218544
H  H80  1  0.41216000  0.61485000  0.10021000  1.0 0.121218544
H  H81  1  0.10021000  0.61485000  0.58784000  1.0 0.121218544
H  H82  1  0.58784000  0.61485000  0.89979000  1.0 0.121218544
H  H83  1  0.41216000  0.89979000  0.61485000  1.0 0.121218544
H  H84  1  0.61485000  0.41216000  0.89979000  1.0 0.121218544
H  H85  1  0.38515000  0.58784000  0.89979000  1.0 0.121218544
H  H86  1  0.41216000  0.10021000  0.38515000  1.0 0.121218544
H  H87  1  0.38515000  0.41216000  0.10021000  1.0 0.121218544
H  H88  1  0.58784000  0.10021000  0.61485000  1.0 0.121218544
H  H89  1  0.58784000  0.89979000  0.38515000  1.0 0.121218544
H  H90  1  0.61485000  0.58784000  0.10021000  1.0 0.121218544
H  H91  1  0.61485000  0.89979000  0.58784000  1.0 0.121218544
H  H92  1  0.38515000  0.10021000  0.58784000  1.0 0.121218544
H  H93  1  0.10021000  0.41216000  0.61485000  1.0 0.121218544
H  H94  1  0.10021000  0.58784000  0.38515000  1.0 0.121218544
H  H95  1  0.41216000  0.38515000  0.89979000  1.0 0.121218544
H  H96  1  0.58784000  0.38515000  0.10021000  1.0 0.121218544
H  H97  1  0.88221000  0.74570000  0.37894000  1.0 0.121218544
H  H98  1  0.25430000  0.88221000  0.37894000  1.0 0.121218544
H  H99  1  0.11779000  0.25430000  0.37894000  1.0 0.121218544
H  H100  1  0.74570000  0.11779000  0.37894000  1.0 0.121218544
H  H101  1  0.88221000  0.62106000  0.74570000  1.0 0.121218544
H  H102  1  0.88221000  0.25430000  0.62106000  1.0 0.121218544
H  H103  1  0.88221000  0.37894000  0.25430000  1.0 0.121218544
H  H104  1  0.37894000  0.74570000  0.11779000  1.0 0.121218544
H  H105  1  0.11779000  0.74570000  0.62106000  1.0 0.121218544
H  H106  1  0.62106000  0.74570000  0.88221000  1.0 0.121218544
H  H107  1  0.37894000  0.88221000  0.74570000  1.0 0.121218544
H  H108  1  0.74570000  0.37894000  0.88221000  1.0 0.121218544
H  H109  1  0.25430000  0.62106000  0.88221000  1.0 0.121218544
H  H110  1  0.37894000  0.11779000  0.25430000  1.0 0.121218544
H  H111  1  0.25430000  0.37894000  0.11779000  1.0 0.121218544
H  H112  1  0.62106000  0.11779000  0.74570000  1.0 0.121218544
H  H113  1  0.62106000  0.88221000  0.25430000  1.0 0.121218544
H  H114  1  0.74570000  0.62106000  0.11779000  1.0 0.121218544
H  H115  1  0.74570000  0.88221000  0.62106000  1.0 0.121218544
H  H116  1  0.25430000  0.11779000  0.62106000  1.0 0.121218544
H  H117  1  0.11779000  0.37894000  0.74570000  1.0 0.121218544
H  H118  1  0.11779000  0.62106000  0.25430000  1.0 0.121218544
H  H119  1  0.37894000  0.25430000  0.88221000  1.0 0.121218544
H  H120  1  0.62106000  0.25430000  0.11779000  1.0 0.121218544
H  H121  1  0.95006000  0.60366000  0.36091000  1.0 0.131858302
H  H122  1  0.39634000  0.95006000  0.36091000  1.0 0.131858302
H  H123  1  0.04994000  0.39634000  0.36091000  1.0 0.131858302
H  H124  1  0.60366000  0.04994000  0.36091000  1.0 0.131858302
H  H125  1  0.95006000  0.63909000  0.60366000  1.0 0.131858302
H  H126  1  0.95006000  0.39634000  0.63909000  1.0 0.131858302
H  H127  1  0.95006000  0.36091000  0.39634000  1.0 0.131858302
H  H128  1  0.36091000  0.60366000  0.04994000  1.0 0.131858302
H  H129  1  0.04994000  0.60366000  0.63909000  1.0 0.131858302
H  H130  1  0.63909000  0.60366000  0.95006000  1.0 0.131858302
H  H131  1  0.36091000  0.95006000  0.60366000  1.0 0.131858302
H  H132  1  0.60366000  0.36091000  0.95006000  1.0 0.131858302
H  H133  1  0.39634000  0.63909000  0.95006000  1.0 0.131858302
H  H134  1  0.36091000  0.04994000  0.39634000  1.0 0.131858302
H  H135  1  0.39634000  0.36091000  0.04994000  1.0 0.131858302
H  H136  1  0.63909000  0.04994000  0.60366000  1.0 0.131858302
H  H137  1  0.63909000  0.95006000  0.39634000  1.0 0.131858302
H  H138  1  0.60366000  0.63909000  0.04994000  1.0 0.131858302
H  H139  1  0.60366000  0.95006000  0.63909000  1.0 0.131858302
H  H140  1  0.39634000  0.04994000  0.63909000  1.0 0.131858302
H  H141  1  0.04994000  0.36091000  0.60366000  1.0 0.131858302
H  H142  1  0.04994000  0.63909000  0.39634000  1.0 0.131858302
H  H143  1  0.36091000  0.39634000  0.95006000  1.0 0.131858302
H  H144  1  0.63909000  0.39634000  0.04994000  1.0 0.131858302
H  H145  1  0.97412000  0.61214000  0.31482000  1.0 0.131858302
H  H146  1  0.38786000  0.97412000  0.31482000  1.0 0.131858302
H  H147  1  0.02588000  0.38786000  0.31482000  1.0 0.131858302
H  H148  1  0.61214000  0.02588000  0.31482000  1.0 0.131858302
H  H149  1  0.97412000  0.68518000  0.61214000  1.0 0.131858302
H  H150  1  0.97412000  0.38786000  0.68518000  1.0 0.131858302
H  H151  1  0.97412000  0.31482000  0.38786000  1.0 0.131858302
H  H152  1  0.31482000  0.61214000  0.02588000  1.0 0.131858302
H  H153  1  0.02588000  0.61214000  0.68518000  1.0 0.131858302
H  H154  1  0.68518000  0.61214000  0.97412000  1.0 0.131858302
H  H155  1  0.31482000  0.97412000  0.61214000  1.0 0.131858302
H  H156  1  0.61214000  0.31482000  0.97412000  1.0 0.131858302
H  H157  1  0.38786000  0.68518000  0.97412000  1.0 0.131858302
H  H158  1  0.31482000  0.02588000  0.38786000  1.0 0.131858302
H  H159  1  0.38786000  0.31482000  0.02588000  1.0 0.131858302
H  H160  1  0.68518000  0.02588000  0.61214000  1.0 0.131858302
H  H161  1  0.68518000  0.97412000  0.38786000  1.0 0.131858302
H  H162  1  0.61214000  0.68518000  0.02588000  1.0 0.131858302
H  H163  1  0.61214000  0.97412000  0.68518000  1.0 0.131858302
H  H164  1  0.38786000  0.02588000  0.68518000  1.0 0.131858302
H  H165  1  0.02588000  0.31482000  0.61214000  1.0 0.131858302
H  H166  1  0.02588000  0.68518000  0.38786000  1.0 0.131858302
H  H167  1  0.31482000  0.38786000  0.97412000  1.0 0.131858302
H  H168  1  0.68518000  0.38786000  0.02588000  1.0 0.131858302
H  H169  1  0.92156000  0.60931000  0.31696000  1.0 0.1354970848
H  H170  1  0.39069000  0.92156000  0.31696000  1.0 0.131858302
H  H171  1  0.07844000  0.39069000  0.31696000  1.0 0.131858302
H  H172  1  0.60931000  0.07844000  0.31696000  1.0 0.1354970848
H  H173  1  0.92156000  0.68304000  0.60931000  1.0 0.1354970848
H  H174  1  0.92156000  0.39069000  0.68304000  1.0 0.131858302
H  H175  1  0.92156000  0.31696000  0.39069000  1.0 0.1354970848
H  H176  1  0.31696000  0.60931000  0.07844000  1.0 0.1354970848
H  H177  1  0.07844000  0.60931000  0.68304000  1.0 0.131858302
H  H178  1  0.68304000  0.60931000  0.92156000  1.0 0.131858302
H  H179  1  0.31696000  0.92156000  0.60931000  1.0 0.1354970848
H  H180  1  0.60931000  0.31696000  0.92156000  1.0 0.1354970848
H  H181  1  0.39069000  0.68304000  0.92156000  1.0 0.131858302
H  H182  1  0.31696000  0.07844000  0.39069000  1.0 0.1354970848
H  H183  1  0.39069000  0.31696000  0.07844000  1.0 0.1354970848
H  H184  1  0.68304000  0.07844000  0.60931000  1.0 0.1354970848
H  H185  1  0.68304000  0.92156000  0.39069000  1.0 0.131858302
H  H186  1  0.60931000  0.68304000  0.07844000  1.0 0.1354970848
H  H187  1  0.60931000  0.92156000  0.68304000  1.0 0.131858302
H  H188  1  0.39069000  0.07844000  0.68304000  1.0 0.131858302
H  H189  1  0.07844000  0.31696000  0.60931000  1.0 0.1354970848
H  H190  1  0.07844000  0.68304000  0.39069000  1.0 0.131858302
H  H191  1  0.31696000  0.39069000  0.92156000  1.0 0.131858302
H  H192  1  0.68304000  0.39069000  0.07844000  1.0 0.1354970848
H  H193  1  0.96647000  0.88295000  0.43023000  1.0 0.1135396352
H  H194  1  0.11705000  0.96647000  0.43023000  1.0 0.1135396352
H  H195  1  0.03353000  0.11705000  0.43023000  1.0 0.1135396352
H  H196  1  0.88295000  0.03353000  0.43023000  1.0 0.1135396352
H  H197  1  0.96647000  0.56977000  0.88295000  1.0 0.1135396352
H  H198  1  0.96647000  0.11705000  0.56977000  1.0 0.1135396352
H  H199  1  0.96647000  0.43023000  0.11705000  1.0 0.1135396352
H  H200  1  0.43023000  0.88295000  0.03353000  1.0 0.1135396352
H  H201  1  0.03353000  0.88295000  0.56977000  1.0 0.1135396352
H  H202  1  0.56977000  0.88295000  0.96647000  1.0 0.1135396352
H  H203  1  0.43023000  0.96647000  0.88295000  1.0 0.1135396352
H  H204  1  0.88295000  0.43023000  0.96647000  1.0 0.1135396352
H  H205  1  0.11705000  0.56977000  0.96647000  1.0 0.1135396352
H  H206  1  0.43023000  0.03353000  0.11705000  1.0 0.1135396352
H  H207  1  0.11705000  0.43023000  0.03353000  1.0 0.1135396352
H  H208  1  0.56977000  0.03353000  0.88295000  1.0 0.1135396352
H  H209  1  0.56977000  0.96647000  0.11705000  1.0 0.1135396352
H  H210  1  0.88295000  0.56977000  0.03353000  1.0 0.1135396352
H  H211  1  0.88295000  0.96647000  0.56977000  1.0 0.1135396352
H  H212  1  0.11705000  0.03353000  0.56977000  1.0 0.1135396352
H  H213  1  0.03353000  0.43023000  0.88295000  1.0 0.1135396352
H  H214  1  0.03353000  0.56977000  0.11705000  1.0 0.1135396352
H  H215  1  0.43023000  0.11705000  0.96647000  1.0 0.1135396352
H  H216  1  0.56977000  0.11705000  0.03353000  1.0 0.1135396352
H  H217  1  0.89500000  0.89096000  0.31785000  1.0 0.121218544
H  H218  1  0.10904000  0.89500000  0.31785000  1.0 0.131858302
H  H219  1  0.10500000  0.10904000  0.31785000  1.0 0.131858302
H  H220  1  0.89096000  0.10500000  0.31785000  1.0 0.121218544
H  H221  1  0.89500000  0.68215000  0.89096000  1.0 0.121218544
H  H222  1  0.89500000  0.10904000  0.68215000  1.0 0.121218544
H  H223  1  0.89500000  0.31785000  0.10904000  1.0 0.121218544
H  H224  1  0.31785000  0.89096000  0.10500000  1.0 0.121218544
H  H225  1  0.10500000  0.89096000  0.68215000  1.0 0.121218544
H  H226  1  0.68215000  0.89096000  0.89500000  1.0 0.121218544
H  H227  1  0.31785000  0.89500000  0.89096000  1.0 0.121218544
H  H228  1  0.89096000  0.31785000  0.89500000  1.0 0.121218544
H  H229  1  0.10904000  0.68215000  0.89500000  1.0 0.121218544
H  H230  1  0.31785000  0.10500000  0.10904000  1.0 0.131858302
H  H231  1  0.10904000  0.31785000  0.10500000  1.0 0.131858302
H  H232  1  0.68215000  0.10500000  0.89096000  1.0 0.121218544
H  H233  1  0.68215000  0.89500000  0.10904000  1.0 0.121218544
H  H234  1  0.89096000  0.68215000  0.10500000  1.0 0.121218544
H  H235  1  0.89096000  0.89500000  0.68215000  1.0 0.121218544
H  H236  1  0.10904000  0.10500000  0.68215000  1.0 0.131858302
H  H237  1  0.10500000  0.31785000  0.89096000  1.0 0.131858302
H  H238  1  0.10500000  0.68215000  0.10904000  1.0 0.131858302
H  H239  1  0.31785000  0.10904000  0.89500000  1.0 0.131858302
H  H240  1  0.68215000  0.10904000  0.10500000  1.0 0.131858302
H  H241  1  0.91954000  0.80177000  0.26890000  1.0 0.121218544
H  H242  1  0.19823000  0.91954000  0.26890000  1.0 0.121218544
H  H243  1  0.08046000  0.19823000  0.26890000  1.0 0.121218544
H  H244  1  0.80177000  0.08046000  0.26890000  1.0 0.121218544
H  H245  1  0.91954000  0.73110000  0.80177000  1.0 0.121218544
H  H246  1  0.91954000  0.19823000  0.73110000  1.0 0.121218544
H  H247  1  0.91954000  0.26890000  0.19823000  1.0 0.121218544
H  H248  1  0.26890000  0.80177000  0.08046000  1.0 0.121218544
H  H249  1  0.08046000  0.80177000  0.73110000  1.0 0.121218544
H  H250  1  0.73110000  0.80177000  0.91954000  1.0 0.121218544
H  H251  1  0.26890000  0.91954000  0.80177000  1.0 0.121218544
H  H252  1  0.80177000  0.26890000  0.91954000  1.0 0.121218544
H  H253  1  0.19823000  0.73110000  0.91954000  1.0 0.121218544
H  H254  1  0.26890000  0.08046000  0.19823000  1.0 0.121218544
H  H255  1  0.19823000  0.26890000  0.08046000  1.0 0.121218544
H  H256  1  0.73110000  0.08046000  0.80177000  1.0 0.121218544
H  H257  1  0.73110000  0.91954000  0.19823000  1.0 0.121218544
H  H258  1  0.80177000  0.73110000  0.08046000  1.0 0.121218544
H  H259  1  0.80177000  0.91954000  0.73110000  1.0 0.121218544
H  H260  1  0.19823000  0.08046000  0.73110000  1.0 0.121218544
H  H261  1  0.08046000  0.26890000  0.80177000  1.0 0.121218544
H  H262  1  0.08046000  0.73110000  0.19823000  1.0 0.121218544
H  H263  1  0.26890000  0.19823000  0.91954000  1.0 0.121218544
H  H264  1  0.73110000  0.19823000  0.08046000  1.0 0.121218544
H  H265  1  0.87530000  0.82890000  0.27796000  1.0 0.131858302
H  H266  1  0.17110000  0.87530000  0.27796000  1.0 0.131858302
H  H267  1  0.12470000  0.17110000  0.27796000  1.0 0.131858302
H  H268  1  0.82890000  0.12470000  0.27796000  1.0 0.131858302
H  H269  1  0.87530000  0.72204000  0.82890000  1.0 0.131858302
H  H270  1  0.87530000  0.17110000  0.72204000  1.0 0.131858302
H  H271  1  0.87530000  0.27796000  0.17110000  1.0 0.131858302
H  H272  1  0.27796000  0.82890000  0.12470000  1.0 0.131858302
H  H273  1  0.12470000  0.82890000  0.72204000  1.0 0.131858302
H  H274  1  0.72204000  0.82890000  0.87530000  1.0 0.131858302
H  H275  1  0.27796000  0.87530000  0.82890000  1.0 0.131858302
H  H276  1  0.82890000  0.27796000  0.87530000  1.0 0.131858302
H  H277  1  0.17110000  0.72204000  0.87530000  1.0 0.131858302
H  H278  1  0.27796000  0.12470000  0.17110000  1.0 0.131858302
H  H279  1  0.17110000  0.27796000  0.12470000  1.0 0.131858302
H  H280  1  0.72204000  0.12470000  0.82890000  1.0 0.131858302
H  H281  1  0.72204000  0.87530000  0.17110000  1.0 0.131858302
H  H282  1  0.82890000  0.72204000  0.12470000  1.0 0.131858302
H  H283  1  0.82890000  0.87530000  0.72204000  1.0 0.131858302
H  H284  1  0.17110000  0.12470000  0.72204000  1.0 0.131858302
H  H285  1  0.12470000  0.27796000  0.82890000  1.0 0.131858302
H  H286  1  0.12470000  0.72204000  0.17110000  1.0 0.131858302
H  H287  1  0.27796000  0.17110000  0.87530000  1.0 0.131858302
H  H288  1  0.72204000  0.17110000  0.12470000  1.0 0.131858302
H  H289  1  0.88174000  0.78114000  0.29924000  1.0 0.121218544
H  H290  1  0.21886000  0.88174000  0.29924000  1.0 0.121218544
H  H291  1  0.11826000  0.21886000  0.29924000  1.0 0.121218544
H  H292  1  0.78114000  0.11826000  0.29924000  1.0 0.121218544
H  H293  1  0.88174000  0.70076000  0.78114000  1.0 0.121218544
H  H294  1  0.88174000  0.21886000  0.70076000  1.0 0.121218544
H  H295  1  0.88174000  0.29924000  0.21886000  1.0 0.121218544
H  H296  1  0.29924000  0.78114000  0.11826000  1.0 0.121218544
H  H297  1  0.11826000  0.78114000  0.70076000  1.0 0.121218544
H  H298  1  0.70076000  0.78114000  0.88174000  1.0 0.121218544
H  H299  1  0.29924000  0.88174000  0.78114000  1.0 0.121218544
H  H300  1  0.78114000  0.29924000  0.88174000  1.0 0.121218544
H  H301  1  0.21886000  0.70076000  0.88174000  1.0 0.121218544
H  H302  1  0.29924000  0.11826000  0.21886000  1.0 0.121218544
H  H303  1  0.21886000  0.29924000  0.11826000  1.0 0.121218544
H  H304  1  0.70076000  0.11826000  0.78114000  1.0 0.121218544
H  H305  1  0.70076000  0.88174000  0.21886000  1.0 0.121218544
H  H306  1  0.78114000  0.70076000  0.11826000  1.0 0.121218544
H  H307  1  0.78114000  0.88174000  0.70076000  1.0 0.121218544
H  H308  1  0.21886000  0.11826000  0.70076000  1.0 0.121218544
H  H309  1  0.11826000  0.29924000  0.78114000  1.0 0.121218544
H  H310  1  0.11826000  0.70076000  0.21886000  1.0 0.121218544
H  H311  1  0.29924000  0.21886000  0.88174000  1.0 0.121218544
H  H312  1  0.70076000  0.21886000  0.11826000  1.0 0.121218544
H  H313  1  0.98898000  0.76877000  0.42331000  1.0 0.131858302
H  H314  1  0.23123000  0.98898000  0.42331000  1.0 0.131858302
H  H315  1  0.01102000  0.23123000  0.42331000  1.0 0.131858302
H  H316  1  0.76877000  0.01102000  0.42331000  1.0 0.131858302
H  H317  1  0.98898000  0.57669000  0.76877000  1.0 0.131858302
H  H318  1  0.98898000  0.23123000  0.57669000  1.0 0.131858302
H  H319  1  0.98898000  0.42331000  0.23123000  1.0 0.131858302
H  H320  1  0.42331000  0.76877000  0.01102000  1.0 0.131858302
H  H321  1  0.01102000  0.76877000  0.57669000  1.0 0.131858302
H  H322  1  0.57669000  0.76877000  0.98898000  1.0 0.131858302
H  H323  1  0.42331000  0.98898000  0.76877000  1.0 0.131858302
H  H324  1  0.76877000  0.42331000  0.98898000  1.0 0.131858302
H  H325  1  0.23123000  0.57669000  0.98898000  1.0 0.131858302
H  H326  1  0.42331000  0.01102000  0.23123000  1.0 0.131858302
H  H327  1  0.23123000  0.42331000  0.01102000  1.0 0.131858302
H  H328  1  0.57669000  0.01102000  0.76877000  1.0 0.131858302
H  H329  1  0.57669000  0.98898000  0.23123000  1.0 0.131858302
H  H330  1  0.76877000  0.57669000  0.01102000  1.0 0.131858302
H  H331  1  0.76877000  0.98898000  0.57669000  1.0 0.131858302
H  H332  1  0.23123000  0.01102000  0.57669000  1.0 0.131858302
H  H333  1  0.01102000  0.42331000  0.76877000  1.0 0.131858302
H  H334  1  0.01102000  0.57669000  0.23123000  1.0 0.131858302
H  H335  1  0.42331000  0.23123000  0.98898000  1.0 0.131858302
H  H336  1  0.57669000  0.23123000  0.01102000  1.0 0.131858302
H  H337  1  0.01650000  0.81252000  0.43350000  1.0 0.131858302
H  H338  1  0.18748000  0.01650000  0.43350000  1.0 0.131858302
H  H339  1  0.98350000  0.18748000  0.43350000  1.0 0.131858302
H  H340  1  0.81252000  0.98350000  0.43350000  1.0 0.131858302
H  H341  1  0.01650000  0.56650000  0.81252000  1.0 0.131858302
H  H342  1  0.01650000  0.18748000  0.56650000  1.0 0.131858302
H  H343  1  0.01650000  0.43350000  0.18748000  1.0 0.131858302
H  H344  1  0.43350000  0.81252000  0.98350000  1.0 0.131858302
H  H345  1  0.98350000  0.81252000  0.56650000  1.0 0.131858302
H  H346  1  0.56650000  0.81252000  0.01650000  1.0 0.131858302
H  H347  1  0.43350000  0.01650000  0.81252000  1.0 0.131858302
H  H348  1  0.81252000  0.43350000  0.01650000  1.0 0.131858302
H  H349  1  0.18748000  0.56650000  0.01650000  1.0 0.131858302
H  H350  1  0.43350000  0.98350000  0.18748000  1.0 0.131858302
H  H351  1  0.18748000  0.43350000  0.98350000  1.0 0.131858302
H  H352  1  0.56650000  0.98350000  0.81252000  1.0 0.131858302
H  H353  1  0.56650000  0.01650000  0.18748000  1.0 0.131858302
H  H354  1  0.81252000  0.56650000  0.98350000  1.0 0.131858302
H  H355  1  0.81252000  0.01650000  0.56650000  1.0 0.131858302
H  H356  1  0.18748000  0.98350000  0.56650000  1.0 0.131858302
H  H357  1  0.98350000  0.43350000  0.81252000  1.0 0.131858302
H  H358  1  0.98350000  0.56650000  0.18748000  1.0 0.131858302
H  H359  1  0.43350000  0.18748000  0.01650000  1.0 0.131858302
H  H360  1  0.56650000  0.18748000  0.98350000  1.0 0.131858302
H  H361  1  0.97250000  0.80217000  0.46057000  1.0 0.131858302
H  H362  1  0.19783000  0.97250000  0.46057000  1.0 0.131858302
H  H363  1  0.02750000  0.19783000  0.46057000  1.0 0.131858302
H  H364  1  0.80217000  0.02750000  0.46057000  1.0 0.131858302
H  H365  1  0.97250000  0.53943000  0.80217000  1.0 0.131858302
H  H366  1  0.97250000  0.19783000  0.53943000  1.0 0.131858302
H  H367  1  0.97250000  0.46057000  0.19783000  1.0 0.131858302
H  H368  1  0.46057000  0.80217000  0.02750000  1.0 0.131858302
H  H369  1  0.02750000  0.80217000  0.53943000  1.0 0.131858302
H  H370  1  0.53943000  0.80217000  0.97250000  1.0 0.131858302
H  H371  1  0.46057000  0.97250000  0.80217000  1.0 0.131858302
H  H372  1  0.80217000  0.46057000  0.97250000  1.0 0.131858302
H  H373  1  0.19783000  0.53943000  0.97250000  1.0 0.131858302
H  H374  1  0.46057000  0.02750000  0.19783000  1.0 0.131858302
H  H375  1  0.19783000  0.46057000  0.02750000  1.0 0.131858302
H  H376  1  0.53943000  0.02750000  0.80217000  1.0 0.131858302
H  H377  1  0.53943000  0.97250000  0.19783000  1.0 0.131858302
H  H378  1  0.80217000  0.53943000  0.02750000  1.0 0.131858302
H  H379  1  0.80217000  0.97250000  0.53943000  1.0 0.131858302
H  H380  1  0.19783000  0.02750000  0.53943000  1.0 0.131858302
H  H381  1  0.02750000  0.46057000  0.80217000  1.0 0.131858302
H  H382  1  0.02750000  0.53943000  0.19783000  1.0 0.131858302
H  H383  1  0.46057000  0.19783000  0.97250000  1.0 0.131858302
H  H384  1  0.53943000  0.19783000  0.02750000  1.0 0.131858302
H  H385  1  0.94023000  0.95321000  0.40948000  1.0 0.121218544
H  H386  1  0.04679000  0.94023000  0.40948000  1.0 0.121218544
H  H387  1  0.05977000  0.04679000  0.40948000  1.0 0.121218544
H  H388  1  0.95321000  0.05977000  0.40948000  1.0 0.121218544
H  H389  1  0.94023000  0.59052000  0.95321000  1.0 0.121218544
H  H390  1  0.94023000  0.04679000  0.59052000  1.0 0.121218544
H  H391  1  0.94023000  0.40948000  0.04679000  1.0 0.121218544
H  H392  1  0.40948000  0.95321000  0.05977000  1.0 0.121218544
H  H393  1  0.05977000  0.95321000  0.59052000  1.0 0.121218544
H  H394  1  0.59052000  0.95321000  0.94023000  1.0 0.121218544
H  H395  1  0.40948000  0.94023000  0.95321000  1.0 0.121218544
H  H396  1  0.95321000  0.40948000  0.94023000  1.0 0.121218544
H  H397  1  0.04679000  0.59052000  0.94023000  1.0 0.121218544
H  H398  1  0.40948000  0.05977000  0.04679000  1.0 0.121218544
H  H399  1  0.04679000  0.40948000  0.05977000  1.0 0.121218544
H  H400  1  0.59052000  0.05977000  0.95321000  1.0 0.121218544
H  H401  1  0.59052000  0.94023000  0.04679000  1.0 0.121218544
H  H402  1  0.95321000  0.59052000  0.05977000  1.0 0.121218544
H  H403  1  0.95321000  0.94023000  0.59052000  1.0 0.121218544
H  H404  1  0.04679000  0.05977000  0.59052000  1.0 0.121218544
H  H405  1  0.05977000  0.40948000  0.95321000  1.0 0.121218544
H  H406  1  0.05977000  0.59052000  0.04679000  1.0 0.121218544
H  H407  1  0.40948000  0.04679000  0.94023000  1.0 0.121218544
H  H408  1  0.59052000  0.04679000  0.05977000  1.0 0.121218544
H  H409  1  0.93971000  0.96013000  0.35725000  1.0 0.131858302
H  H410  1  0.03987000  0.93971000  0.35725000  1.0 0.131858302
H  H411  1  0.06029000  0.03987000  0.35725000  1.0 0.131858302
H  H412  1  0.96013000  0.06029000  0.35725000  1.0 0.131858302
H  H413  1  0.93971000  0.64275000  0.96013000  1.0 0.131858302
H  H414  1  0.93971000  0.03987000  0.64275000  1.0 0.131858302
H  H415  1  0.93971000  0.35725000  0.03987000  1.0 0.131858302
H  H416  1  0.35725000  0.96013000  0.06029000  1.0 0.131858302
H  H417  1  0.06029000  0.96013000  0.64275000  1.0 0.131858302
H  H418  1  0.64275000  0.96013000  0.93971000  1.0 0.131858302
H  H419  1  0.35725000  0.93971000  0.96013000  1.0 0.131858302
H  H420  1  0.96013000  0.35725000  0.93971000  1.0 0.131858302
H  H421  1  0.03987000  0.64275000  0.93971000  1.0 0.131858302
H  H422  1  0.35725000  0.06029000  0.03987000  1.0 0.131858302
H  H423  1  0.03987000  0.35725000  0.06029000  1.0 0.131858302
H  H424  1  0.64275000  0.06029000  0.96013000  1.0 0.131858302
H  H425  1  0.64275000  0.93971000  0.03987000  1.0 0.131858302
H  H426  1  0.96013000  0.64275000  0.06029000  1.0 0.131858302
H  H427  1  0.96013000  0.93971000  0.64275000  1.0 0.131858302
H  H428  1  0.03987000  0.06029000  0.64275000  1.0 0.131858302
H  H429  1  0.06029000  0.35725000  0.96013000  1.0 0.131858302
H  H430  1  0.06029000  0.64275000  0.03987000  1.0 0.131858302
H  H431  1  0.35725000  0.03987000  0.93971000  1.0 0.131858302
H  H432  1  0.64275000  0.03987000  0.06029000  1.0 0.131858302
H  H433  1  0.89449000  0.95301000  0.38334000  1.0 0.131858302
H  H434  1  0.04699000  0.89449000  0.38334000  1.0 0.131858302
H  H435  1  0.10551000  0.04699000  0.38334000  1.0 0.131858302
H  H436  1  0.95301000  0.10551000  0.38334000  1.0 0.131858302
H  H437  1  0.89449000  0.61666000  0.95301000  1.0 0.131858302
H  H438  1  0.89449000  0.04699000  0.61666000  1.0 0.131858302
H  H439  1  0.89449000  0.38334000  0.04699000  1.0 0.131858302
H  H440  1  0.38334000  0.95301000  0.10551000  1.0 0.131858302
H  H441  1  0.10551000  0.95301000  0.61666000  1.0 0.131858302
H  H442  1  0.61666000  0.95301000  0.89449000  1.0 0.131858302
H  H443  1  0.38334000  0.89449000  0.95301000  1.0 0.131858302
H  H444  1  0.95301000  0.38334000  0.89449000  1.0 0.131858302
H  H445  1  0.04699000  0.61666000  0.89449000  1.0 0.131858302
H  H446  1  0.38334000  0.10551000  0.04699000  1.0 0.131858302
H  H447  1  0.04699000  0.38334000  0.10551000  1.0 0.131858302
H  H448  1  0.61666000  0.10551000  0.95301000  1.0 0.131858302
H  H449  1  0.61666000  0.89449000  0.04699000  1.0 0.131858302
H  H450  1  0.95301000  0.61666000  0.10551000  1.0 0.131858302
H  H451  1  0.95301000  0.89449000  0.61666000  1.0 0.131858302
H  H452  1  0.04699000  0.10551000  0.61666000  1.0 0.131858302
H  H453  1  0.10551000  0.38334000  0.95301000  1.0 0.131858302
H  H454  1  0.10551000  0.61666000  0.04699000  1.0 0.131858302
H  H455  1  0.38334000  0.04699000  0.89449000  1.0 0.131858302
H  H456  1  0.61666000  0.04699000  0.10551000  1.0 0.131858302
C  C1  1  0.83410000  0.56400000  0.44710000  1.0 0.5839976386
C  C2  1  0.43600000  0.83410000  0.44710000  1.0 0.5839976386
C  C3  1  0.16590000  0.43600000  0.44710000  1.0 0.5839976386
C  C4  1  0.56400000  0.16590000  0.44710000  1.0 0.5839976386
C  C5  1  0.83410000  0.55290000  0.56400000  1.0 0.5839976386
C  C6  1  0.83410000  0.43600000  0.55290000  1.0 0.5839976386
C  C7  1  0.83410000  0.44710000  0.43600000  1.0 0.5839976386
C  C8  1  0.44710000  0.56400000  0.16590000  1.0 0.5839976386
C  C9  1  0.16590000  0.56400000  0.55290000  1.0 0.5839976386
C  C10  1  0.55290000  0.56400000  0.83410000  1.0 0.5839976386
C  C11  1  0.44710000  0.83410000  0.56400000  1.0 0.5839976386
C  C12  1  0.56400000  0.44710000  0.83410000  1.0 0.5839976386
C  C13  1  0.43600000  0.55290000  0.83410000  1.0 0.5839976386
C  C14  1  0.44710000  0.16590000  0.43600000  1.0 0.5839976386
C  C15  1  0.43600000  0.44710000  0.16590000  1.0 0.5839976386
C  C16  1  0.55290000  0.16590000  0.56400000  1.0 0.5839976386
C  C17  1  0.55290000  0.83410000  0.43600000  1.0 0.5839976386
C  C18  1  0.56400000  0.55290000  0.16590000  1.0 0.5839976386
C  C19  1  0.56400000  0.83410000  0.55290000  1.0 0.5839976386
C  C20  1  0.43600000  0.16590000  0.55290000  1.0 0.5839976386
C  C21  1  0.16590000  0.44710000  0.56400000  1.0 0.5839976386
C  C22  1  0.16590000  0.55290000  0.43600000  1.0 0.5839976386
C  C23  1  0.44710000  0.43600000  0.83410000  1.0 0.5839976386
C  C24  1  0.55290000  0.43600000  0.16590000  1.0 0.5839976386
C  C25  1  0.83380000  0.60330000  0.41520000  1.0 -0.0082088634
C  C26  1  0.39670000  0.83380000  0.41520000  1.0 -0.0082088634
C  C27  1  0.16620000  0.39670000  0.41520000  1.0 -0.0082088634
C  C28  1  0.60330000  0.16620000  0.41520000  1.0 -0.0082088634
C  C29  1  0.83380000  0.58480000  0.60330000  1.0 -0.0082088634
C  C30  1  0.83380000  0.39670000  0.58480000  1.0 -0.0082088634
C  C31  1  0.83380000  0.41520000  0.39670000  1.0 -0.0082088634
C  C32  1  0.41520000  0.60330000  0.16620000  1.0 -0.0082088634
C  C33  1  0.16620000  0.60330000  0.58480000  1.0 -0.0082088634
C  C34  1  0.58480000  0.60330000  0.83380000  1.0 -0.0082088634
C  C35  1  0.41520000  0.83380000  0.60330000  1.0 -0.0082088634
C  C36  1  0.60330000  0.41520000  0.83380000  1.0 -0.0082088634
C  C37  1  0.39670000  0.58480000  0.83380000  1.0 -0.0082088634
C  C38  1  0.41520000  0.16620000  0.39670000  1.0 -0.0082088634
C  C39  1  0.39670000  0.41520000  0.16620000  1.0 -0.0082088634
C  C40  1  0.58480000  0.16620000  0.60330000  1.0 -0.0082088634
C  C41  1  0.58480000  0.83380000  0.39670000  1.0 -0.0082088634
C  C42  1  0.60330000  0.58480000  0.16620000  1.0 -0.0082088634
C  C43  1  0.60330000  0.83380000  0.58480000  1.0 -0.0082088634
C  C44  1  0.39670000  0.16620000  0.58480000  1.0 -0.0082088634
C  C45  1  0.16620000  0.41520000  0.60330000  1.0 -0.0082088634
C  C46  1  0.16620000  0.58480000  0.39670000  1.0 -0.0082088634
C  C47  1  0.41520000  0.39670000  0.83380000  1.0 -0.0082088634
C  C48  1  0.58480000  0.39670000  0.16620000  1.0 -0.0082088634
C  C49  1  0.79300000  0.61820000  0.40080000  1.0 -0.1135411421
C  C50  1  0.38180000  0.79300000  0.40080000  1.0 -0.1135411421
C  C51  1  0.20700000  0.38180000  0.40080000  1.0 -0.1135411421
C  C52  1  0.61820000  0.20700000  0.40080000  1.0 -0.1135411421
C  C53  1  0.79300000  0.59920000  0.61820000  1.0 -0.1135411421
C  C54  1  0.79300000  0.38180000  0.59920000  1.0 -0.1135411421
C  C55  1  0.79300000  0.40080000  0.38180000  1.0 -0.1135411421
C  C56  1  0.40080000  0.61820000  0.20700000  1.0 -0.1135411421
C  C57  1  0.20700000  0.61820000  0.59920000  1.0 -0.1135411421
C  C58  1  0.59920000  0.61820000  0.79300000  1.0 -0.1135411421
C  C59  1  0.40080000  0.79300000  0.61820000  1.0 -0.1135411421
C  C60  1  0.61820000  0.40080000  0.79300000  1.0 -0.1135411421
C  C61  1  0.38180000  0.59920000  0.79300000  1.0 -0.1135411421
C  C62  1  0.40080000  0.20700000  0.38180000  1.0 -0.1135411421
C  C63  1  0.38180000  0.40080000  0.20700000  1.0 -0.1135411421
C  C64  1  0.59920000  0.20700000  0.61820000  1.0 -0.1135411421
C  C65  1  0.59920000  0.79300000  0.38180000  1.0 -0.1135411421
C  C66  1  0.61820000  0.59920000  0.20700000  1.0 -0.1135411421
C  C67  1  0.61820000  0.79300000  0.59920000  1.0 -0.1135411421
C  C68  1  0.38180000  0.20700000  0.59920000  1.0 -0.1135411421
C  C69  1  0.20700000  0.40080000  0.61820000  1.0 -0.1135411421
C  C70  1  0.20700000  0.59920000  0.38180000  1.0 -0.1135411421
C  C71  1  0.40080000  0.38180000  0.79300000  1.0 -0.1135411421
C  C72  1  0.59920000  0.38180000  0.20700000  1.0 -0.1135411421
C  C73  1  0.79030000  0.65470000  0.37340000  1.0 -0.0283069051
C  C74  1  0.34530000  0.79030000  0.37340000  1.0 -0.0283069051
C  C75  1  0.20970000  0.34530000  0.37340000  1.0 -0.0283069051
C  C76  1  0.65470000  0.20970000  0.37340000  1.0 -0.0283069051
C  C77  1  0.79030000  0.62660000  0.65470000  1.0 -0.0283069051
C  C78  1  0.79030000  0.34530000  0.62660000  1.0 -0.0283069051
C  C79  1  0.79030000  0.37340000  0.34530000  1.0 -0.0283069051
C  C80  1  0.37340000  0.65470000  0.20970000  1.0 -0.0283069051
C  C81  1  0.20970000  0.65470000  0.62660000  1.0 -0.0283069051
C  C82  1  0.62660000  0.65470000  0.79030000  1.0 -0.0283069051
C  C83  1  0.37340000  0.79030000  0.65470000  1.0 -0.0283069051
C  C84  1  0.65470000  0.37340000  0.79030000  1.0 -0.0283069051
C  C85  1  0.34530000  0.62660000  0.79030000  1.0 -0.0283069051
C  C86  1  0.37340000  0.20970000  0.34530000  1.0 -0.0283069051
C  C87  1  0.34530000  0.37340000  0.20970000  1.0 -0.0283069051
C  C88  1  0.62660000  0.20970000  0.65470000  1.0 -0.0283069051
C  C89  1  0.62660000  0.79030000  0.34530000  1.0 -0.0283069051
C  C90  1  0.65470000  0.62660000  0.20970000  1.0 -0.0283069051
C  C91  1  0.65470000  0.79030000  0.62660000  1.0 -0.0283069051
C  C92  1  0.34530000  0.20970000  0.62660000  1.0 -0.0283069051
C  C93  1  0.20970000  0.37340000  0.65470000  1.0 -0.0283069051
C  C94  1  0.20970000  0.62660000  0.34530000  1.0 -0.0283069051
C  C95  1  0.37340000  0.34530000  0.79030000  1.0 -0.0283069051
C  C96  1  0.62660000  0.34530000  0.20970000  1.0 -0.0283069051
C  C97  1  0.82850000  0.67640000  0.36040000  1.0 -0.1515104038
C  C98  1  0.32360000  0.82850000  0.36040000  1.0 -0.1515104038
C  C99  1  0.17150000  0.32360000  0.36040000  1.0 -0.1515104038
C  C100  1  0.67640000  0.17150000  0.36040000  1.0 -0.1515104038
C  C101  1  0.82850000  0.63960000  0.67640000  1.0 -0.1515104038
C  C102  1  0.82850000  0.32360000  0.63960000  1.0 -0.1515104038
C  C103  1  0.82850000  0.36040000  0.32360000  1.0 -0.1515104038
C  C104  1  0.36040000  0.67640000  0.17150000  1.0 -0.1515104038
C  C105  1  0.17150000  0.67640000  0.63960000  1.0 -0.1515104038
C  C106  1  0.63960000  0.67640000  0.82850000  1.0 -0.1515104038
C  C107  1  0.36040000  0.82850000  0.67640000  1.0 -0.1515104038
C  C108  1  0.67640000  0.36040000  0.82850000  1.0 -0.1515104038
C  C109  1  0.32360000  0.63960000  0.82850000  1.0 -0.1515104038
C  C110  1  0.36040000  0.17150000  0.32360000  1.0 -0.1515104038
C  C111  1  0.32360000  0.36040000  0.17150000  1.0 -0.1515104038
C  C112  1  0.63960000  0.17150000  0.67640000  1.0 -0.1515104038
C  C113  1  0.63960000  0.82850000  0.32360000  1.0 -0.1515104038
C  C114  1  0.67640000  0.63960000  0.17150000  1.0 -0.1515104038
C  C115  1  0.67640000  0.82850000  0.63960000  1.0 -0.1515104038
C  C116  1  0.32360000  0.17150000  0.63960000  1.0 -0.1515104038
C  C117  1  0.17150000  0.36040000  0.67640000  1.0 -0.1515104038
C  C118  1  0.17150000  0.63960000  0.32360000  1.0 -0.1515104038
C  C119  1  0.36040000  0.32360000  0.82850000  1.0 -0.1515104038
C  C120  1  0.63960000  0.32360000  0.17150000  1.0 -0.1515104038
C  C121  1  0.86930000  0.66160000  0.37490000  1.0 0.0871265453
C  C122  1  0.33840000  0.86930000  0.37490000  1.0 0.0871265453
C  C123  1  0.13070000  0.33840000  0.37490000  1.0 0.0871265453
C  C124  1  0.66160000  0.13070000  0.37490000  1.0 0.0871265453
C  C125  1  0.86930000  0.62510000  0.66160000  1.0 0.0871265453
C  C126  1  0.86930000  0.33840000  0.62510000  1.0 0.0871265453
C  C127  1  0.86930000  0.37490000  0.33840000  1.0 0.0871265453
C  C128  1  0.37490000  0.66160000  0.13070000  1.0 0.0871265453
C  C129  1  0.13070000  0.66160000  0.62510000  1.0 0.0871265453
C  C130  1  0.62510000  0.66160000  0.86930000  1.0 0.0871265453
C  C131  1  0.37490000  0.86930000  0.66160000  1.0 0.0871265453
C  C132  1  0.66160000  0.37490000  0.86930000  1.0 0.0871265453
C  C133  1  0.33840000  0.62510000  0.86930000  1.0 0.0871265453
C  C134  1  0.37490000  0.13070000  0.33840000  1.0 0.0871265453
C  C135  1  0.33840000  0.37490000  0.13070000  1.0 0.0871265453
C  C136  1  0.62510000  0.13070000  0.66160000  1.0 0.0871265453
C  C137  1  0.62510000  0.86930000  0.33840000  1.0 0.0871265453
C  C138  1  0.66160000  0.62510000  0.13070000  1.0 0.0871265453
C  C139  1  0.66160000  0.86930000  0.62510000  1.0 0.0871265453
C  C140  1  0.33840000  0.13070000  0.62510000  1.0 0.0871265453
C  C141  1  0.13070000  0.37490000  0.66160000  1.0 0.0871265453
C  C142  1  0.13070000  0.62510000  0.33840000  1.0 0.0871265453
C  C143  1  0.37490000  0.33840000  0.86930000  1.0 0.0871265453
C  C144  1  0.62510000  0.33840000  0.13070000  1.0 0.0871265453
C  C145  1  0.87190000  0.62500000  0.40230000  1.0 -0.1515104038
C  C146  1  0.37500000  0.87190000  0.40230000  1.0 -0.1515104038
C  C147  1  0.12810000  0.37500000  0.40230000  1.0 -0.1515104038
C  C148  1  0.62500000  0.12810000  0.40230000  1.0 -0.1515104038
C  C149  1  0.87190000  0.59770000  0.62500000  1.0 -0.1515104038
C  C150  1  0.87190000  0.37500000  0.59770000  1.0 -0.1515104038
C  C151  1  0.87190000  0.40230000  0.37500000  1.0 -0.1515104038
C  C152  1  0.40230000  0.62500000  0.12810000  1.0 -0.1515104038
C  C153  1  0.12810000  0.62500000  0.59770000  1.0 -0.1515104038
C  C154  1  0.59770000  0.62500000  0.87190000  1.0 -0.1515104038
C  C155  1  0.40230000  0.87190000  0.62500000  1.0 -0.1515104038
C  C156  1  0.62500000  0.40230000  0.87190000  1.0 -0.1515104038
C  C157  1  0.37500000  0.59770000  0.87190000  1.0 -0.1515104038
C  C158  1  0.40230000  0.12810000  0.37500000  1.0 -0.1515104038
C  C159  1  0.37500000  0.40230000  0.12810000  1.0 -0.1515104038
C  C160  1  0.59770000  0.12810000  0.62500000  1.0 -0.1515104038
C  C161  1  0.59770000  0.87190000  0.37500000  1.0 -0.1515104038
C  C162  1  0.62500000  0.59770000  0.12810000  1.0 -0.1515104038
C  C163  1  0.62500000  0.87190000  0.59770000  1.0 -0.1515104038
C  C164  1  0.37500000  0.12810000  0.59770000  1.0 -0.1515104038
C  C165  1  0.12810000  0.40230000  0.62500000  1.0 -0.1515104038
C  C166  1  0.12810000  0.59770000  0.37500000  1.0 -0.1515104038
C  C167  1  0.40230000  0.37500000  0.87190000  1.0 -0.1515104038
C  C168  1  0.59770000  0.37500000  0.12810000  1.0 -0.1515104038
C  C169  1  0.74660000  0.66870000  0.35620000  1.0 0.6149539268
C  C170  1  0.33130000  0.74660000  0.35620000  1.0 0.6149539268
C  C171  1  0.25340000  0.33130000  0.35620000  1.0 0.6149539268
C  C172  1  0.66870000  0.25340000  0.35620000  1.0 0.6149539268
C  C173  1  0.74660000  0.64380000  0.66870000  1.0 0.6155542052
C  C174  1  0.74660000  0.33130000  0.64380000  1.0 0.6149539268
C  C175  1  0.74660000  0.35620000  0.33130000  1.0 0.6149539268
C  C176  1  0.35620000  0.66870000  0.25340000  1.0 0.6149539268
C  C177  1  0.25340000  0.66870000  0.64380000  1.0 0.6155542052
C  C178  1  0.64380000  0.66870000  0.74660000  1.0 0.6155542052
C  C179  1  0.35620000  0.74660000  0.66870000  1.0 0.6149539268
C  C180  1  0.66870000  0.35620000  0.74660000  1.0 0.6149539268
C  C181  1  0.33130000  0.64380000  0.74660000  1.0 0.6149539268
C  C182  1  0.35620000  0.25340000  0.33130000  1.0 0.6149539268
C  C183  1  0.33130000  0.35620000  0.25340000  1.0 0.6149539268
C  C184  1  0.64380000  0.25340000  0.66870000  1.0 0.6155542052
C  C185  1  0.64380000  0.74660000  0.33130000  1.0 0.6149539268
C  C186  1  0.66870000  0.64380000  0.25340000  1.0 0.6155542052
C  C187  1  0.66870000  0.74660000  0.64380000  1.0 0.6155542052
C  C188  1  0.33130000  0.25340000  0.64380000  1.0 0.6149539268
C  C189  1  0.25340000  0.35620000  0.66870000  1.0 0.6149539268
C  C190  1  0.25340000  0.64380000  0.33130000  1.0 0.6149539268
C  C191  1  0.35620000  0.33130000  0.74660000  1.0 0.6149539268
C  C192  1  0.64380000  0.33130000  0.25340000  1.0 0.6149539268
C  C193  1  0.90890000  0.68730000  0.35960000  1.0 -0.0003016497
C  C194  1  0.31270000  0.90890000  0.35960000  1.0 -0.0003016497
C  C195  1  0.09110000  0.31270000  0.35960000  1.0 -0.0003016497
C  C196  1  0.68730000  0.09110000  0.35960000  1.0 -0.0003016497
C  C197  1  0.90890000  0.64040000  0.68730000  1.0 -0.0003016497
C  C198  1  0.90890000  0.31270000  0.64040000  1.0 -0.0003016497
C  C199  1  0.90890000  0.35960000  0.31270000  1.0 -0.0003016497
C  C200  1  0.35960000  0.68730000  0.09110000  1.0 -0.0003016497
C  C201  1  0.09110000  0.68730000  0.64040000  1.0 -0.0003016497
C  C202  1  0.64040000  0.68730000  0.90890000  1.0 -0.0003016497
C  C203  1  0.35960000  0.90890000  0.68730000  1.0 -0.0003016497
C  C204  1  0.68730000  0.35960000  0.90890000  1.0 -0.0003016497
C  C205  1  0.31270000  0.64040000  0.90890000  1.0 -0.0003016497
C  C206  1  0.35960000  0.09110000  0.31270000  1.0 -0.0003016497
C  C207  1  0.31270000  0.35960000  0.09110000  1.0 -0.0003016497
C  C208  1  0.64040000  0.09110000  0.68730000  1.0 -0.0003016497
C  C209  1  0.64040000  0.90890000  0.31270000  1.0 -0.0003016497
C  C210  1  0.68730000  0.64040000  0.09110000  1.0 -0.0003016497
C  C211  1  0.68730000  0.90890000  0.64040000  1.0 -0.0003016497
C  C212  1  0.31270000  0.09110000  0.64040000  1.0 -0.0003016497
C  C213  1  0.09110000  0.35960000  0.68730000  1.0 -0.0003016497
C  C214  1  0.09110000  0.64040000  0.31270000  1.0 -0.0003016497
C  C215  1  0.35960000  0.31270000  0.90890000  1.0 -0.0003016497
C  C216  1  0.64040000  0.31270000  0.09110000  1.0 -0.0003016497
C  C217  1  0.94580000  0.66810000  0.34040000  1.0 0.0871265453
C  C218  1  0.33190000  0.94580000  0.34040000  1.0 0.0871265453
C  C219  1  0.05420000  0.33190000  0.34040000  1.0 0.0871265453
C  C220  1  0.66810000  0.05420000  0.34040000  1.0 0.0871265453
C  C221  1  0.94580000  0.65960000  0.66810000  1.0 0.0871265453
C  C222  1  0.94580000  0.33190000  0.65960000  1.0 0.0871265453
C  C223  1  0.94580000  0.34040000  0.33190000  1.0 0.0871265453
C  C224  1  0.34040000  0.66810000  0.05420000  1.0 0.0871265453
C  C225  1  0.05420000  0.66810000  0.65960000  1.0 0.0871265453
C  C226  1  0.65960000  0.66810000  0.94580000  1.0 0.0871265453
C  C227  1  0.34040000  0.94580000  0.66810000  1.0 0.0871265453
C  C228  1  0.66810000  0.34040000  0.94580000  1.0 0.0871265453
C  C229  1  0.33190000  0.65960000  0.94580000  1.0 0.0871265453
C  C230  1  0.34040000  0.05420000  0.33190000  1.0 0.0871265453
C  C231  1  0.33190000  0.34040000  0.05420000  1.0 0.0871265453
C  C232  1  0.65960000  0.05420000  0.66810000  1.0 0.0871265453
C  C233  1  0.65960000  0.94580000  0.33190000  1.0 0.0871265453
C  C234  1  0.66810000  0.65960000  0.05420000  1.0 0.0871265453
C  C235  1  0.66810000  0.94580000  0.65960000  1.0 0.0871265453
C  C236  1  0.33190000  0.05420000  0.65960000  1.0 0.0871265453
C  C237  1  0.05420000  0.34040000  0.66810000  1.0 0.0871265453
C  C238  1  0.05420000  0.65960000  0.33190000  1.0 0.0871265453
C  C239  1  0.34040000  0.33190000  0.94580000  1.0 0.0871265453
C  C240  1  0.65960000  0.33190000  0.05420000  1.0 0.0871265453
C  C241  1  0.98100000  0.69410000  0.32750000  1.0 -0.0920195427
C  C242  1  0.30590000  0.98100000  0.32750000  1.0 -0.0920195427
C  C243  1  0.01900000  0.30590000  0.32750000  1.0 -0.0920195427
C  C244  1  0.69410000  0.01900000  0.32750000  1.0 -0.0920195427
C  C245  1  0.98100000  0.67250000  0.69410000  1.0 -0.0920195427
C  C246  1  0.98100000  0.30590000  0.67250000  1.0 -0.0920195427
C  C247  1  0.98100000  0.32750000  0.30590000  1.0 -0.0920195427
C  C248  1  0.32750000  0.69410000  0.01900000  1.0 -0.0920195427
C  C249  1  0.01900000  0.69410000  0.67250000  1.0 -0.0920195427
C  C250  1  0.67250000  0.69410000  0.98100000  1.0 -0.0920195427
C  C251  1  0.32750000  0.98100000  0.69410000  1.0 -0.0920195427
C  C252  1  0.69410000  0.32750000  0.98100000  1.0 -0.0920195427
C  C253  1  0.30590000  0.67250000  0.98100000  1.0 -0.0920195427
C  C254  1  0.32750000  0.01900000  0.30590000  1.0 -0.0920195427
C  C255  1  0.30590000  0.32750000  0.01900000  1.0 -0.0920195427
C  C256  1  0.67250000  0.01900000  0.69410000  1.0 -0.0920195427
C  C257  1  0.67250000  0.98100000  0.30590000  1.0 -0.0920195427
C  C258  1  0.69410000  0.67250000  0.01900000  1.0 -0.0920195427
C  C259  1  0.69410000  0.98100000  0.67250000  1.0 -0.0920195427
C  C260  1  0.30590000  0.01900000  0.67250000  1.0 -0.0920195427
C  C261  1  0.01900000  0.32750000  0.69410000  1.0 -0.0920195427
C  C262  1  0.01900000  0.67250000  0.30590000  1.0 -0.0920195427
C  C263  1  0.32750000  0.30590000  0.98100000  1.0 -0.0920195427
C  C264  1  0.67250000  0.30590000  0.01900000  1.0 -0.0920195427
C  C265  1  0.97950000  0.73940000  0.33370000  1.0 0.1611963502
C  C266  1  0.26060000  0.97950000  0.33370000  1.0 0.1611963502
C  C267  1  0.02050000  0.26060000  0.33370000  1.0 0.1611963502
C  C268  1  0.73940000  0.02050000  0.33370000  1.0 0.1611963502
C  C269  1  0.97950000  0.66630000  0.73940000  1.0 0.1611963502
C  C270  1  0.97950000  0.26060000  0.66630000  1.0 0.1611963502
C  C271  1  0.97950000  0.33370000  0.26060000  1.0 0.1611963502
C  C272  1  0.33370000  0.73940000  0.02050000  1.0 0.1611963502
C  C273  1  0.02050000  0.73940000  0.66630000  1.0 0.1611963502
C  C274  1  0.66630000  0.73940000  0.97950000  1.0 0.1611963502
C  C275  1  0.33370000  0.97950000  0.73940000  1.0 0.1611963502
C  C276  1  0.73940000  0.33370000  0.97950000  1.0 0.1611963502
C  C277  1  0.26060000  0.66630000  0.97950000  1.0 0.1611963502
C  C278  1  0.33370000  0.02050000  0.26060000  1.0 0.1611963502
C  C279  1  0.26060000  0.33370000  0.02050000  1.0 0.1611963502
C  C280  1  0.66630000  0.02050000  0.73940000  1.0 0.1611963502
C  C281  1  0.66630000  0.97950000  0.26060000  1.0 0.1611963502
C  C282  1  0.73940000  0.66630000  0.02050000  1.0 0.1611963502
C  C283  1  0.73940000  0.97950000  0.66630000  1.0 0.1611963502
C  C284  1  0.26060000  0.02050000  0.66630000  1.0 0.1611963502
C  C285  1  0.02050000  0.33370000  0.73940000  1.0 0.1611963502
C  C286  1  0.02050000  0.66630000  0.26060000  1.0 0.1611963502
C  C287  1  0.33370000  0.26060000  0.97950000  1.0 0.1611963502
C  C288  1  0.66630000  0.26060000  0.02050000  1.0 0.1611963502
C  C289  1  0.94270000  0.75870000  0.35290000  1.0 -0.0283069051
C  C290  1  0.24130000  0.94270000  0.35290000  1.0 -0.0283069051
C  C291  1  0.05730000  0.24130000  0.35290000  1.0 -0.0283069051
C  C292  1  0.75870000  0.05730000  0.35290000  1.0 -0.0283069051
C  C293  1  0.94270000  0.64710000  0.75870000  1.0 -0.0283069051
C  C294  1  0.94270000  0.24130000  0.64710000  1.0 -0.0283069051
C  C295  1  0.94270000  0.35290000  0.24130000  1.0 -0.0283069051
C  C296  1  0.35290000  0.75870000  0.05730000  1.0 -0.0283069051
C  C297  1  0.05730000  0.75870000  0.64710000  1.0 -0.0283069051
C  C298  1  0.64710000  0.75870000  0.94270000  1.0 -0.0283069051
C  C299  1  0.35290000  0.94270000  0.75870000  1.0 -0.0283069051
C  C300  1  0.75870000  0.35290000  0.94270000  1.0 -0.0283069051
C  C301  1  0.24130000  0.64710000  0.94270000  1.0 -0.0283069051
C  C302  1  0.35290000  0.05730000  0.24130000  1.0 -0.0283069051
C  C303  1  0.24130000  0.35290000  0.05730000  1.0 -0.0283069051
C  C304  1  0.64710000  0.05730000  0.75870000  1.0 -0.0283069051
C  C305  1  0.64710000  0.94270000  0.24130000  1.0 -0.0283069051
C  C306  1  0.75870000  0.64710000  0.05730000  1.0 -0.0283069051
C  C307  1  0.75870000  0.94270000  0.64710000  1.0 -0.0283069051
C  C308  1  0.24130000  0.05730000  0.64710000  1.0 -0.0283069051
C  C309  1  0.05730000  0.35290000  0.75870000  1.0 -0.0283069051
C  C310  1  0.05730000  0.64710000  0.24130000  1.0 -0.0283069051
C  C311  1  0.35290000  0.24130000  0.94270000  1.0 -0.0283069051
C  C312  1  0.64710000  0.24130000  0.05730000  1.0 -0.0283069051
C  C313  1  0.90740000  0.73260000  0.36580000  1.0 -0.1919110613
C  C314  1  0.26740000  0.90740000  0.36580000  1.0 -0.1919110613
C  C315  1  0.09260000  0.26740000  0.36580000  1.0 -0.1919110613
C  C316  1  0.73260000  0.09260000  0.36580000  1.0 -0.1919110613
C  C317  1  0.90740000  0.63420000  0.73260000  1.0 -0.1919110613
C  C318  1  0.90740000  0.26740000  0.63420000  1.0 -0.1919110613
C  C319  1  0.90740000  0.36580000  0.26740000  1.0 -0.1919110613
C  C320  1  0.36580000  0.73260000  0.09260000  1.0 -0.1919110613
C  C321  1  0.09260000  0.73260000  0.63420000  1.0 -0.1919110613
C  C322  1  0.63420000  0.73260000  0.90740000  1.0 -0.1919110613
C  C323  1  0.36580000  0.90740000  0.73260000  1.0 -0.1919110613
C  C324  1  0.73260000  0.36580000  0.90740000  1.0 -0.1919110613
C  C325  1  0.26740000  0.63420000  0.90740000  1.0 -0.1919110613
C  C326  1  0.36580000  0.09260000  0.26740000  1.0 -0.1919110613
C  C327  1  0.26740000  0.36580000  0.09260000  1.0 -0.1919110613
C  C328  1  0.63420000  0.09260000  0.73260000  1.0 -0.1919110613
C  C329  1  0.63420000  0.90740000  0.26740000  1.0 -0.1919110613
C  C330  1  0.73260000  0.63420000  0.09260000  1.0 -0.1919110613
C  C331  1  0.73260000  0.90740000  0.63420000  1.0 -0.1919110613
C  C332  1  0.26740000  0.09260000  0.63420000  1.0 -0.1919110613
C  C333  1  0.09260000  0.36580000  0.73260000  1.0 -0.1919110613
C  C334  1  0.09260000  0.63420000  0.26740000  1.0 -0.1919110613
C  C335  1  0.36580000  0.26740000  0.90740000  1.0 -0.1919110613
C  C336  1  0.63420000  0.26740000  0.09260000  1.0 -0.1919110613
C  C337  1  0.94810000  0.61900000  0.33260000  1.0 -0.4487925448
C  C338  1  0.38100000  0.94810000  0.33260000  1.0 -0.4487925448
C  C339  1  0.05190000  0.38100000  0.33260000  1.0 -0.4487925448
C  C340  1  0.61900000  0.05190000  0.33260000  1.0 -0.4487925448
C  C341  1  0.94810000  0.66740000  0.61900000  1.0 -0.4487925448
C  C342  1  0.94810000  0.38100000  0.66740000  1.0 -0.4487925448
C  C343  1  0.94810000  0.33260000  0.38100000  1.0 -0.4487925448
C  C344  1  0.33260000  0.61900000  0.05190000  1.0 -0.4487925448
C  C345  1  0.05190000  0.61900000  0.66740000  1.0 -0.4487925448
C  C346  1  0.66740000  0.61900000  0.94810000  1.0 -0.4487925448
C  C347  1  0.33260000  0.94810000  0.61900000  1.0 -0.4487925448
C  C348  1  0.61900000  0.33260000  0.94810000  1.0 -0.4487925448
C  C349  1  0.38100000  0.66740000  0.94810000  1.0 -0.4487925448
C  C350  1  0.33260000  0.05190000  0.38100000  1.0 -0.4487925448
C  C351  1  0.38100000  0.33260000  0.05190000  1.0 -0.4487925448
C  C352  1  0.66740000  0.05190000  0.61900000  1.0 -0.4487925448
C  C353  1  0.66740000  0.94810000  0.38100000  1.0 -0.4487925448
C  C354  1  0.61900000  0.66740000  0.05190000  1.0 -0.4487925448
C  C355  1  0.61900000  0.94810000  0.66740000  1.0 -0.4487925448
C  C356  1  0.38100000  0.05190000  0.66740000  1.0 -0.4487925448
C  C357  1  0.05190000  0.33260000  0.61900000  1.0 -0.4487925448
C  C358  1  0.05190000  0.66740000  0.38100000  1.0 -0.4487925448
C  C359  1  0.33260000  0.38100000  0.94810000  1.0 -0.4487925448
C  C360  1  0.66740000  0.38100000  0.05190000  1.0 -0.4487925448
C  C361  1  0.94210000  0.80450000  0.36090000  1.0 -0.0569471065
C  C362  1  0.19550000  0.94210000  0.36090000  1.0 -0.0569471065
C  C363  1  0.05790000  0.19550000  0.36090000  1.0 -0.0569471065
C  C364  1  0.80450000  0.05790000  0.36090000  1.0 -0.0569471065
C  C365  1  0.94210000  0.63910000  0.80450000  1.0 -0.0569471065
C  C366  1  0.94210000  0.19550000  0.63910000  1.0 -0.0569471065
C  C367  1  0.94210000  0.36090000  0.19550000  1.0 -0.0569471065
C  C368  1  0.36090000  0.80450000  0.05790000  1.0 -0.0569471065
C  C369  1  0.05790000  0.80450000  0.63910000  1.0 -0.0569471065
C  C370  1  0.63910000  0.80450000  0.94210000  1.0 -0.0569471065
C  C371  1  0.36090000  0.94210000  0.80450000  1.0 -0.0569471065
C  C372  1  0.80450000  0.36090000  0.94210000  1.0 -0.0569471065
C  C373  1  0.19550000  0.63910000  0.94210000  1.0 -0.0569471065
C  C374  1  0.36090000  0.05790000  0.19550000  1.0 -0.0569471065
C  C375  1  0.19550000  0.36090000  0.05790000  1.0 -0.0569471065
C  C376  1  0.63910000  0.05790000  0.80450000  1.0 -0.0569471065
C  C377  1  0.63910000  0.94210000  0.19550000  1.0 -0.0569471065
C  C378  1  0.80450000  0.63910000  0.05790000  1.0 -0.0569471065
C  C379  1  0.80450000  0.94210000  0.63910000  1.0 -0.0569471065
C  C380  1  0.19550000  0.05790000  0.63910000  1.0 -0.0569471065
C  C381  1  0.05790000  0.36090000  0.80450000  1.0 -0.0569471065
C  C382  1  0.05790000  0.63910000  0.19550000  1.0 -0.0569471065
C  C383  1  0.36090000  0.19550000  0.94210000  1.0 -0.0569471065
C  C384  1  0.63910000  0.19550000  0.05790000  1.0 -0.0569471065
C  C385  1  0.96020000  0.82450000  0.39790000  1.0 0.121218544
C  C386  1  0.17550000  0.96020000  0.39790000  1.0 0.121218544
C  C387  1  0.03980000  0.17550000  0.39790000  1.0 0.121218544
C  C388  1  0.82450000  0.03980000  0.39790000  1.0 0.121218544
C  C389  1  0.96020000  0.60210000  0.82450000  1.0 0.121218544
C  C390  1  0.96020000  0.17550000  0.60210000  1.0 0.121218544
C  C391  1  0.96020000  0.39790000  0.17550000  1.0 0.121218544
C  C392  1  0.39790000  0.82450000  0.03980000  1.0 0.121218544
C  C393  1  0.03980000  0.82450000  0.60210000  1.0 0.121218544
C  C394  1  0.60210000  0.82450000  0.96020000  1.0 0.121218544
C  C395  1  0.39790000  0.96020000  0.82450000  1.0 0.121218544
C  C396  1  0.82450000  0.39790000  0.96020000  1.0 0.121218544
C  C397  1  0.17550000  0.60210000  0.96020000  1.0 0.121218544
C  C398  1  0.39790000  0.03980000  0.17550000  1.0 0.121218544
C  C399  1  0.17550000  0.39790000  0.03980000  1.0 0.121218544
C  C400  1  0.60210000  0.03980000  0.82450000  1.0 0.121218544
C  C401  1  0.60210000  0.96020000  0.17550000  1.0 0.121218544
C  C402  1  0.82450000  0.60210000  0.03980000  1.0 0.121218544
C  C403  1  0.82450000  0.96020000  0.60210000  1.0 0.121218544
C  C404  1  0.17550000  0.03980000  0.60210000  1.0 0.121218544
C  C405  1  0.03980000  0.39790000  0.82450000  1.0 0.121218544
C  C406  1  0.03980000  0.60210000  0.17550000  1.0 0.121218544
C  C407  1  0.39790000  0.17550000  0.96020000  1.0 0.121218544
C  C408  1  0.60210000  0.17550000  0.03980000  1.0 0.121218544
C  C409  1  0.95410000  0.86930000  0.40500000  1.0 -0.2483532392
C  C410  1  0.13070000  0.95410000  0.40500000  1.0 -0.2483532392
C  C411  1  0.04590000  0.13070000  0.40500000  1.0 -0.2483532392
C  C412  1  0.86930000  0.04590000  0.40500000  1.0 -0.2483532392
C  C413  1  0.95410000  0.59500000  0.86930000  1.0 -0.2483532392
C  C414  1  0.95410000  0.13070000  0.59500000  1.0 -0.2483532392
C  C415  1  0.95410000  0.40500000  0.13070000  1.0 -0.2483532392
C  C416  1  0.40500000  0.86930000  0.04590000  1.0 -0.2483532392
C  C417  1  0.04590000  0.86930000  0.59500000  1.0 -0.2483532392
C  C418  1  0.59500000  0.86930000  0.95410000  1.0 -0.2483532392
C  C419  1  0.40500000  0.95410000  0.86930000  1.0 -0.2483532392
C  C420  1  0.86930000  0.40500000  0.95410000  1.0 -0.2483532392
C  C421  1  0.13070000  0.59500000  0.95410000  1.0 -0.2483532392
C  C422  1  0.40500000  0.04590000  0.13070000  1.0 -0.2483532392
C  C423  1  0.13070000  0.40500000  0.04590000  1.0 -0.2483532392
C  C424  1  0.59500000  0.04590000  0.86930000  1.0 -0.2483532392
C  C425  1  0.59500000  0.95410000  0.13070000  1.0 -0.2483532392
C  C426  1  0.86930000  0.59500000  0.04590000  1.0 -0.2483532392
C  C427  1  0.86930000  0.95410000  0.59500000  1.0 -0.2483532392
C  C428  1  0.13070000  0.04590000  0.59500000  1.0 -0.2483532392
C  C429  1  0.04590000  0.40500000  0.86930000  1.0 -0.2483532392
C  C430  1  0.04590000  0.59500000  0.13070000  1.0 -0.2483532392
C  C431  1  0.40500000  0.13070000  0.95410000  1.0 -0.2483532392
C  C432  1  0.59500000  0.13070000  0.04590000  1.0 -0.2483532392
C  C433  1  0.92980000  0.89400000  0.37520000  1.0 0.1782635082
C  C434  1  0.10600000  0.92980000  0.37520000  1.0 0.1782635082
C  C435  1  0.07020000  0.10600000  0.37520000  1.0 0.1782635082
C  C436  1  0.89400000  0.07020000  0.37520000  1.0 0.1782635082
C  C437  1  0.92980000  0.62480000  0.89400000  1.0 0.1782635082
C  C438  1  0.92980000  0.10600000  0.62480000  1.0 0.1782635082
C  C439  1  0.92980000  0.37520000  0.10600000  1.0 0.1782635082
C  C440  1  0.37520000  0.89400000  0.07020000  1.0 0.1782635082
C  C441  1  0.07020000  0.89400000  0.62480000  1.0 0.1782635082
C  C442  1  0.62480000  0.89400000  0.92980000  1.0 0.1782635082
C  C443  1  0.37520000  0.92980000  0.89400000  1.0 0.1782635082
C  C444  1  0.89400000  0.37520000  0.92980000  1.0 0.1782635082
C  C445  1  0.10600000  0.62480000  0.92980000  1.0 0.1782635082
C  C446  1  0.37520000  0.07020000  0.10600000  1.0 0.1782635082
C  C447  1  0.10600000  0.37520000  0.07020000  1.0 0.1782635082
C  C448  1  0.62480000  0.07020000  0.89400000  1.0 0.1782635082
C  C449  1  0.62480000  0.92980000  0.10600000  1.0 0.1782635082
C  C450  1  0.89400000  0.62480000  0.07020000  1.0 0.1782635082
C  C451  1  0.89400000  0.92980000  0.62480000  1.0 0.1782635082
C  C452  1  0.10600000  0.07020000  0.62480000  1.0 0.1782635082
C  C453  1  0.07020000  0.37520000  0.89400000  1.0 0.1782635082
C  C454  1  0.07020000  0.62480000  0.10600000  1.0 0.1782635082
C  C455  1  0.37520000  0.10600000  0.92980000  1.0 0.1782635082
C  C456  1  0.62480000  0.10600000  0.07020000  1.0 0.1782635082
C  C457  1  0.91160000  0.87400000  0.33820000  1.0 -0.2433464188
C  C458  1  0.12600000  0.91160000  0.33820000  1.0 -0.2433464188
C  C459  1  0.08840000  0.12600000  0.33820000  1.0 -0.2483532392
C  C460  1  0.87400000  0.08840000  0.33820000  1.0 -0.2483532392
C  C461  1  0.91160000  0.66180000  0.87400000  1.0 -0.2433464188
C  C462  1  0.91160000  0.12600000  0.66180000  1.0 -0.2433464188
C  C463  1  0.91160000  0.33820000  0.12600000  1.0 -0.2433464188
C  C464  1  0.33820000  0.87400000  0.08840000  1.0 -0.2483532392
C  C465  1  0.08840000  0.87400000  0.66180000  1.0 -0.2483532392
C  C466  1  0.66180000  0.87400000  0.91160000  1.0 -0.2433464188
C  C467  1  0.33820000  0.91160000  0.87400000  1.0 -0.2433464188
C  C468  1  0.87400000  0.33820000  0.91160000  1.0 -0.2433464188
C  C469  1  0.12600000  0.66180000  0.91160000  1.0 -0.2433464188
C  C470  1  0.33820000  0.08840000  0.12600000  1.0 -0.2483532392
C  C471  1  0.12600000  0.33820000  0.08840000  1.0 -0.2483532392
C  C472  1  0.66180000  0.08840000  0.87400000  1.0 -0.2483532392
C  C473  1  0.66180000  0.91160000  0.12600000  1.0 -0.2433464188
C  C474  1  0.87400000  0.66180000  0.08840000  1.0 -0.2483532392
C  C475  1  0.87400000  0.91160000  0.66180000  1.0 -0.2433464188
C  C476  1  0.12600000  0.08840000  0.66180000  1.0 -0.2483532392
C  C477  1  0.08840000  0.33820000  0.87400000  1.0 -0.2483532392
C  C478  1  0.08840000  0.66180000  0.12600000  1.0 -0.2483532392
C  C479  1  0.33820000  0.12600000  0.91160000  1.0 -0.2433464188
C  C480  1  0.66180000  0.12600000  0.08840000  1.0 -0.2483532392
C  C481  1  0.91780000  0.82930000  0.33110000  1.0 0.121218544
C  C482  1  0.17070000  0.91780000  0.33110000  1.0 0.121218544
C  C483  1  0.08220000  0.17070000  0.33110000  1.0 0.121218544
C  C484  1  0.82930000  0.08220000  0.33110000  1.0 0.121218544
C  C485  1  0.91780000  0.66890000  0.82930000  1.0 0.121218544
C  C486  1  0.91780000  0.17070000  0.66890000  1.0 0.121218544
C  C487  1  0.91780000  0.33110000  0.17070000  1.0 0.121218544
C  C488  1  0.33110000  0.82930000  0.08220000  1.0 0.121218544
C  C489  1  0.08220000  0.82930000  0.66890000  1.0 0.121218544
C  C490  1  0.66890000  0.82930000  0.91780000  1.0 0.121218544
C  C491  1  0.33110000  0.91780000  0.82930000  1.0 0.121218544
C  C492  1  0.82930000  0.33110000  0.91780000  1.0 0.121218544
C  C493  1  0.17070000  0.66890000  0.91780000  1.0 0.121218544
C  C494  1  0.33110000  0.08220000  0.17070000  1.0 0.121218544
C  C495  1  0.17070000  0.33110000  0.08220000  1.0 0.121218544
C  C496  1  0.66890000  0.08220000  0.82930000  1.0 0.121218544
C  C497  1  0.66890000  0.91780000  0.17070000  1.0 0.121218544
C  C498  1  0.82930000  0.66890000  0.08220000  1.0 0.121218544
C  C499  1  0.82930000  0.91780000  0.66890000  1.0 0.121218544
C  C500  1  0.17070000  0.08220000  0.66890000  1.0 0.121218544
C  C501  1  0.08220000  0.33110000  0.82930000  1.0 0.121218544
C  C502  1  0.08220000  0.66890000  0.17070000  1.0 0.121218544
C  C503  1  0.33110000  0.17070000  0.91780000  1.0 0.121218544
C  C504  1  0.66890000  0.17070000  0.08220000  1.0 0.121218544
C  C505  1  0.89670000  0.80840000  0.29070000  1.0 -0.4353577668
C  C506  1  0.19160000  0.89670000  0.29070000  1.0 -0.4353577668
C  C507  1  0.10330000  0.19160000  0.29070000  1.0 -0.4353577668
C  C508  1  0.80840000  0.10330000  0.29070000  1.0 -0.4344545686
C  C509  1  0.89670000  0.70930000  0.80840000  1.0 -0.4353577668
C  C510  1  0.89670000  0.19160000  0.70930000  1.0 -0.4353577668
C  C511  1  0.89670000  0.29070000  0.19160000  1.0 -0.4344545686
C  C512  1  0.29070000  0.80840000  0.10330000  1.0 -0.4353577668
C  C513  1  0.10330000  0.80840000  0.70930000  1.0 -0.4353577668
C  C514  1  0.70930000  0.80840000  0.89670000  1.0 -0.4353577668
C  C515  1  0.29070000  0.89670000  0.80840000  1.0 -0.4353577668
C  C516  1  0.80840000  0.29070000  0.89670000  1.0 -0.4353577668
C  C517  1  0.19160000  0.70930000  0.89670000  1.0 -0.4353577668
C  C518  1  0.29070000  0.10330000  0.19160000  1.0 -0.4344545686
C  C519  1  0.19160000  0.29070000  0.10330000  1.0 -0.4353577668
C  C520  1  0.70930000  0.10330000  0.80840000  1.0 -0.4353577668
C  C521  1  0.70930000  0.89670000  0.19160000  1.0 -0.4353577668
C  C522  1  0.80840000  0.70930000  0.10330000  1.0 -0.4353577668
C  C523  1  0.80840000  0.89670000  0.70930000  1.0 -0.4353577668
C  C524  1  0.19160000  0.10330000  0.70930000  1.0 -0.4353577668
C  C525  1  0.10330000  0.29070000  0.80840000  1.0 -0.4353577668
C  C526  1  0.10330000  0.70930000  0.19160000  1.0 -0.4353577668
C  C527  1  0.29070000  0.19160000  0.89670000  1.0 -0.4353577668
C  C528  1  0.70930000  0.19160000  0.10330000  1.0 -0.4344545686
C  C529  1  0.98690000  0.79980000  0.43180000  1.0 -0.4487925448
C  C530  1  0.20020000  0.98690000  0.43180000  1.0 -0.4487925448
C  C531  1  0.01310000  0.20020000  0.43180000  1.0 -0.4487925448
C  C532  1  0.79980000  0.01310000  0.43180000  1.0 -0.4487925448
C  C533  1  0.98690000  0.56820000  0.79980000  1.0 -0.4487925448
C  C534  1  0.98690000  0.20020000  0.56820000  1.0 -0.4487925448
C  C535  1  0.98690000  0.43180000  0.20020000  1.0 -0.4487925448
C  C536  1  0.43180000  0.79980000  0.01310000  1.0 -0.4487925448
C  C537  1  0.01310000  0.79980000  0.56820000  1.0 -0.4487925448
C  C538  1  0.56820000  0.79980000  0.98690000  1.0 -0.4487925448
C  C539  1  0.43180000  0.98690000  0.79980000  1.0 -0.4487925448
C  C540  1  0.79980000  0.43180000  0.98690000  1.0 -0.4487925448
C  C541  1  0.20020000  0.56820000  0.98690000  1.0 -0.4487925448
C  C542  1  0.43180000  0.01310000  0.20020000  1.0 -0.4487925448
C  C543  1  0.20020000  0.43180000  0.01310000  1.0 -0.4487925448
C  C544  1  0.56820000  0.01310000  0.79980000  1.0 -0.4487925448
C  C545  1  0.56820000  0.98690000  0.20020000  1.0 -0.4487925448
C  C546  1  0.79980000  0.56820000  0.01310000  1.0 -0.4487925448
C  C547  1  0.79980000  0.98690000  0.56820000  1.0 -0.4487925448
C  C548  1  0.20020000  0.01310000  0.56820000  1.0 -0.4487925448
C  C549  1  0.01310000  0.43180000  0.79980000  1.0 -0.4487925448
C  C550  1  0.01310000  0.56820000  0.20020000  1.0 -0.4487925448
C  C551  1  0.43180000  0.20020000  0.98690000  1.0 -0.4487925448
C  C552  1  0.56820000  0.20020000  0.01310000  1.0 -0.4487925448
C  C553  1  0.92570000  0.94480000  0.38190000  1.0 -0.4621939196
C  C554  1  0.05520000  0.92570000  0.38190000  1.0 -0.4621939196
C  C555  1  0.07430000  0.05520000  0.38190000  1.0 -0.4621939196
C  C556  1  0.94480000  0.07430000  0.38190000  1.0 -0.4621939196
C  C557  1  0.92570000  0.61810000  0.94480000  1.0 -0.4621939196
C  C558  1  0.92570000  0.05520000  0.61810000  1.0 -0.4621939196
C  C559  1  0.92570000  0.38190000  0.05520000  1.0 -0.4621939196
C  C560  1  0.38190000  0.94480000  0.07430000  1.0 -0.4621939196
C  C561  1  0.07430000  0.94480000  0.61810000  1.0 -0.4621939196
C  C562  1  0.61810000  0.94480000  0.92570000  1.0 -0.4621939196
C  C563  1  0.38190000  0.92570000  0.94480000  1.0 -0.4621939196
C  C564  1  0.94480000  0.38190000  0.92570000  1.0 -0.4621939196
C  C565  1  0.05520000  0.61810000  0.92570000  1.0 -0.4621939196
C  C566  1  0.38190000  0.07430000  0.05520000  1.0 -0.4621939196
C  C567  1  0.05520000  0.38190000  0.07430000  1.0 -0.4621939196
C  C568  1  0.61810000  0.07430000  0.94480000  1.0 -0.4621939196
C  C569  1  0.61810000  0.92570000  0.05520000  1.0 -0.4621939196
C  C570  1  0.94480000  0.61810000  0.07430000  1.0 -0.4621939196
C  C571  1  0.94480000  0.92570000  0.61810000  1.0 -0.4621939196
C  C572  1  0.05520000  0.07430000  0.61810000  1.0 -0.4621939196
C  C573  1  0.07430000  0.38190000  0.94480000  1.0 -0.4621939196
C  C574  1  0.07430000  0.61810000  0.05520000  1.0 -0.4621939196
C  C575  1  0.38190000  0.05520000  0.92570000  1.0 -0.4621939196
C  C576  1  0.61810000  0.05520000  0.07430000  1.0 -0.4621939196
O  O1  1  0.87020000  0.55250000  0.46140000  1.0 -0.5217917124
O  O2  1  0.44750000  0.87020000  0.46140000  1.0 -0.5217917124
O  O3  1  0.12980000  0.44750000  0.46140000  1.0 -0.5217917124
O  O4  1  0.55250000  0.12980000  0.46140000  1.0 -0.5217917124
O  O5  1  0.87020000  0.53860000  0.55250000  1.0 -0.5217917124
O  O6  1  0.87020000  0.44750000  0.53860000  1.0 -0.5217917124
O  O7  1  0.87020000  0.46140000  0.44750000  1.0 -0.5217917124
O  O8  1  0.46140000  0.55250000  0.12980000  1.0 -0.5217917124
O  O9  1  0.12980000  0.55250000  0.53860000  1.0 -0.5217917124
O  O10  1  0.53860000  0.55250000  0.87020000  1.0 -0.5217917124
O  O11  1  0.46140000  0.87020000  0.55250000  1.0 -0.5217917124
O  O12  1  0.55250000  0.46140000  0.87020000  1.0 -0.5217917124
O  O13  1  0.44750000  0.53860000  0.87020000  1.0 -0.5217917124
O  O14  1  0.46140000  0.12980000  0.44750000  1.0 -0.5217917124
O  O15  1  0.44750000  0.46140000  0.12980000  1.0 -0.5217917124
O  O16  1  0.53860000  0.12980000  0.55250000  1.0 -0.5217917124
O  O17  1  0.53860000  0.87020000  0.44750000  1.0 -0.5217917124
O  O18  1  0.55250000  0.53860000  0.12980000  1.0 -0.5217917124
O  O19  1  0.55250000  0.87020000  0.53860000  1.0 -0.5217917124
O  O20  1  0.44750000  0.12980000  0.53860000  1.0 -0.5217917124
O  O21  1  0.12980000  0.46140000  0.55250000  1.0 -0.5217917124
O  O22  1  0.12980000  0.53860000  0.44750000  1.0 -0.5217917124
O  O23  1  0.46140000  0.44750000  0.87020000  1.0 -0.5217917124
O  O24  1  0.53860000  0.44750000  0.12980000  1.0 -0.5217917124
O  O25  1  0.79930000  0.54600000  0.45440000  1.0 -0.5035671675
O  O26  1  0.45400000  0.79930000  0.45440000  1.0 -0.5054719383
O  O27  1  0.20070000  0.45400000  0.45440000  1.0 -0.5054719383
O  O28  1  0.54600000  0.20070000  0.45440000  1.0 -0.5035671675
O  O29  1  0.79930000  0.54560000  0.54600000  1.0 -0.5035671675
O  O30  1  0.79930000  0.45400000  0.54560000  1.0 -0.5054719383
O  O31  1  0.79930000  0.45440000  0.45400000  1.0 -0.5054719383
O  O32  1  0.45440000  0.54600000  0.20070000  1.0 -0.5035671675
O  O33  1  0.20070000  0.54600000  0.54560000  1.0 -0.5035671675
O  O34  1  0.54560000  0.54600000  0.79930000  1.0 -0.5035671675
O  O35  1  0.45440000  0.79930000  0.54600000  1.0 -0.5035671675
O  O36  1  0.54600000  0.45440000  0.79930000  1.0 -0.5035671675
O  O37  1  0.45400000  0.54560000  0.79930000  1.0 -0.5054719383
O  O38  1  0.45440000  0.20070000  0.45400000  1.0 -0.5054719383
O  O39  1  0.45400000  0.45440000  0.20070000  1.0 -0.5054719383
O  O40  1  0.54560000  0.20070000  0.54600000  1.0 -0.5035671675
O  O41  1  0.54560000  0.79930000  0.45400000  1.0 -0.5054719383
O  O42  1  0.54600000  0.54560000  0.20070000  1.0 -0.5035671675
O  O43  1  0.54600000  0.79930000  0.54560000  1.0 -0.5035671675
O  O44  1  0.45400000  0.20070000  0.54560000  1.0 -0.5054719383
O  O45  1  0.20070000  0.45440000  0.54600000  1.0 -0.5035671675
O  O46  1  0.20070000  0.54560000  0.45400000  1.0 -0.5054719383
O  O47  1  0.45440000  0.45400000  0.79930000  1.0 -0.5054719383
O  O48  1  0.54560000  0.45400000  0.20070000  1.0 -0.5054719383
O  O49  1  0.71240000  0.64510000  0.36330000  1.0 -0.5769619653
O  O50  1  0.35490000  0.71240000  0.36330000  1.0 -0.5769619653
O  O51  1  0.28760000  0.35490000  0.36330000  1.0 -0.5769619653
O  O52  1  0.64510000  0.28760000  0.36330000  1.0 -0.5769619653
O  O53  1  0.71240000  0.63670000  0.64510000  1.0 -0.5769619653
O  O54  1  0.71240000  0.35490000  0.63670000  1.0 -0.5769619653
O  O55  1  0.71240000  0.36330000  0.35490000  1.0 -0.5769619653
O  O56  1  0.36330000  0.64510000  0.28760000  1.0 -0.5769619653
O  O57  1  0.28760000  0.64510000  0.63670000  1.0 -0.5769619653
O  O58  1  0.63670000  0.64510000  0.71240000  1.0 -0.5769619653
O  O59  1  0.36330000  0.71240000  0.64510000  1.0 -0.5769619653
O  O60  1  0.64510000  0.36330000  0.71240000  1.0 -0.5769619653
O  O61  1  0.35490000  0.63670000  0.71240000  1.0 -0.5769619653
O  O62  1  0.36330000  0.28760000  0.35490000  1.0 -0.5769619653
O  O63  1  0.35490000  0.36330000  0.28760000  1.0 -0.5769619653
O  O64  1  0.63670000  0.28760000  0.64510000  1.0 -0.5769619653
O  O65  1  0.63670000  0.71240000  0.35490000  1.0 -0.5769619653
O  O66  1  0.64510000  0.63670000  0.28760000  1.0 -0.5769619653
O  O67  1  0.64510000  0.71240000  0.63670000  1.0 -0.5769619653
O  O68  1  0.35490000  0.28760000  0.63670000  1.0 -0.5769619653
O  O69  1  0.28760000  0.36330000  0.64510000  1.0 -0.5769619653
O  O70  1  0.28760000  0.63670000  0.35490000  1.0 -0.5769619653
O  O71  1  0.36330000  0.35490000  0.71240000  1.0 -0.5769619653
O  O72  1  0.63670000  0.35490000  0.28760000  1.0 -0.5769619653
O  O73  1  0.74740000  0.70380000  0.33450000  1.0 -0.5727064519
O  O74  1  0.29620000  0.74740000  0.33450000  1.0 -0.5727064519
O  O75  1  0.25260000  0.29620000  0.33450000  1.0 -0.5727064519
O  O76  1  0.70380000  0.25260000  0.33450000  1.0 -0.5727064519
O  O77  1  0.74740000  0.66550000  0.70380000  1.0 -0.5727064519
O  O78  1  0.74740000  0.29620000  0.66550000  1.0 -0.5727064519
O  O79  1  0.74740000  0.33450000  0.29620000  1.0 -0.5727064519
O  O80  1  0.33450000  0.70380000  0.25260000  1.0 -0.5727064519
O  O81  1  0.25260000  0.70380000  0.66550000  1.0 -0.5727064519
O  O82  1  0.66550000  0.70380000  0.74740000  1.0 -0.5727064519
O  O83  1  0.33450000  0.74740000  0.70380000  1.0 -0.5727064519
O  O84  1  0.70380000  0.33450000  0.74740000  1.0 -0.5727064519
O  O85  1  0.29620000  0.66550000  0.74740000  1.0 -0.5727064519
O  O86  1  0.33450000  0.25260000  0.29620000  1.0 -0.5727064519
O  O87  1  0.29620000  0.33450000  0.25260000  1.0 -0.5727064519
O  O88  1  0.66550000  0.25260000  0.70380000  1.0 -0.5727064519
O  O89  1  0.66550000  0.74740000  0.29620000  1.0 -0.5727064519
O  O90  1  0.70380000  0.66550000  0.25260000  1.0 -0.5727064519
O  O91  1  0.70380000  0.74740000  0.66550000  1.0 -0.5727064519
O  O92  1  0.29620000  0.25260000  0.66550000  1.0 -0.5727064519
O  O93  1  0.25260000  0.33450000  0.70380000  1.0 -0.5727064519
O  O94  1  0.25260000  0.66550000  0.29620000  1.0 -0.5727064519
O  O95  1  0.33450000  0.29620000  0.74740000  1.0 -0.5727064519
O  O96  1  0.66550000  0.29620000  0.25260000  1.0 -0.5727064519
O  O97  1  0.01350000  0.76430000  0.32030000  1.0 -0.4186658993
O  O98  1  0.23570000  0.01350000  0.32030000  1.0 -0.4186658993
O  O99  1  0.98650000  0.23570000  0.32030000  1.0 -0.4186658993
O  O100  1  0.76430000  0.98650000  0.32030000  1.0 -0.4186658993
O  O101  1  0.01350000  0.67970000  0.76430000  1.0 -0.4186658993
O  O102  1  0.01350000  0.23570000  0.67970000  1.0 -0.4186658993
O  O103  1  0.01350000  0.32030000  0.23570000  1.0 -0.4186658993
O  O104  1  0.32030000  0.76430000  0.98650000  1.0 -0.4186658993
O  O105  1  0.98650000  0.76430000  0.67970000  1.0 -0.4186658993
O  O106  1  0.67970000  0.76430000  0.01350000  1.0 -0.4186658993
O  O107  1  0.32030000  0.01350000  0.76430000  1.0 -0.4186658993
O  O108  1  0.76430000  0.32030000  0.01350000  1.0 -0.4186658993
O  O109  1  0.23570000  0.67970000  0.01350000  1.0 -0.4186658993
O  O110  1  0.32030000  0.98650000  0.23570000  1.0 -0.4186658993
O  O111  1  0.23570000  0.32030000  0.98650000  1.0 -0.4186658993
O  O112  1  0.67970000  0.98650000  0.76430000  1.0 -0.4186658993
O  O113  1  0.67970000  0.01350000  0.23570000  1.0 -0.4186658993
O  O114  1  0.76430000  0.67970000  0.98650000  1.0 -0.4186658993
O  O115  1  0.76430000  0.01350000  0.67970000  1.0 -0.4186658993
O  O116  1  0.23570000  0.98650000  0.67970000  1.0 -0.4186658993
O  O117  1  0.98650000  0.32030000  0.76430000  1.0 -0.4186658993
O  O118  1  0.98650000  0.67970000  0.23570000  1.0 -0.4186658993
O  O119  1  0.32030000  0.23570000  0.01350000  1.0 -0.4186658993
O  O120  1  0.67970000  0.23570000  0.98650000  1.0 -0.4186658993
