# DDEC6 charges by PACMAN v1.1 (https://github.com/mtap-research/PACMAN-charge/)
data_ja7b07921_si_002_1_ASR_pacman
_symmetry_space_group_name_H-M   'P 1'
_cell_length_a   29.94440000
_cell_length_b   29.94440000
_cell_length_c   29.94440000
_cell_angle_alpha   90.00000000
_cell_angle_beta   90.00000000
_cell_angle_gamma   90.00000000
_symmetry_Int_Tables_number   1
_chemical_formula_structural   Zn24H298.08C381.36N5.76O86.64
_chemical_formula_sum   'Zn24 H298.08 C381.36 N5.76 O86.64'
_cell_volume   26850.15805052
_cell_formula_units_Z   1
loop_
 _symmetry_equiv_pos_site_id
 _symmetry_equiv_pos_as_xyz
  1  'x, y, z'
loop_
 _atom_site_type_symbol
 _atom_site_label
 _atom_site_symmetry_multiplicity
 _atom_site_fract_x
 _atom_site_fract_y
 _atom_site_fract_z
 _atom_site_occupancy
 _atom_site_charge
Zn  Zn1  1  0.05326000  0.17750000  0.50000000  1.0 0.9559995032
Zn  Zn2  1  0.94674000  0.82250000  0.50000000  1.0 0.9559995032
Zn  Zn3  1  0.94674000  0.17750000  0.50000000  1.0 0.9559995032
Zn  Zn4  1  0.05326000  0.82250000  0.50000000  1.0 0.9559995032
Zn  Zn5  1  0.50000000  0.05326000  0.17750000  1.0 0.9559995032
Zn  Zn6  1  0.50000000  0.94674000  0.82250000  1.0 0.9559995032
Zn  Zn7  1  0.50000000  0.94674000  0.17750000  1.0 0.9559995032
Zn  Zn8  1  0.50000000  0.05326000  0.82250000  1.0 0.9559995032
Zn  Zn9  1  0.17750000  0.50000000  0.05326000  1.0 0.9559995032
Zn  Zn10  1  0.82250000  0.50000000  0.94674000  1.0 0.9559995032
Zn  Zn11  1  0.17750000  0.50000000  0.94674000  1.0 0.9559995032
Zn  Zn12  1  0.82250000  0.50000000  0.05326000  1.0 0.9559995032
Zn  Zn13  1  0.00000000  0.25170000  0.44679000  1.0 0.953681121
Zn  Zn14  1  0.00000000  0.74830000  0.44679000  1.0 0.953681121
Zn  Zn15  1  0.00000000  0.25170000  0.55321000  1.0 0.953681121
Zn  Zn16  1  0.00000000  0.74830000  0.55321000  1.0 0.953681121
Zn  Zn17  1  0.44679000  0.00000000  0.25170000  1.0 0.953681121
Zn  Zn18  1  0.44679000  0.00000000  0.74830000  1.0 0.953681121
Zn  Zn19  1  0.55321000  0.00000000  0.25170000  1.0 0.953681121
Zn  Zn20  1  0.55321000  0.00000000  0.74830000  1.0 0.953681121
Zn  Zn21  1  0.25170000  0.44679000  0.00000000  1.0 0.953681121
Zn  Zn22  1  0.74830000  0.44679000  0.00000000  1.0 0.953681121
Zn  Zn23  1  0.25170000  0.55321000  0.00000000  1.0 0.953681121
Zn  Zn24  1  0.74830000  0.55321000  0.00000000  1.0 0.953681121
H  H1  1  0.06640000  0.03820000  0.50000000  1.0 0.1305412759
H  H2  1  0.93360000  0.96180000  0.50000000  1.0 0.1305412759
H  H3  1  0.93360000  0.03820000  0.50000000  1.0 0.1305412759
H  H4  1  0.06640000  0.96180000  0.50000000  1.0 0.1305412759
H  H5  1  0.50000000  0.06640000  0.03820000  1.0 0.1305412759
H  H6  1  0.50000000  0.93360000  0.96180000  1.0 0.1305412759
H  H7  1  0.50000000  0.93360000  0.03820000  1.0 0.1305412759
H  H8  1  0.50000000  0.06640000  0.96180000  1.0 0.1305412759
H  H9  1  0.03820000  0.50000000  0.06640000  1.0 0.1305412759
H  H10  1  0.96180000  0.50000000  0.93360000  1.0 0.1305412759
H  H11  1  0.03820000  0.50000000  0.93360000  1.0 0.1305412759
H  H12  1  0.96180000  0.50000000  0.06640000  1.0 0.1305412759
H  H13  1  0.15400000  0.16180000  0.40440000  1.0 0.1305412759
H  H14  1  0.84600000  0.83820000  0.40440000  1.0 0.1305412759
H  H15  1  0.84600000  0.16180000  0.59560000  1.0 0.1305412759
H  H16  1  0.15400000  0.83820000  0.59560000  1.0 0.1305412759
H  H17  1  0.40440000  0.15400000  0.16180000  1.0 0.1305412759
H  H18  1  0.40440000  0.84600000  0.83820000  1.0 0.1305412759
H  H19  1  0.59560000  0.84600000  0.16180000  1.0 0.1231953266
H  H20  1  0.59560000  0.15400000  0.83820000  1.0 0.1305412759
H  H21  1  0.16180000  0.40440000  0.15400000  1.0 0.1231953266
H  H22  1  0.83820000  0.40440000  0.84600000  1.0 0.1305412759
H  H23  1  0.16180000  0.59560000  0.84600000  1.0 0.1305412759
H  H24  1  0.83820000  0.59560000  0.15400000  1.0 0.1231953266
H  H25  1  0.84600000  0.83820000  0.59560000  1.0 0.1305412759
H  H26  1  0.15400000  0.16180000  0.59560000  1.0 0.1305412759
H  H27  1  0.15400000  0.83820000  0.40440000  1.0 0.1305412759
H  H28  1  0.84600000  0.16180000  0.40440000  1.0 0.1305412759
H  H29  1  0.59560000  0.84600000  0.83820000  1.0 0.1305412759
H  H30  1  0.59560000  0.15400000  0.16180000  1.0 0.1305412759
H  H31  1  0.40440000  0.15400000  0.83820000  1.0 0.1305412759
H  H32  1  0.40440000  0.84600000  0.16180000  1.0 0.1231953266
H  H33  1  0.83820000  0.59560000  0.84600000  1.0 0.1305412759
H  H34  1  0.16180000  0.59560000  0.15400000  1.0 0.1231953266
H  H35  1  0.83820000  0.40440000  0.15400000  1.0 0.1231953266
H  H36  1  0.16180000  0.40440000  0.84600000  1.0 0.1305412759
H  H37  1  0.20890000  0.16050000  0.35030000  1.0 0.1231953266
H  H38  1  0.79110000  0.83950000  0.35030000  1.0 0.1231953266
H  H39  1  0.79110000  0.16050000  0.64970000  1.0 0.1231953266
H  H40  1  0.20890000  0.83950000  0.64970000  1.0 0.1231953266
H  H41  1  0.35030000  0.20890000  0.16050000  1.0 0.1231953266
H  H42  1  0.35030000  0.79110000  0.83950000  1.0 0.1231953266
H  H43  1  0.64970000  0.79110000  0.16050000  1.0 0.1231953266
H  H44  1  0.64970000  0.20890000  0.83950000  1.0 0.1231953266
H  H45  1  0.16050000  0.35030000  0.20890000  1.0 0.1231953266
H  H46  1  0.83950000  0.35030000  0.79110000  1.0 0.1231953266
H  H47  1  0.16050000  0.64970000  0.79110000  1.0 0.1231953266
H  H48  1  0.83950000  0.64970000  0.20890000  1.0 0.1231953266
H  H49  1  0.79110000  0.83950000  0.64970000  1.0 0.1231953266
H  H50  1  0.20890000  0.16050000  0.64970000  1.0 0.1231953266
H  H51  1  0.20890000  0.83950000  0.35030000  1.0 0.1231953266
H  H52  1  0.79110000  0.16050000  0.35030000  1.0 0.1231953266
H  H53  1  0.64970000  0.79110000  0.83950000  1.0 0.1231953266
H  H54  1  0.64970000  0.20890000  0.16050000  1.0 0.1231953266
H  H55  1  0.35030000  0.20890000  0.83950000  1.0 0.1231953266
H  H56  1  0.35030000  0.79110000  0.16050000  1.0 0.1231953266
H  H57  1  0.83950000  0.64970000  0.79110000  1.0 0.1231953266
H  H58  1  0.16050000  0.64970000  0.20890000  1.0 0.1231953266
H  H59  1  0.83950000  0.35030000  0.20890000  1.0 0.1231953266
H  H60  1  0.16050000  0.35030000  0.79110000  1.0 0.1231953266
H  H61  1  0.09800000  0.26850000  0.34660000  1.0 0.1305412759
H  H62  1  0.90200000  0.73150000  0.34660000  1.0 0.1305412759
H  H63  1  0.90200000  0.26850000  0.65340000  1.0 0.1305412759
H  H64  1  0.09800000  0.73150000  0.65340000  1.0 0.1305412759
H  H65  1  0.34660000  0.09800000  0.26850000  1.0 0.1305412759
H  H66  1  0.34660000  0.90200000  0.73150000  1.0 0.1305412759
H  H67  1  0.65340000  0.90200000  0.26850000  1.0 0.1305412759
H  H68  1  0.65340000  0.09800000  0.73150000  1.0 0.1305412759
H  H69  1  0.26850000  0.34660000  0.09800000  1.0 0.1305412759
H  H70  1  0.73150000  0.34660000  0.90200000  1.0 0.1305412759
H  H71  1  0.26850000  0.65340000  0.90200000  1.0 0.1305412759
H  H72  1  0.73150000  0.65340000  0.09800000  1.0 0.1305412759
H  H73  1  0.90200000  0.73150000  0.65340000  1.0 0.1305412759
H  H74  1  0.09800000  0.26850000  0.65340000  1.0 0.1305412759
H  H75  1  0.09800000  0.73150000  0.34660000  1.0 0.1305412759
H  H76  1  0.90200000  0.26850000  0.34660000  1.0 0.1305412759
H  H77  1  0.65340000  0.90200000  0.73150000  1.0 0.1305412759
H  H78  1  0.65340000  0.09800000  0.26850000  1.0 0.1305412759
H  H79  1  0.34660000  0.09800000  0.73150000  1.0 0.1305412759
H  H80  1  0.34660000  0.90200000  0.26850000  1.0 0.1305412759
H  H81  1  0.73150000  0.65340000  0.90200000  1.0 0.1305412759
H  H82  1  0.26850000  0.65340000  0.09800000  1.0 0.1305412759
H  H83  1  0.73150000  0.34660000  0.09800000  1.0 0.1305412759
H  H84  1  0.26850000  0.34660000  0.90200000  1.0 0.1305412759
H  H85  1  0.14100000  0.33590000  0.31390000  1.0 0.1305412759
H  H86  1  0.85900000  0.66410000  0.31390000  1.0 0.1305412759
H  H87  1  0.85900000  0.33590000  0.68610000  1.0 0.1305412759
H  H88  1  0.14100000  0.66410000  0.68610000  1.0 0.1305412759
H  H89  1  0.31390000  0.14100000  0.33590000  1.0 0.1305412759
H  H90  1  0.31390000  0.85900000  0.66410000  1.0 0.1305412759
H  H91  1  0.68610000  0.85900000  0.33590000  1.0 0.1305412759
H  H92  1  0.68610000  0.14100000  0.66410000  1.0 0.1305412759
H  H93  1  0.33590000  0.31390000  0.14100000  1.0 0.1305412759
H  H94  1  0.66410000  0.31390000  0.85900000  1.0 0.1305412759
H  H95  1  0.33590000  0.68610000  0.85900000  1.0 0.1305412759
H  H96  1  0.66410000  0.68610000  0.14100000  1.0 0.1305412759
H  H97  1  0.85900000  0.66410000  0.68610000  1.0 0.1305412759
H  H98  1  0.14100000  0.33590000  0.68610000  1.0 0.1305412759
H  H99  1  0.14100000  0.66410000  0.31390000  1.0 0.1305412759
H  H100  1  0.85900000  0.33590000  0.31390000  1.0 0.1305412759
H  H101  1  0.68610000  0.85900000  0.66410000  1.0 0.1305412759
H  H102  1  0.68610000  0.14100000  0.33590000  1.0 0.1305412759
H  H103  1  0.31390000  0.14100000  0.66410000  1.0 0.1305412759
H  H104  1  0.31390000  0.85900000  0.33590000  1.0 0.1305412759
H  H105  1  0.66410000  0.68610000  0.85900000  1.0 0.1305412759
H  H106  1  0.33590000  0.68610000  0.14100000  1.0 0.1305412759
H  H107  1  0.66410000  0.31390000  0.14100000  1.0 0.1305412759
H  H108  1  0.33590000  0.31390000  0.85900000  1.0 0.1305412759
H  H109  1  0.17420000  0.34720000  0.27510000  1.0 0.1305412759
H  H110  1  0.82580000  0.65280000  0.27510000  1.0 0.1305412759
H  H111  1  0.82580000  0.34720000  0.72490000  1.0 0.1305412759
H  H112  1  0.17420000  0.65280000  0.72490000  1.0 0.1305412759
H  H113  1  0.27510000  0.17420000  0.34720000  1.0 0.1305412759
H  H114  1  0.27510000  0.82580000  0.65280000  1.0 0.1305412759
H  H115  1  0.72490000  0.82580000  0.34720000  1.0 0.1305412759
H  H116  1  0.72490000  0.17420000  0.65280000  1.0 0.1305412759
H  H117  1  0.34720000  0.27510000  0.17420000  1.0 0.1305412759
H  H118  1  0.65280000  0.27510000  0.82580000  1.0 0.1305412759
H  H119  1  0.34720000  0.72490000  0.82580000  1.0 0.1305412759
H  H120  1  0.65280000  0.72490000  0.17420000  1.0 0.1305412759
H  H121  1  0.82580000  0.65280000  0.72490000  1.0 0.1305412759
H  H122  1  0.17420000  0.34720000  0.72490000  1.0 0.1305412759
H  H123  1  0.17420000  0.65280000  0.27510000  1.0 0.1305412759
H  H124  1  0.82580000  0.34720000  0.27510000  1.0 0.1305412759
H  H125  1  0.72490000  0.82580000  0.65280000  1.0 0.1305412759
H  H126  1  0.72490000  0.17420000  0.34720000  1.0 0.1305412759
H  H127  1  0.27510000  0.17420000  0.65280000  1.0 0.1305412759
H  H128  1  0.27510000  0.82580000  0.34720000  1.0 0.1305412759
H  H129  1  0.65280000  0.72490000  0.82580000  1.0 0.1305412759
H  H130  1  0.34720000  0.72490000  0.17420000  1.0 0.1305412759
H  H131  1  0.65280000  0.27510000  0.17420000  1.0 0.1305412759
H  H132  1  0.34720000  0.27510000  0.82580000  1.0 0.1305412759
H  H133  1  0.19190000  0.32480000  0.31900000  1.0 0.1381384115
H  H134  1  0.80810000  0.67520000  0.31900000  1.0 0.1381384115
H  H135  1  0.80810000  0.32480000  0.68100000  1.0 0.1381384115
H  H136  1  0.19190000  0.67520000  0.68100000  1.0 0.1381384115
H  H137  1  0.31900000  0.19190000  0.32480000  1.0 0.1381384115
H  H138  1  0.31900000  0.80810000  0.67520000  1.0 0.1381384115
H  H139  1  0.68100000  0.80810000  0.32480000  1.0 0.1381384115
H  H140  1  0.68100000  0.19190000  0.67520000  1.0 0.1381384115
H  H141  1  0.32480000  0.31900000  0.19190000  1.0 0.1381384115
H  H142  1  0.67520000  0.31900000  0.80810000  1.0 0.1381384115
H  H143  1  0.32480000  0.68100000  0.80810000  1.0 0.1381384115
H  H144  1  0.67520000  0.68100000  0.19190000  1.0 0.1381384115
H  H145  1  0.80810000  0.67520000  0.68100000  1.0 0.1381384115
H  H146  1  0.19190000  0.32480000  0.68100000  1.0 0.1381384115
H  H147  1  0.19190000  0.67520000  0.31900000  1.0 0.1381384115
H  H148  1  0.80810000  0.32480000  0.31900000  1.0 0.1381384115
H  H149  1  0.68100000  0.80810000  0.67520000  1.0 0.1381384115
H  H150  1  0.68100000  0.19190000  0.32480000  1.0 0.1381384115
H  H151  1  0.31900000  0.19190000  0.67520000  1.0 0.1381384115
H  H152  1  0.31900000  0.80810000  0.32480000  1.0 0.1381384115
H  H153  1  0.67520000  0.68100000  0.80810000  1.0 0.1381384115
H  H154  1  0.32480000  0.68100000  0.19190000  1.0 0.1381384115
H  H155  1  0.67520000  0.31900000  0.19190000  1.0 0.1381384115
H  H156  1  0.32480000  0.31900000  0.80810000  1.0 0.1381384115
H  H157  1  0.11250000  0.24610000  0.24000000  1.0 0.1305412759
H  H158  1  0.88750000  0.75390000  0.24000000  1.0 0.1305412759
H  H159  1  0.88750000  0.24610000  0.76000000  1.0 0.1305412759
H  H160  1  0.11250000  0.75390000  0.76000000  1.0 0.1305412759
H  H161  1  0.24000000  0.11250000  0.24610000  1.0 0.1305412759
H  H162  1  0.24000000  0.88750000  0.75390000  1.0 0.1305412759
H  H163  1  0.76000000  0.88750000  0.24610000  1.0 0.1305412759
H  H164  1  0.76000000  0.11250000  0.75390000  1.0 0.1305412759
H  H165  1  0.24610000  0.24000000  0.11250000  1.0 0.1305412759
H  H166  1  0.75390000  0.24000000  0.88750000  1.0 0.1305412759
H  H167  1  0.24610000  0.76000000  0.88750000  1.0 0.1305412759
H  H168  1  0.75390000  0.76000000  0.11250000  1.0 0.1305412759
H  H169  1  0.88750000  0.75390000  0.76000000  1.0 0.1305412759
H  H170  1  0.11250000  0.24610000  0.76000000  1.0 0.1305412759
H  H171  1  0.11250000  0.75390000  0.24000000  1.0 0.1305412759
H  H172  1  0.88750000  0.24610000  0.24000000  1.0 0.1305412759
H  H173  1  0.76000000  0.88750000  0.75390000  1.0 0.1305412759
H  H174  1  0.76000000  0.11250000  0.24610000  1.0 0.1305412759
H  H175  1  0.24000000  0.11250000  0.75390000  1.0 0.1305412759
H  H176  1  0.24000000  0.88750000  0.24610000  1.0 0.1305412759
H  H177  1  0.75390000  0.76000000  0.88750000  1.0 0.1305412759
H  H178  1  0.24610000  0.76000000  0.11250000  1.0 0.1305412759
H  H179  1  0.75390000  0.24000000  0.11250000  1.0 0.1305412759
H  H180  1  0.24610000  0.24000000  0.88750000  1.0 0.1305412759
H  H181  1  0.12340000  0.29350000  0.22080000  1.0 0.1231953266
H  H182  1  0.87660000  0.70650000  0.22080000  1.0 0.1231953266
H  H183  1  0.87660000  0.29350000  0.77920000  1.0 0.1231953266
H  H184  1  0.12340000  0.70650000  0.77920000  1.0 0.1231953266
H  H185  1  0.22080000  0.12340000  0.29350000  1.0 0.1231953266
H  H186  1  0.22080000  0.87660000  0.70650000  1.0 0.1231953266
H  H187  1  0.77920000  0.87660000  0.29350000  1.0 0.1231953266
H  H188  1  0.77920000  0.12340000  0.70650000  1.0 0.1231953266
H  H189  1  0.29350000  0.22080000  0.12340000  1.0 0.1231953266
H  H190  1  0.70650000  0.22080000  0.87660000  1.0 0.1231953266
H  H191  1  0.29350000  0.77920000  0.87660000  1.0 0.1231953266
H  H192  1  0.70650000  0.77920000  0.12340000  1.0 0.1231953266
H  H193  1  0.87660000  0.70650000  0.77920000  1.0 0.1231953266
H  H194  1  0.12340000  0.29350000  0.77920000  1.0 0.1231953266
H  H195  1  0.12340000  0.70650000  0.22080000  1.0 0.1231953266
H  H196  1  0.87660000  0.29350000  0.22080000  1.0 0.1231953266
H  H197  1  0.77920000  0.87660000  0.70650000  1.0 0.1231953266
H  H198  1  0.77920000  0.12340000  0.29350000  1.0 0.1231953266
H  H199  1  0.22080000  0.12340000  0.70650000  1.0 0.1231953266
H  H200  1  0.22080000  0.87660000  0.29350000  1.0 0.1231953266
H  H201  1  0.70650000  0.77920000  0.87660000  1.0 0.1231953266
H  H202  1  0.29350000  0.77920000  0.12340000  1.0 0.1231953266
H  H203  1  0.70650000  0.22080000  0.12340000  1.0 0.1231953266
H  H204  1  0.29350000  0.22080000  0.87660000  1.0 0.1231953266
H  H205  1  0.09270000  0.28880000  0.26290000  1.0 0.1305412759
H  H206  1  0.90730000  0.71120000  0.26290000  1.0 0.1305412759
H  H207  1  0.90730000  0.28880000  0.73710000  1.0 0.1305412759
H  H208  1  0.09270000  0.71120000  0.73710000  1.0 0.1305412759
H  H209  1  0.26290000  0.09270000  0.28880000  1.0 0.1305412759
H  H210  1  0.26290000  0.90730000  0.71120000  1.0 0.1305412759
H  H211  1  0.73710000  0.90730000  0.28880000  1.0 0.1305412759
H  H212  1  0.73710000  0.09270000  0.71120000  1.0 0.1305412759
H  H213  1  0.28880000  0.26290000  0.09270000  1.0 0.1305412759
H  H214  1  0.71120000  0.26290000  0.90730000  1.0 0.1305412759
H  H215  1  0.28880000  0.73710000  0.90730000  1.0 0.1305412759
H  H216  1  0.71120000  0.73710000  0.09270000  1.0 0.1305412759
H  H217  1  0.90730000  0.71120000  0.73710000  1.0 0.1305412759
H  H218  1  0.09270000  0.28880000  0.73710000  1.0 0.1305412759
H  H219  1  0.09270000  0.71120000  0.26290000  1.0 0.1305412759
H  H220  1  0.90730000  0.28880000  0.26290000  1.0 0.1305412759
H  H221  1  0.73710000  0.90730000  0.71120000  1.0 0.1305412759
H  H222  1  0.73710000  0.09270000  0.28880000  1.0 0.1305412759
H  H223  1  0.26290000  0.09270000  0.71120000  1.0 0.1305412759
H  H224  1  0.26290000  0.90730000  0.28880000  1.0 0.1305412759
H  H225  1  0.71120000  0.73710000  0.90730000  1.0 0.1305412759
H  H226  1  0.28880000  0.73710000  0.09270000  1.0 0.1305412759
H  H227  1  0.71120000  0.26290000  0.09270000  1.0 0.1305412759
H  H228  1  0.28880000  0.26290000  0.90730000  1.0 0.1305412759
H  H229  1  0.02570000  0.50680000  0.42920000  0.12 0.1305412759
H  H230  1  0.97430000  0.49320000  0.42920000  0.12 0.1305412759
H  H231  1  0.97430000  0.50680000  0.57080000  0.12 0.1305412759
H  H232  1  0.02570000  0.49320000  0.57080000  0.12 0.1305412759
H  H233  1  0.42920000  0.02570000  0.50680000  0.12 0.1305412759
H  H234  1  0.42920000  0.97430000  0.49320000  0.12 0.1305412759
H  H235  1  0.57080000  0.97430000  0.50680000  0.12 0.1305412759
H  H236  1  0.57080000  0.02570000  0.49320000  0.12 0.1305412759
H  H237  1  0.50680000  0.42920000  0.02570000  0.12 0.1305412759
H  H238  1  0.49320000  0.42920000  0.97430000  0.12 0.1305412759
H  H239  1  0.50680000  0.57080000  0.97430000  0.12 0.1305412759
H  H240  1  0.49320000  0.57080000  0.02570000  0.12 0.1305412759
H  H241  1  0.97430000  0.49320000  0.57080000  0.12 0.1305412759
H  H242  1  0.02570000  0.50680000  0.57080000  0.12 0.1305412759
H  H243  1  0.02570000  0.49320000  0.42920000  0.12 0.1305412759
H  H244  1  0.97430000  0.50680000  0.42920000  0.12 0.1305412759
H  H245  1  0.57080000  0.97430000  0.49320000  0.12 0.1305412759
H  H246  1  0.57080000  0.02570000  0.50680000  0.12 0.1305412759
H  H247  1  0.42920000  0.02570000  0.49320000  0.12 0.1305412759
H  H248  1  0.42920000  0.97430000  0.50680000  0.12 0.1305412759
H  H249  1  0.49320000  0.57080000  0.97430000  0.12 0.1305412759
H  H250  1  0.50680000  0.57080000  0.02570000  0.12 0.1305412759
H  H251  1  0.49320000  0.42920000  0.02570000  0.12 0.1305412759
H  H252  1  0.50680000  0.42920000  0.97430000  0.12 0.1305412759
H  H253  1  0.09730000  0.48910000  0.34860000  0.12 0.0671390241
H  H254  1  0.90270000  0.51090000  0.34860000  0.12 0.0671390241
H  H255  1  0.90270000  0.48910000  0.65140000  0.12 0.0671390241
H  H256  1  0.09730000  0.51090000  0.65140000  0.12 0.0671390241
H  H257  1  0.34860000  0.09730000  0.48910000  0.12 0.0671390241
H  H258  1  0.34860000  0.90270000  0.51090000  0.12 0.0671390241
H  H259  1  0.65140000  0.90270000  0.48910000  0.12 0.0671390241
H  H260  1  0.65140000  0.09730000  0.51090000  0.12 0.0671390241
H  H261  1  0.48910000  0.34860000  0.09730000  0.12 0.0671390241
H  H262  1  0.51090000  0.34860000  0.90270000  0.12 0.0671390241
H  H263  1  0.48910000  0.65140000  0.90270000  0.12 0.0671390241
H  H264  1  0.51090000  0.65140000  0.09730000  0.12 0.0671390241
H  H265  1  0.90270000  0.51090000  0.65140000  0.12 0.0671390241
H  H266  1  0.09730000  0.48910000  0.65140000  0.12 0.0671390241
H  H267  1  0.09730000  0.51090000  0.34860000  0.12 0.0671390241
H  H268  1  0.90270000  0.48910000  0.34860000  0.12 0.0671390241
H  H269  1  0.65140000  0.90270000  0.51090000  0.12 0.0671390241
H  H270  1  0.65140000  0.09730000  0.48910000  0.12 0.0671390241
H  H271  1  0.34860000  0.09730000  0.51090000  0.12 0.0671390241
H  H272  1  0.34860000  0.90270000  0.48910000  0.12 0.0671390241
H  H273  1  0.51090000  0.65140000  0.90270000  0.12 0.0671390241
H  H274  1  0.48910000  0.65140000  0.09730000  0.12 0.0671390241
H  H275  1  0.51090000  0.34860000  0.09730000  0.12 0.0671390241
H  H276  1  0.48910000  0.34860000  0.90270000  0.12 0.0671390241
H  H277  1  0.11730000  0.50900000  0.44150000  0.12 0.0798371923
H  H278  1  0.88270000  0.49100000  0.44150000  0.12 0.0798371923
H  H279  1  0.88270000  0.50900000  0.55850000  0.12 0.0798371923
H  H280  1  0.11730000  0.49100000  0.55850000  0.12 0.0798371923
H  H281  1  0.44150000  0.11730000  0.50900000  0.12 0.0798371923
H  H282  1  0.44150000  0.88270000  0.49100000  0.12 0.0798371923
H  H283  1  0.55850000  0.88270000  0.50900000  0.12 0.0798371923
H  H284  1  0.55850000  0.11730000  0.49100000  0.12 0.0798371923
H  H285  1  0.50900000  0.44150000  0.11730000  0.12 0.0798371923
H  H286  1  0.49100000  0.44150000  0.88270000  0.12 0.0798371923
H  H287  1  0.50900000  0.55850000  0.88270000  0.12 0.0798371923
H  H288  1  0.49100000  0.55850000  0.11730000  0.12 0.0798371923
H  H289  1  0.88270000  0.49100000  0.55850000  0.12 0.0798371923
H  H290  1  0.11730000  0.50900000  0.55850000  0.12 0.0798371923
H  H291  1  0.11730000  0.49100000  0.44150000  0.12 0.0798371923
H  H292  1  0.88270000  0.50900000  0.44150000  0.12 0.0798371923
H  H293  1  0.55850000  0.88270000  0.49100000  0.12 0.0798371923
H  H294  1  0.55850000  0.11730000  0.50900000  0.12 0.0798371923
H  H295  1  0.44150000  0.11730000  0.49100000  0.12 0.0798371923
H  H296  1  0.44150000  0.88270000  0.50900000  0.12 0.0798371923
H  H297  1  0.49100000  0.55850000  0.88270000  0.12 0.0798371923
H  H298  1  0.50900000  0.55850000  0.11730000  0.12 0.0798371923
H  H299  1  0.49100000  0.44150000  0.11730000  0.12 0.0798371923
H  H300  1  0.50900000  0.44150000  0.88270000  0.12 0.0798371923
H  H301  1  0.15030000  0.48610000  0.40440000  0.12 0.1038885574
H  H302  1  0.84970000  0.51390000  0.40440000  0.12 0.1038885574
H  H303  1  0.84970000  0.48610000  0.59560000  0.12 0.1038885574
H  H304  1  0.15030000  0.51390000  0.59560000  0.12 0.1038885574
H  H305  1  0.40440000  0.15030000  0.48610000  0.12 0.1038885574
H  H306  1  0.40440000  0.84970000  0.51390000  0.12 0.1038885574
H  H307  1  0.59560000  0.84970000  0.48610000  0.12 0.1038885574
H  H308  1  0.59560000  0.15030000  0.51390000  0.12 0.1038885574
H  H309  1  0.48610000  0.40440000  0.15030000  0.12 0.1038885574
H  H310  1  0.51390000  0.40440000  0.84970000  0.12 0.1038885574
H  H311  1  0.48610000  0.59560000  0.84970000  0.12 0.1038885574
H  H312  1  0.51390000  0.59560000  0.15030000  0.12 0.1038885574
H  H313  1  0.84970000  0.51390000  0.59560000  0.12 0.1038885574
H  H314  1  0.15030000  0.48610000  0.59560000  0.12 0.1038885574
H  H315  1  0.15030000  0.51390000  0.40440000  0.12 0.1038885574
H  H316  1  0.84970000  0.48610000  0.40440000  0.12 0.1038885574
H  H317  1  0.59560000  0.84970000  0.51390000  0.12 0.1038885574
H  H318  1  0.59560000  0.15030000  0.48610000  0.12 0.1038885574
H  H319  1  0.40440000  0.15030000  0.51390000  0.12 0.1038885574
H  H320  1  0.40440000  0.84970000  0.48610000  0.12 0.1038885574
H  H321  1  0.51390000  0.59560000  0.84970000  0.12 0.1038885574
H  H322  1  0.48610000  0.59560000  0.15030000  0.12 0.1038885574
H  H323  1  0.51390000  0.40440000  0.15030000  0.12 0.1038885574
H  H324  1  0.48610000  0.40440000  0.84970000  0.12 0.1038885574
H  H325  1  0.15950000  0.57090000  0.42040000  0.12 0.1305412759
H  H326  1  0.84050000  0.42910000  0.42040000  0.12 0.1305412759
H  H327  1  0.84050000  0.57090000  0.57960000  0.12 0.1305412759
H  H328  1  0.15950000  0.42910000  0.57960000  0.12 0.1305412759
H  H329  1  0.42040000  0.15950000  0.57090000  0.12 0.1305412759
H  H330  1  0.42040000  0.84050000  0.42910000  0.12 0.1305412759
H  H331  1  0.57960000  0.84050000  0.57090000  0.12 0.1305412759
H  H332  1  0.57960000  0.15950000  0.42910000  0.12 0.1305412759
H  H333  1  0.57090000  0.42040000  0.15950000  0.12 0.1305412759
H  H334  1  0.42910000  0.42040000  0.84050000  0.12 0.1305412759
H  H335  1  0.57090000  0.57960000  0.84050000  0.12 0.1305412759
H  H336  1  0.42910000  0.57960000  0.15950000  0.12 0.1305412759
H  H337  1  0.84050000  0.42910000  0.57960000  0.12 0.1305412759
H  H338  1  0.15950000  0.57090000  0.57960000  0.12 0.1305412759
H  H339  1  0.15950000  0.42910000  0.42040000  0.12 0.1305412759
H  H340  1  0.84050000  0.57090000  0.42040000  0.12 0.1305412759
H  H341  1  0.57960000  0.84050000  0.42910000  0.12 0.1305412759
H  H342  1  0.57960000  0.15950000  0.57090000  0.12 0.1305412759
H  H343  1  0.42040000  0.15950000  0.42910000  0.12 0.1305412759
H  H344  1  0.42040000  0.84050000  0.57090000  0.12 0.1305412759
H  H345  1  0.42910000  0.57960000  0.84050000  0.12 0.1305412759
H  H346  1  0.57090000  0.57960000  0.15950000  0.12 0.1305412759
H  H347  1  0.42910000  0.42040000  0.15950000  0.12 0.1305412759
H  H348  1  0.57090000  0.42040000  0.84050000  0.12 0.1305412759
H  H349  1  0.15730000  0.55620000  0.36830000  0.12 0.1116162642
H  H350  1  0.84270000  0.44380000  0.36830000  0.12 0.1116162642
H  H351  1  0.84270000  0.55620000  0.63170000  0.12 0.1116162642
H  H352  1  0.15730000  0.44380000  0.63170000  0.12 0.1116162642
H  H353  1  0.36830000  0.15730000  0.55620000  0.12 0.1116162642
H  H354  1  0.36830000  0.84270000  0.44380000  0.12 0.1116162642
H  H355  1  0.63170000  0.84270000  0.55620000  0.12 0.1116162642
H  H356  1  0.63170000  0.15730000  0.44380000  0.12 0.1116162642
H  H357  1  0.55620000  0.36830000  0.15730000  0.12 0.1116162642
H  H358  1  0.44380000  0.36830000  0.84270000  0.12 0.1116162642
H  H359  1  0.55620000  0.63170000  0.84270000  0.12 0.1116162642
H  H360  1  0.44380000  0.63170000  0.15730000  0.12 0.1116162642
H  H361  1  0.84270000  0.44380000  0.63170000  0.12 0.1116162642
H  H362  1  0.15730000  0.55620000  0.63170000  0.12 0.1116162642
H  H363  1  0.15730000  0.44380000  0.36830000  0.12 0.1116162642
H  H364  1  0.84270000  0.55620000  0.36830000  0.12 0.1116162642
H  H365  1  0.63170000  0.84270000  0.44380000  0.12 0.1116162642
H  H366  1  0.63170000  0.15730000  0.55620000  0.12 0.1116162642
H  H367  1  0.36830000  0.15730000  0.44380000  0.12 0.1116162642
H  H368  1  0.36830000  0.84270000  0.55620000  0.12 0.1116162642
H  H369  1  0.44380000  0.63170000  0.84270000  0.12 0.1116162642
H  H370  1  0.55620000  0.63170000  0.15730000  0.12 0.1116162642
H  H371  1  0.44380000  0.36830000  0.15730000  0.12 0.1116162642
H  H372  1  0.55620000  0.36830000  0.84270000  0.12 0.1116162642
H  H373  1  0.08420000  0.59060000  0.41920000  0.12 0.1381384115
H  H374  1  0.91580000  0.40940000  0.41920000  0.12 0.1381384115
H  H375  1  0.91580000  0.59060000  0.58080000  0.12 0.1381384115
H  H376  1  0.08420000  0.40940000  0.58080000  0.12 0.1381384115
H  H377  1  0.41920000  0.08420000  0.59060000  0.12 0.1381384115
H  H378  1  0.41920000  0.91580000  0.40940000  0.12 0.1381384115
H  H379  1  0.58080000  0.91580000  0.59060000  0.12 0.1381384115
H  H380  1  0.58080000  0.08420000  0.40940000  0.12 0.1381384115
H  H381  1  0.59060000  0.41920000  0.08420000  0.12 0.1381384115
H  H382  1  0.40940000  0.41920000  0.91580000  0.12 0.1381384115
H  H383  1  0.59060000  0.58080000  0.91580000  0.12 0.1381384115
H  H384  1  0.40940000  0.58080000  0.08420000  0.12 0.1381384115
H  H385  1  0.91580000  0.40940000  0.58080000  0.12 0.1381384115
H  H386  1  0.08420000  0.59060000  0.58080000  0.12 0.1381384115
H  H387  1  0.08420000  0.40940000  0.41920000  0.12 0.1381384115
H  H388  1  0.91580000  0.59060000  0.41920000  0.12 0.1381384115
H  H389  1  0.58080000  0.91580000  0.40940000  0.12 0.1381384115
H  H390  1  0.58080000  0.08420000  0.59060000  0.12 0.1381384115
H  H391  1  0.41920000  0.08420000  0.40940000  0.12 0.1381384115
H  H392  1  0.41920000  0.91580000  0.59060000  0.12 0.1381384115
H  H393  1  0.40940000  0.58080000  0.91580000  0.12 0.1381384115
H  H394  1  0.59060000  0.58080000  0.08420000  0.12 0.1381384115
H  H395  1  0.40940000  0.41920000  0.08420000  0.12 0.1381384115
H  H396  1  0.59060000  0.41920000  0.91580000  0.12 0.1381384115
H  H397  1  0.09830000  0.60650000  0.36870000  0.12 0.1116162642
H  H398  1  0.90170000  0.39350000  0.36870000  0.12 0.1116162642
H  H399  1  0.90170000  0.60650000  0.63130000  0.12 0.1116162642
H  H400  1  0.09830000  0.39350000  0.63130000  0.12 0.1116162642
H  H401  1  0.36870000  0.09830000  0.60650000  0.12 0.1116162642
H  H402  1  0.36870000  0.90170000  0.39350000  0.12 0.1116162642
H  H403  1  0.63130000  0.90170000  0.60650000  0.12 0.1116162642
H  H404  1  0.63130000  0.09830000  0.39350000  0.12 0.1116162642
H  H405  1  0.60650000  0.36870000  0.09830000  0.12 0.1116162642
H  H406  1  0.39350000  0.36870000  0.90170000  0.12 0.1116162642
H  H407  1  0.60650000  0.63130000  0.90170000  0.12 0.1116162642
H  H408  1  0.39350000  0.63130000  0.09830000  0.12 0.1116162642
H  H409  1  0.90170000  0.39350000  0.63130000  0.12 0.1116162642
H  H410  1  0.09830000  0.60650000  0.63130000  0.12 0.1116162642
H  H411  1  0.09830000  0.39350000  0.36870000  0.12 0.1116162642
H  H412  1  0.90170000  0.60650000  0.36870000  0.12 0.1116162642
H  H413  1  0.63130000  0.90170000  0.39350000  0.12 0.1116162642
H  H414  1  0.63130000  0.09830000  0.60650000  0.12 0.1116162642
H  H415  1  0.36870000  0.09830000  0.39350000  0.12 0.1116162642
H  H416  1  0.36870000  0.90170000  0.60650000  0.12 0.1116162642
H  H417  1  0.39350000  0.63130000  0.90170000  0.12 0.1116162642
H  H418  1  0.60650000  0.63130000  0.09830000  0.12 0.1116162642
H  H419  1  0.39350000  0.36870000  0.09830000  0.12 0.1116162642
H  H420  1  0.60650000  0.36870000  0.90170000  0.12 0.1116162642
H  H421  1  0.93870000  0.56150000  0.35190000  0.12 0.1381384115
H  H422  1  0.06130000  0.43850000  0.35190000  0.12 0.1381384115
H  H423  1  0.06130000  0.56150000  0.64810000  0.12 0.1381384115
H  H424  1  0.93870000  0.43850000  0.64810000  0.12 0.1381384115
H  H425  1  0.35190000  0.93870000  0.56150000  0.12 0.1381384115
H  H426  1  0.35190000  0.06130000  0.43850000  0.12 0.1381384115
H  H427  1  0.64810000  0.06130000  0.56150000  0.12 0.1381384115
H  H428  1  0.64810000  0.93870000  0.43850000  0.12 0.1381384115
H  H429  1  0.56150000  0.35190000  0.93870000  0.12 0.1381384115
H  H430  1  0.43850000  0.35190000  0.06130000  0.12 0.1381384115
H  H431  1  0.56150000  0.64810000  0.06130000  0.12 0.1381384115
H  H432  1  0.43850000  0.64810000  0.93870000  0.12 0.1381384115
H  H433  1  0.06130000  0.43850000  0.64810000  0.12 0.1381384115
H  H434  1  0.93870000  0.56150000  0.64810000  0.12 0.1381384115
H  H435  1  0.93870000  0.43850000  0.35190000  0.12 0.1381384115
H  H436  1  0.06130000  0.56150000  0.35190000  0.12 0.1381384115
H  H437  1  0.64810000  0.06130000  0.43850000  0.12 0.1381384115
H  H438  1  0.64810000  0.93870000  0.56150000  0.12 0.1381384115
H  H439  1  0.35190000  0.93870000  0.43850000  0.12 0.1381384115
H  H440  1  0.35190000  0.06130000  0.56150000  0.12 0.1381384115
H  H441  1  0.43850000  0.64810000  0.06130000  0.12 0.1381384115
H  H442  1  0.56150000  0.64810000  0.93870000  0.12 0.1381384115
H  H443  1  0.43850000  0.35190000  0.93870000  0.12 0.1381384115
H  H444  1  0.56150000  0.35190000  0.06130000  0.12 0.1381384115
H  H445  1  0.94130000  0.51060000  0.37460000  0.12 0.1038885574
H  H446  1  0.05870000  0.48940000  0.37460000  0.12 0.1038885574
H  H447  1  0.05870000  0.51060000  0.62540000  0.12 0.1038885574
H  H448  1  0.94130000  0.48940000  0.62540000  0.12 0.1038885574
H  H449  1  0.37460000  0.94130000  0.51060000  0.12 0.1038885574
H  H450  1  0.37460000  0.05870000  0.48940000  0.12 0.1038885574
H  H451  1  0.62540000  0.05870000  0.51060000  0.12 0.1038885574
H  H452  1  0.62540000  0.94130000  0.48940000  0.12 0.1038885574
H  H453  1  0.51060000  0.37460000  0.94130000  0.12 0.1038885574
H  H454  1  0.48940000  0.37460000  0.05870000  0.12 0.1038885574
H  H455  1  0.51060000  0.62540000  0.05870000  0.12 0.1038885574
H  H456  1  0.48940000  0.62540000  0.94130000  0.12 0.1038885574
H  H457  1  0.05870000  0.48940000  0.62540000  0.12 0.1038885574
H  H458  1  0.94130000  0.51060000  0.62540000  0.12 0.1038885574
H  H459  1  0.94130000  0.48940000  0.37460000  0.12 0.1038885574
H  H460  1  0.05870000  0.51060000  0.37460000  0.12 0.1038885574
H  H461  1  0.62540000  0.05870000  0.48940000  0.12 0.1038885574
H  H462  1  0.62540000  0.94130000  0.51060000  0.12 0.1038885574
H  H463  1  0.37460000  0.94130000  0.48940000  0.12 0.1038885574
H  H464  1  0.37460000  0.05870000  0.51060000  0.12 0.1038885574
H  H465  1  0.48940000  0.62540000  0.05870000  0.12 0.1038885574
H  H466  1  0.51060000  0.62540000  0.94130000  0.12 0.1038885574
H  H467  1  0.48940000  0.37460000  0.94130000  0.12 0.1038885574
H  H468  1  0.51060000  0.37460000  0.05870000  0.12 0.1038885574
H  H469  1  0.90680000  0.52280000  0.33670000  0.12 0.0671390241
H  H470  1  0.09320000  0.47720000  0.33670000  0.12 0.0671390241
H  H471  1  0.09320000  0.52280000  0.66330000  0.12 0.0671390241
H  H472  1  0.90680000  0.47720000  0.66330000  0.12 0.0671390241
H  H473  1  0.33670000  0.90680000  0.52280000  0.12 0.0671390241
H  H474  1  0.33670000  0.09320000  0.47720000  0.12 0.0671390241
H  H475  1  0.66330000  0.09320000  0.52280000  0.12 0.0671390241
H  H476  1  0.66330000  0.90680000  0.47720000  0.12 0.0671390241
H  H477  1  0.52280000  0.33670000  0.90680000  0.12 0.0671390241
H  H478  1  0.47720000  0.33670000  0.09320000  0.12 0.0671390241
H  H479  1  0.52280000  0.66330000  0.09320000  0.12 0.0671390241
H  H480  1  0.47720000  0.66330000  0.90680000  0.12 0.0671390241
H  H481  1  0.09320000  0.47720000  0.66330000  0.12 0.0671390241
H  H482  1  0.90680000  0.52280000  0.66330000  0.12 0.0671390241
H  H483  1  0.90680000  0.47720000  0.33670000  0.12 0.0671390241
H  H484  1  0.09320000  0.52280000  0.33670000  0.12 0.0671390241
H  H485  1  0.66330000  0.09320000  0.47720000  0.12 0.0671390241
H  H486  1  0.66330000  0.90680000  0.52280000  0.12 0.0671390241
H  H487  1  0.33670000  0.90680000  0.47720000  0.12 0.0671390241
H  H488  1  0.33670000  0.09320000  0.52280000  0.12 0.0671390241
H  H489  1  0.47720000  0.66330000  0.09320000  0.12 0.0671390241
H  H490  1  0.52280000  0.66330000  0.90680000  0.12 0.0671390241
H  H491  1  0.47720000  0.33670000  0.90680000  0.12 0.0671390241
H  H492  1  0.52280000  0.33670000  0.09320000  0.12 0.0671390241
H  H493  1  0.96890000  0.57370000  0.27530000  0.12 0.0515275098
H  H494  1  0.03110000  0.42630000  0.27530000  0.12 0.0515275098
H  H495  1  0.03110000  0.57370000  0.72470000  0.12 0.0515275098
H  H496  1  0.96890000  0.42630000  0.72470000  0.12 0.0515275098
H  H497  1  0.27530000  0.96890000  0.57370000  0.12 0.0515275098
H  H498  1  0.27530000  0.03110000  0.42630000  0.12 0.0515275098
H  H499  1  0.72470000  0.03110000  0.57370000  0.12 0.0515275098
H  H500  1  0.72470000  0.96890000  0.42630000  0.12 0.0515275098
H  H501  1  0.57370000  0.27530000  0.96890000  0.12 0.0515275098
H  H502  1  0.42630000  0.27530000  0.03110000  0.12 0.0515275098
H  H503  1  0.57370000  0.72470000  0.03110000  0.12 0.0515275098
H  H504  1  0.42630000  0.72470000  0.96890000  0.12 0.0515275098
H  H505  1  0.03110000  0.42630000  0.72470000  0.12 0.0515275098
H  H506  1  0.96890000  0.57370000  0.72470000  0.12 0.0515275098
H  H507  1  0.96890000  0.42630000  0.27530000  0.12 0.0515275098
H  H508  1  0.03110000  0.57370000  0.27530000  0.12 0.0515275098
H  H509  1  0.72470000  0.03110000  0.42630000  0.12 0.0515275098
H  H510  1  0.72470000  0.96890000  0.57370000  0.12 0.0515275098
H  H511  1  0.27530000  0.96890000  0.42630000  0.12 0.0515275098
H  H512  1  0.27530000  0.03110000  0.57370000  0.12 0.0515275098
H  H513  1  0.42630000  0.72470000  0.03110000  0.12 0.0515275098
H  H514  1  0.57370000  0.72470000  0.96890000  0.12 0.0515275098
H  H515  1  0.42630000  0.27530000  0.96890000  0.12 0.0515275098
H  H516  1  0.57370000  0.27530000  0.03110000  0.12 0.0515275098
H  H517  1  0.93460000  0.53510000  0.25340000  0.12 0.0798371923
H  H518  1  0.06540000  0.46490000  0.25340000  0.12 0.0798371923
H  H519  1  0.06540000  0.53510000  0.74660000  0.12 0.0798371923
H  H520  1  0.93460000  0.46490000  0.74660000  0.12 0.0798371923
H  H521  1  0.25340000  0.93460000  0.53510000  0.12 0.0798371923
H  H522  1  0.25340000  0.06540000  0.46490000  0.12 0.0798371923
H  H523  1  0.74660000  0.06540000  0.53510000  0.12 0.0798371923
H  H524  1  0.74660000  0.93460000  0.46490000  0.12 0.0798371923
H  H525  1  0.53510000  0.25340000  0.93460000  0.12 0.0798371923
H  H526  1  0.46490000  0.25340000  0.06540000  0.12 0.0798371923
H  H527  1  0.53510000  0.74660000  0.06540000  0.12 0.0798371923
H  H528  1  0.46490000  0.74660000  0.93460000  0.12 0.0798371923
H  H529  1  0.06540000  0.46490000  0.74660000  0.12 0.0798371923
H  H530  1  0.93460000  0.53510000  0.74660000  0.12 0.0798371923
H  H531  1  0.93460000  0.46490000  0.25340000  0.12 0.0798371923
H  H532  1  0.06540000  0.53510000  0.25340000  0.12 0.0798371923
H  H533  1  0.74660000  0.06540000  0.46490000  0.12 0.0798371923
H  H534  1  0.74660000  0.93460000  0.53510000  0.12 0.0798371923
H  H535  1  0.25340000  0.93460000  0.46490000  0.12 0.0798371923
H  H536  1  0.25340000  0.06540000  0.53510000  0.12 0.0798371923
H  H537  1  0.46490000  0.74660000  0.06540000  0.12 0.0798371923
H  H538  1  0.53510000  0.74660000  0.93460000  0.12 0.0798371923
H  H539  1  0.46490000  0.25340000  0.93460000  0.12 0.0798371923
H  H540  1  0.53510000  0.25340000  0.06540000  0.12 0.0798371923
H  H541  1  0.99030000  0.53110000  0.24690000  0.12 0.0798371923
H  H542  1  0.00970000  0.46890000  0.24690000  0.12 0.0798371923
H  H543  1  0.00970000  0.53110000  0.75310000  0.12 0.0798371923
H  H544  1  0.99030000  0.46890000  0.75310000  0.12 0.0798371923
H  H545  1  0.24690000  0.99030000  0.53110000  0.12 0.0798371923
H  H546  1  0.24690000  0.00970000  0.46890000  0.12 0.0798371923
H  H547  1  0.75310000  0.00970000  0.53110000  0.12 0.0798371923
H  H548  1  0.75310000  0.99030000  0.46890000  0.12 0.0798371923
H  H549  1  0.53110000  0.24690000  0.99030000  0.12 0.0798371923
H  H550  1  0.46890000  0.24690000  0.00970000  0.12 0.0798371923
H  H551  1  0.53110000  0.75310000  0.00970000  0.12 0.0798371923
H  H552  1  0.46890000  0.75310000  0.99030000  0.12 0.0798371923
H  H553  1  0.00970000  0.46890000  0.75310000  0.12 0.0798371923
H  H554  1  0.99030000  0.53110000  0.75310000  0.12 0.0798371923
H  H555  1  0.99030000  0.46890000  0.24690000  0.12 0.0798371923
H  H556  1  0.00970000  0.53110000  0.24690000  0.12 0.0798371923
H  H557  1  0.75310000  0.00970000  0.46890000  0.12 0.0798371923
H  H558  1  0.75310000  0.99030000  0.53110000  0.12 0.0798371923
H  H559  1  0.24690000  0.99030000  0.46890000  0.12 0.0798371923
H  H560  1  0.24690000  0.00970000  0.53110000  0.12 0.0798371923
H  H561  1  0.46890000  0.75310000  0.00970000  0.12 0.0798371923
H  H562  1  0.53110000  0.75310000  0.99030000  0.12 0.0798371923
H  H563  1  0.46890000  0.24690000  0.99030000  0.12 0.0798371923
H  H564  1  0.53110000  0.24690000  0.00970000  0.12 0.0798371923
H  H565  1  0.93490000  0.45900000  0.28990000  0.12 0.0798371923
H  H566  1  0.06510000  0.54100000  0.28990000  0.12 0.0798371923
H  H567  1  0.06510000  0.45900000  0.71010000  0.12 0.0798371923
H  H568  1  0.93490000  0.54100000  0.71010000  0.12 0.0798371923
H  H569  1  0.28990000  0.93490000  0.45900000  0.12 0.0798371923
H  H570  1  0.28990000  0.06510000  0.54100000  0.12 0.0798371923
H  H571  1  0.71010000  0.06510000  0.45900000  0.12 0.0798371923
H  H572  1  0.71010000  0.93490000  0.54100000  0.12 0.0798371923
H  H573  1  0.45900000  0.28990000  0.93490000  0.12 0.0798371923
H  H574  1  0.54100000  0.28990000  0.06510000  0.12 0.0798371923
H  H575  1  0.45900000  0.71010000  0.06510000  0.12 0.0798371923
H  H576  1  0.54100000  0.71010000  0.93490000  0.12 0.0798371923
H  H577  1  0.06510000  0.54100000  0.71010000  0.12 0.0798371923
H  H578  1  0.93490000  0.45900000  0.71010000  0.12 0.0798371923
H  H579  1  0.93490000  0.54100000  0.28990000  0.12 0.0798371923
H  H580  1  0.06510000  0.45900000  0.28990000  0.12 0.0798371923
H  H581  1  0.71010000  0.06510000  0.54100000  0.12 0.0798371923
H  H582  1  0.71010000  0.93490000  0.45900000  0.12 0.0798371923
H  H583  1  0.28990000  0.93490000  0.54100000  0.12 0.0798371923
H  H584  1  0.28990000  0.06510000  0.45900000  0.12 0.0798371923
H  H585  1  0.54100000  0.71010000  0.06510000  0.12 0.0798371923
H  H586  1  0.45900000  0.71010000  0.93490000  0.12 0.0798371923
H  H587  1  0.54100000  0.28990000  0.93490000  0.12 0.0798371923
H  H588  1  0.45900000  0.28990000  0.06510000  0.12 0.0798371923
H  H589  1  0.97000000  0.44710000  0.32770000  0.12 0.1305412759
H  H590  1  0.03000000  0.55290000  0.32770000  0.12 0.1305412759
H  H591  1  0.03000000  0.44710000  0.67230000  0.12 0.1305412759
H  H592  1  0.97000000  0.55290000  0.67230000  0.12 0.1305412759
H  H593  1  0.32770000  0.97000000  0.44710000  0.12 0.1305412759
H  H594  1  0.32770000  0.03000000  0.55290000  0.12 0.1305412759
H  H595  1  0.67230000  0.03000000  0.44710000  0.12 0.1305412759
H  H596  1  0.67230000  0.97000000  0.55290000  0.12 0.1305412759
H  H597  1  0.44710000  0.32770000  0.97000000  0.12 0.1305412759
H  H598  1  0.55290000  0.32770000  0.03000000  0.12 0.1305412759
H  H599  1  0.44710000  0.67230000  0.03000000  0.12 0.1305412759
H  H600  1  0.55290000  0.67230000  0.97000000  0.12 0.1305412759
H  H601  1  0.03000000  0.55290000  0.67230000  0.12 0.1305412759
H  H602  1  0.97000000  0.44710000  0.67230000  0.12 0.1305412759
H  H603  1  0.97000000  0.55290000  0.32770000  0.12 0.1305412759
H  H604  1  0.03000000  0.44710000  0.32770000  0.12 0.1305412759
H  H605  1  0.67230000  0.03000000  0.55290000  0.12 0.1305412759
H  H606  1  0.67230000  0.97000000  0.44710000  0.12 0.1305412759
H  H607  1  0.32770000  0.97000000  0.55290000  0.12 0.1305412759
H  H608  1  0.32770000  0.03000000  0.44710000  0.12 0.1305412759
H  H609  1  0.55290000  0.67230000  0.03000000  0.12 0.1305412759
H  H610  1  0.44710000  0.67230000  0.97000000  0.12 0.1305412759
H  H611  1  0.55290000  0.32770000  0.97000000  0.12 0.1305412759
H  H612  1  0.44710000  0.32770000  0.03000000  0.12 0.1305412759
H  H613  1  0.98780000  0.45550000  0.27530000  0.12 0.0387905068
H  H614  1  0.01220000  0.54450000  0.27530000  0.12 0.0387905068
H  H615  1  0.01220000  0.45550000  0.72470000  0.12 0.0387905068
H  H616  1  0.98780000  0.54450000  0.72470000  0.12 0.0387905068
H  H617  1  0.27530000  0.98780000  0.45550000  0.12 0.0387905068
H  H618  1  0.27530000  0.01220000  0.54450000  0.12 0.0387905068
H  H619  1  0.72470000  0.01220000  0.45550000  0.12 0.0387905068
H  H620  1  0.72470000  0.98780000  0.54450000  0.12 0.0387905068
H  H621  1  0.45550000  0.27530000  0.98780000  0.12 0.0387905068
H  H622  1  0.54450000  0.27530000  0.01220000  0.12 0.0387905068
H  H623  1  0.45550000  0.72470000  0.01220000  0.12 0.0387905068
H  H624  1  0.54450000  0.72470000  0.98780000  0.12 0.0387905068
H  H625  1  0.01220000  0.54450000  0.72470000  0.12 0.0387905068
H  H626  1  0.98780000  0.45550000  0.72470000  0.12 0.0387905068
H  H627  1  0.98780000  0.54450000  0.27530000  0.12 0.0387905068
H  H628  1  0.01220000  0.45550000  0.27530000  0.12 0.0387905068
H  H629  1  0.72470000  0.01220000  0.54450000  0.12 0.0387905068
H  H630  1  0.72470000  0.98780000  0.45550000  0.12 0.0387905068
H  H631  1  0.27530000  0.98780000  0.54450000  0.12 0.0387905068
H  H632  1  0.27530000  0.01220000  0.45550000  0.12 0.0387905068
H  H633  1  0.54450000  0.72470000  0.01220000  0.12 0.0387905068
H  H634  1  0.45550000  0.72470000  0.98780000  0.12 0.0387905068
H  H635  1  0.54450000  0.27530000  0.98780000  0.12 0.0387905068
H  H636  1  0.45550000  0.27530000  0.01220000  0.12 0.0387905068
H  H637  1  0.02980000  0.46690000  0.44060000  0.38 0.1038885574
H  H638  1  0.97020000  0.53310000  0.44060000  0.38 0.1038885574
H  H639  1  0.97020000  0.46690000  0.55940000  0.38 0.1038885574
H  H640  1  0.02980000  0.53310000  0.55940000  0.38 0.1038885574
H  H641  1  0.44060000  0.02980000  0.46690000  0.38 0.1038885574
H  H642  1  0.44060000  0.97020000  0.53310000  0.38 0.1038885574
H  H643  1  0.55940000  0.97020000  0.46690000  0.38 0.1038885574
H  H644  1  0.55940000  0.02980000  0.53310000  0.38 0.1038885574
H  H645  1  0.46690000  0.44060000  0.02980000  0.38 0.1038885574
H  H646  1  0.53310000  0.44060000  0.97020000  0.38 0.1038885574
H  H647  1  0.46690000  0.55940000  0.97020000  0.38 0.1038885574
H  H648  1  0.53310000  0.55940000  0.02980000  0.38 0.1038885574
H  H649  1  0.97020000  0.53310000  0.55940000  0.38 0.1038885574
H  H650  1  0.02980000  0.46690000  0.55940000  0.38 0.1038885574
H  H651  1  0.02980000  0.53310000  0.44060000  0.38 0.1038885574
H  H652  1  0.97020000  0.46690000  0.44060000  0.38 0.1038885574
H  H653  1  0.55940000  0.97020000  0.53310000  0.38 0.1038885574
H  H654  1  0.55940000  0.02980000  0.46690000  0.38 0.1038885574
H  H655  1  0.44060000  0.02980000  0.53310000  0.38 0.1038885574
H  H656  1  0.44060000  0.97020000  0.46690000  0.38 0.1038885574
H  H657  1  0.53310000  0.55940000  0.97020000  0.38 0.1038885574
H  H658  1  0.46690000  0.55940000  0.02980000  0.38 0.1038885574
H  H659  1  0.53310000  0.44060000  0.02980000  0.38 0.1038885574
H  H660  1  0.46690000  0.44060000  0.97020000  0.38 0.1038885574
H  H661  1  0.02780000  0.39050000  0.43960000  0.5 0.1305412759
H  H662  1  0.97220000  0.60950000  0.43960000  0.5 0.1305412759
H  H663  1  0.97220000  0.39050000  0.56040000  0.5 0.1305412759
H  H664  1  0.02780000  0.60950000  0.56040000  0.5 0.1305412759
H  H665  1  0.43960000  0.02780000  0.39050000  0.5 0.1305412759
H  H666  1  0.43960000  0.97220000  0.60950000  0.5 0.1305412759
H  H667  1  0.56040000  0.97220000  0.39050000  0.5 0.1305412759
H  H668  1  0.56040000  0.02780000  0.60950000  0.5 0.1305412759
H  H669  1  0.39050000  0.43960000  0.02780000  0.5 0.1305412759
H  H670  1  0.60950000  0.43960000  0.97220000  0.5 0.1305412759
H  H671  1  0.39050000  0.56040000  0.97220000  0.5 0.1305412759
H  H672  1  0.60950000  0.56040000  0.02780000  0.5 0.1305412759
H  H673  1  0.97220000  0.60950000  0.56040000  0.5 0.1305412759
H  H674  1  0.02780000  0.39050000  0.56040000  0.5 0.1305412759
H  H675  1  0.02780000  0.60950000  0.43960000  0.5 0.1305412759
H  H676  1  0.97220000  0.39050000  0.43960000  0.5 0.1305412759
H  H677  1  0.56040000  0.97220000  0.60950000  0.5 0.1305412759
H  H678  1  0.56040000  0.02780000  0.39050000  0.5 0.1305412759
H  H679  1  0.43960000  0.02780000  0.60950000  0.5 0.1305412759
H  H680  1  0.43960000  0.97220000  0.39050000  0.5 0.1305412759
H  H681  1  0.60950000  0.56040000  0.97220000  0.5 0.1305412759
H  H682  1  0.39050000  0.56040000  0.02780000  0.5 0.1305412759
H  H683  1  0.60950000  0.43960000  0.02780000  0.5 0.1305412759
H  H684  1  0.39050000  0.43960000  0.97220000  0.5 0.1305412759
C  C1  1  0.00000000  0.09606000  0.50000000  1.0 0.6080798921
C  C2  1  0.00000000  0.90394000  0.50000000  1.0 0.6080798921
C  C3  1  0.50000000  0.00000000  0.09606000  1.0 0.6080798921
C  C4  1  0.50000000  0.00000000  0.90394000  1.0 0.6080798921
C  C5  1  0.09606000  0.50000000  0.00000000  1.0 0.6080798921
C  C6  1  0.90394000  0.50000000  0.00000000  1.0 0.6080798921
C  C7  1  0.00000000  0.04623000  0.50000000  1.0 -0.037188949
C  C8  1  0.00000000  0.95377000  0.50000000  1.0 -0.037188949
C  C9  1  0.50000000  0.00000000  0.04623000  1.0 -0.037188949
C  C10  1  0.50000000  0.00000000  0.95377000  1.0 -0.037188949
C  C11  1  0.04623000  0.50000000  0.00000000  1.0 -0.037188949
C  C12  1  0.95377000  0.50000000  0.00000000  1.0 -0.037188949
C  C13  1  0.03942000  0.02280000  0.50000000  1.0 -0.0840817197
C  C14  1  0.96058000  0.97720000  0.50000000  1.0 -0.0840817197
C  C15  1  0.96058000  0.02280000  0.50000000  1.0 -0.0840817197
C  C16  1  0.03942000  0.97720000  0.50000000  1.0 -0.0840817197
C  C17  1  0.50000000  0.03942000  0.02280000  1.0 -0.0840817197
C  C18  1  0.50000000  0.96058000  0.97720000  1.0 -0.0840817197
C  C19  1  0.50000000  0.96058000  0.02280000  1.0 -0.0840817197
C  C20  1  0.50000000  0.03942000  0.97720000  1.0 -0.0840817197
C  C21  1  0.02280000  0.50000000  0.03942000  1.0 -0.0840817197
C  C22  1  0.97720000  0.50000000  0.96058000  1.0 -0.0840817197
C  C23  1  0.02280000  0.50000000  0.96058000  1.0 -0.0840817197
C  C24  1  0.97720000  0.50000000  0.03942000  1.0 -0.0840817197
C  C25  1  0.00000000  0.33270000  0.50000000  1.0 0.559915433
C  C26  1  0.00000000  0.66730000  0.50000000  1.0 0.559915433
C  C27  1  0.50000000  0.00000000  0.33270000  1.0 0.559915433
C  C28  1  0.50000000  0.00000000  0.66730000  1.0 0.559915433
C  C29  1  0.33270000  0.50000000  0.00000000  1.0 0.559915433
C  C30  1  0.66730000  0.50000000  0.00000000  1.0 0.559915433
C  C31  1  0.00000000  0.38230000  0.50000000  1.0 0.0293253914
C  C32  1  0.00000000  0.61770000  0.50000000  1.0 0.0293253914
C  C33  1  0.50000000  0.00000000  0.38230000  1.0 0.0293253914
C  C34  1  0.50000000  0.00000000  0.61770000  1.0 0.0293253914
C  C35  1  0.38230000  0.50000000  0.00000000  1.0 0.0293253914
C  C36  1  0.61770000  0.50000000  0.00000000  1.0 0.0293253914
C  C37  1  0.00000000  0.47530000  0.50000000  1.0 -0.2189344966
C  C38  1  0.00000000  0.52470000  0.50000000  1.0 -0.2189344966
C  C39  1  0.50000000  0.00000000  0.47530000  1.0 -0.2189344966
C  C40  1  0.50000000  0.00000000  0.52470000  1.0 -0.2189344966
C  C41  1  0.47530000  0.50000000  0.00000000  1.0 -0.2189344966
C  C42  1  0.52470000  0.50000000  0.00000000  1.0 -0.2189344966
C  C43  1  0.08468000  0.21482000  0.41586000  1.0 0.6080798921
C  C44  1  0.91532000  0.78518000  0.41586000  1.0 0.6080798921
C  C45  1  0.91532000  0.21482000  0.58414000  1.0 0.6080798921
C  C46  1  0.08468000  0.78518000  0.58414000  1.0 0.6080798921
C  C47  1  0.41586000  0.08468000  0.21482000  1.0 0.6080798921
C  C48  1  0.41586000  0.91532000  0.78518000  1.0 0.6080798921
C  C49  1  0.58414000  0.91532000  0.21482000  1.0 0.6080798921
C  C50  1  0.58414000  0.08468000  0.78518000  1.0 0.6080798921
C  C51  1  0.21482000  0.41586000  0.08468000  1.0 0.6080798921
C  C52  1  0.78518000  0.41586000  0.91532000  1.0 0.6080798921
C  C53  1  0.21482000  0.58414000  0.91532000  1.0 0.6080798921
C  C54  1  0.78518000  0.58414000  0.08468000  1.0 0.6080798921
C  C55  1  0.91532000  0.78518000  0.58414000  1.0 0.6080798921
C  C56  1  0.08468000  0.21482000  0.58414000  1.0 0.6080798921
C  C57  1  0.08468000  0.78518000  0.41586000  1.0 0.6080798921
C  C58  1  0.91532000  0.21482000  0.41586000  1.0 0.6080798921
C  C59  1  0.58414000  0.91532000  0.78518000  1.0 0.6080798921
C  C60  1  0.58414000  0.08468000  0.21482000  1.0 0.6080798921
C  C61  1  0.41586000  0.08468000  0.78518000  1.0 0.6080798921
C  C62  1  0.41586000  0.91532000  0.21482000  1.0 0.6080798921
C  C63  1  0.78518000  0.58414000  0.91532000  1.0 0.6080798921
C  C64  1  0.21482000  0.58414000  0.08468000  1.0 0.6080798921
C  C65  1  0.78518000  0.41586000  0.08468000  1.0 0.6080798921
C  C66  1  0.21482000  0.41586000  0.91532000  1.0 0.6080798921
C  C67  1  0.12040000  0.21501000  0.38109000  1.0 -0.037188949
C  C68  1  0.87960000  0.78499000  0.38109000  1.0 -0.037188949
C  C69  1  0.87960000  0.21501000  0.61891000  1.0 -0.037188949
C  C70  1  0.12040000  0.78499000  0.61891000  1.0 -0.037188949
C  C71  1  0.38109000  0.12040000  0.21501000  1.0 -0.037188949
C  C72  1  0.38109000  0.87960000  0.78499000  1.0 -0.037188949
C  C73  1  0.61891000  0.87960000  0.21501000  1.0 -0.037188949
C  C74  1  0.61891000  0.12040000  0.78499000  1.0 -0.037188949
C  C75  1  0.21501000  0.38109000  0.12040000  1.0 -0.037188949
C  C76  1  0.78499000  0.38109000  0.87960000  1.0 -0.037188949
C  C77  1  0.21501000  0.61891000  0.87960000  1.0 -0.037188949
C  C78  1  0.78499000  0.61891000  0.12040000  1.0 -0.037188949
C  C79  1  0.87960000  0.78499000  0.61891000  1.0 -0.037188949
C  C80  1  0.12040000  0.21501000  0.61891000  1.0 -0.037188949
C  C81  1  0.12040000  0.78499000  0.38109000  1.0 -0.037188949
C  C82  1  0.87960000  0.21501000  0.38109000  1.0 -0.037188949
C  C83  1  0.61891000  0.87960000  0.78499000  1.0 -0.037188949
C  C84  1  0.61891000  0.12040000  0.21501000  1.0 -0.037188949
C  C85  1  0.38109000  0.12040000  0.78499000  1.0 -0.037188949
C  C86  1  0.38109000  0.87960000  0.21501000  1.0 -0.037188949
C  C87  1  0.78499000  0.61891000  0.87960000  1.0 -0.037188949
C  C88  1  0.21501000  0.61891000  0.12040000  1.0 -0.037188949
C  C89  1  0.78499000  0.38109000  0.12040000  1.0 -0.037188949
C  C90  1  0.21501000  0.38109000  0.87960000  1.0 -0.037188949
C  C91  1  0.15383000  0.18309000  0.38186000  1.0 -0.1006016822
C  C92  1  0.84617000  0.81691000  0.38186000  1.0 -0.1006016822
C  C93  1  0.84617000  0.18309000  0.61814000  1.0 -0.1006016822
C  C94  1  0.15383000  0.81691000  0.61814000  1.0 -0.1006016822
C  C95  1  0.38186000  0.15383000  0.18309000  1.0 -0.1006016822
C  C96  1  0.38186000  0.84617000  0.81691000  1.0 -0.1006016822
C  C97  1  0.61814000  0.84617000  0.18309000  1.0 -0.1006016822
C  C98  1  0.61814000  0.15383000  0.81691000  1.0 -0.1006016822
C  C99  1  0.18309000  0.38186000  0.15383000  1.0 -0.1006016822
C  C100  1  0.81691000  0.38186000  0.84617000  1.0 -0.1006016822
C  C101  1  0.18309000  0.61814000  0.84617000  1.0 -0.1006016822
C  C102  1  0.81691000  0.61814000  0.15383000  1.0 -0.1006016822
C  C103  1  0.84617000  0.81691000  0.61814000  1.0 -0.1006016822
C  C104  1  0.15383000  0.18309000  0.61814000  1.0 -0.1006016822
C  C105  1  0.15383000  0.81691000  0.38186000  1.0 -0.1006016822
C  C106  1  0.84617000  0.18309000  0.38186000  1.0 -0.1006016822
C  C107  1  0.61814000  0.84617000  0.81691000  1.0 -0.1006016822
C  C108  1  0.61814000  0.15383000  0.18309000  1.0 -0.1006016822
C  C109  1  0.38186000  0.15383000  0.81691000  1.0 -0.1006016822
C  C110  1  0.38186000  0.84617000  0.18309000  1.0 -0.1006016822
C  C111  1  0.81691000  0.61814000  0.84617000  1.0 -0.1006016822
C  C112  1  0.18309000  0.61814000  0.15383000  1.0 -0.1006016822
C  C113  1  0.81691000  0.38186000  0.15383000  1.0 -0.1006016822
C  C114  1  0.18309000  0.38186000  0.84617000  1.0 -0.1006016822
C  C115  1  0.18695000  0.18238000  0.34960000  1.0 -0.160232085
C  C116  1  0.81305000  0.81762000  0.34960000  1.0 -0.160232085
C  C117  1  0.81305000  0.18238000  0.65040000  1.0 -0.160232085
C  C118  1  0.18695000  0.81762000  0.65040000  1.0 -0.160232085
C  C119  1  0.34960000  0.18695000  0.18238000  1.0 -0.160232085
C  C120  1  0.34960000  0.81305000  0.81762000  1.0 -0.160232085
C  C121  1  0.65040000  0.81305000  0.18238000  1.0 -0.160232085
C  C122  1  0.65040000  0.18695000  0.81762000  1.0 -0.160232085
C  C123  1  0.18238000  0.34960000  0.18695000  1.0 -0.160232085
C  C124  1  0.81762000  0.34960000  0.81305000  1.0 -0.160232085
C  C125  1  0.18238000  0.65040000  0.81305000  1.0 -0.160232085
C  C126  1  0.81762000  0.65040000  0.18695000  1.0 -0.160232085
C  C127  1  0.81305000  0.81762000  0.65040000  1.0 -0.160232085
C  C128  1  0.18695000  0.18238000  0.65040000  1.0 -0.160232085
C  C129  1  0.18695000  0.81762000  0.34960000  1.0 -0.160232085
C  C130  1  0.81305000  0.18238000  0.34960000  1.0 -0.160232085
C  C131  1  0.65040000  0.81305000  0.81762000  1.0 -0.160232085
C  C132  1  0.65040000  0.18695000  0.18238000  1.0 -0.160232085
C  C133  1  0.34960000  0.18695000  0.81762000  1.0 -0.160232085
C  C134  1  0.34960000  0.81305000  0.18238000  1.0 -0.160232085
C  C135  1  0.81762000  0.65040000  0.81305000  1.0 -0.160232085
C  C136  1  0.18238000  0.65040000  0.18695000  1.0 -0.160232085
C  C137  1  0.81762000  0.34960000  0.18695000  1.0 -0.160232085
C  C138  1  0.18238000  0.34960000  0.81305000  1.0 -0.160232085
C  C139  1  0.18717000  0.21438000  0.31638000  1.0 0.0387905068
C  C140  1  0.81283000  0.78562000  0.31638000  1.0 0.0387905068
C  C141  1  0.81283000  0.21438000  0.68362000  1.0 0.0387905068
C  C142  1  0.18717000  0.78562000  0.68362000  1.0 0.0387905068
C  C143  1  0.31638000  0.18717000  0.21438000  1.0 0.0387905068
C  C144  1  0.31638000  0.81283000  0.78562000  1.0 0.0387905068
C  C145  1  0.68362000  0.81283000  0.21438000  1.0 0.0387905068
C  C146  1  0.68362000  0.18717000  0.78562000  1.0 0.0387905068
C  C147  1  0.21438000  0.31638000  0.18717000  1.0 0.0387905068
C  C148  1  0.78562000  0.31638000  0.81283000  1.0 0.0387905068
C  C149  1  0.21438000  0.68362000  0.81283000  1.0 0.0387905068
C  C150  1  0.78562000  0.68362000  0.18717000  1.0 0.0387905068
C  C151  1  0.81283000  0.78562000  0.68362000  1.0 0.0387905068
C  C152  1  0.18717000  0.21438000  0.68362000  1.0 0.0387905068
C  C153  1  0.18717000  0.78562000  0.31638000  1.0 0.0387905068
C  C154  1  0.81283000  0.21438000  0.31638000  1.0 0.0387905068
C  C155  1  0.68362000  0.81283000  0.78562000  1.0 0.0387905068
C  C156  1  0.68362000  0.18717000  0.21438000  1.0 0.0387905068
C  C157  1  0.31638000  0.18717000  0.78562000  1.0 0.0387905068
C  C158  1  0.31638000  0.81283000  0.21438000  1.0 0.0387905068
C  C159  1  0.78562000  0.68362000  0.81283000  1.0 0.0387905068
C  C160  1  0.21438000  0.68362000  0.18717000  1.0 0.0387905068
C  C161  1  0.78562000  0.31638000  0.18717000  1.0 0.0387905068
C  C162  1  0.21438000  0.31638000  0.81283000  1.0 0.0387905068
C  C163  1  0.15391000  0.24675000  0.31596000  1.0 0.0293253914
C  C164  1  0.84609000  0.75325000  0.31596000  1.0 0.0293253914
C  C165  1  0.84609000  0.24675000  0.68404000  1.0 0.0293253914
C  C166  1  0.15391000  0.75325000  0.68404000  1.0 0.0293253914
C  C167  1  0.31596000  0.15391000  0.24675000  1.0 0.0293253914
C  C168  1  0.31596000  0.84609000  0.75325000  1.0 0.0293253914
C  C169  1  0.68404000  0.84609000  0.24675000  1.0 0.0293253914
C  C170  1  0.68404000  0.15391000  0.75325000  1.0 0.0293253914
C  C171  1  0.24675000  0.31596000  0.15391000  1.0 0.0293253914
C  C172  1  0.75325000  0.31596000  0.84609000  1.0 0.0293253914
C  C173  1  0.24675000  0.68404000  0.84609000  1.0 0.0293253914
C  C174  1  0.75325000  0.68404000  0.15391000  1.0 0.0293253914
C  C175  1  0.84609000  0.75325000  0.68404000  1.0 0.0293253914
C  C176  1  0.15391000  0.24675000  0.68404000  1.0 0.0293253914
C  C177  1  0.15391000  0.75325000  0.31596000  1.0 0.0293253914
C  C178  1  0.84609000  0.24675000  0.31596000  1.0 0.0293253914
C  C179  1  0.68404000  0.84609000  0.75325000  1.0 0.0293253914
C  C180  1  0.68404000  0.15391000  0.24675000  1.0 0.0293253914
C  C181  1  0.31596000  0.15391000  0.75325000  1.0 0.0293253914
C  C182  1  0.31596000  0.84609000  0.24675000  1.0 0.0293253914
C  C183  1  0.75325000  0.68404000  0.84609000  1.0 0.0293253914
C  C184  1  0.24675000  0.68404000  0.15391000  1.0 0.0293253914
C  C185  1  0.75325000  0.31596000  0.15391000  1.0 0.0293253914
C  C186  1  0.24675000  0.31596000  0.84609000  1.0 0.0293253914
C  C187  1  0.12041000  0.24704000  0.34767000  1.0 -0.1443532969
C  C188  1  0.87959000  0.75296000  0.34767000  1.0 -0.1443532969
C  C189  1  0.87959000  0.24704000  0.65233000  1.0 -0.1443532969
C  C190  1  0.12041000  0.75296000  0.65233000  1.0 -0.1443532969
C  C191  1  0.34767000  0.12041000  0.24704000  1.0 -0.1443532969
C  C192  1  0.34767000  0.87959000  0.75296000  1.0 -0.1443532969
C  C193  1  0.65233000  0.87959000  0.24704000  1.0 -0.1443532969
C  C194  1  0.65233000  0.12041000  0.75296000  1.0 -0.1443532969
C  C195  1  0.24704000  0.34767000  0.12041000  1.0 -0.1443532969
C  C196  1  0.75296000  0.34767000  0.87959000  1.0 -0.1443532969
C  C197  1  0.24704000  0.65233000  0.87959000  1.0 -0.1443532969
C  C198  1  0.75296000  0.65233000  0.12041000  1.0 -0.1443532969
C  C199  1  0.87959000  0.75296000  0.65233000  1.0 -0.1443532969
C  C200  1  0.12041000  0.24704000  0.65233000  1.0 -0.1443532969
C  C201  1  0.12041000  0.75296000  0.34767000  1.0 -0.1443532969
C  C202  1  0.87959000  0.24704000  0.34767000  1.0 -0.1443532969
C  C203  1  0.65233000  0.87959000  0.75296000  1.0 -0.1443532969
C  C204  1  0.65233000  0.12041000  0.24704000  1.0 -0.1443532969
C  C205  1  0.34767000  0.12041000  0.75296000  1.0 -0.1443532969
C  C206  1  0.34767000  0.87959000  0.24704000  1.0 -0.1443532969
C  C207  1  0.75296000  0.65233000  0.87959000  1.0 -0.1443532969
C  C208  1  0.24704000  0.65233000  0.12041000  1.0 -0.1443532969
C  C209  1  0.75296000  0.34767000  0.12041000  1.0 -0.1443532969
C  C210  1  0.24704000  0.34767000  0.87959000  1.0 -0.1443532969
C  C211  1  0.21738000  0.22328000  0.27757000  1.0 -0.037188949
C  C212  1  0.78262000  0.77672000  0.27757000  1.0 -0.037188949
C  C213  1  0.78262000  0.22328000  0.72243000  1.0 -0.037188949
C  C214  1  0.21738000  0.77672000  0.72243000  1.0 -0.037188949
C  C215  1  0.27757000  0.21738000  0.22328000  1.0 -0.037188949
C  C216  1  0.27757000  0.78262000  0.77672000  1.0 -0.037188949
C  C217  1  0.72243000  0.78262000  0.22328000  1.0 -0.037188949
C  C218  1  0.72243000  0.21738000  0.77672000  1.0 -0.037188949
C  C219  1  0.22328000  0.27757000  0.21738000  1.0 -0.037188949
C  C220  1  0.77672000  0.27757000  0.78262000  1.0 -0.037188949
C  C221  1  0.22328000  0.72243000  0.78262000  1.0 -0.037188949
C  C222  1  0.77672000  0.72243000  0.21738000  1.0 -0.037188949
C  C223  1  0.78262000  0.77672000  0.72243000  1.0 -0.037188949
C  C224  1  0.21738000  0.22328000  0.72243000  1.0 -0.037188949
C  C225  1  0.21738000  0.77672000  0.27757000  1.0 -0.037188949
C  C226  1  0.78262000  0.22328000  0.27757000  1.0 -0.037188949
C  C227  1  0.72243000  0.78262000  0.77672000  1.0 -0.037188949
C  C228  1  0.72243000  0.21738000  0.22328000  1.0 -0.037188949
C  C229  1  0.27757000  0.21738000  0.77672000  1.0 -0.037188949
C  C230  1  0.27757000  0.78262000  0.22328000  1.0 -0.037188949
C  C231  1  0.77672000  0.72243000  0.78262000  1.0 -0.037188949
C  C232  1  0.22328000  0.72243000  0.21738000  1.0 -0.037188949
C  C233  1  0.77672000  0.27757000  0.21738000  1.0 -0.037188949
C  C234  1  0.22328000  0.27757000  0.78262000  1.0 -0.037188949
C  C235  1  0.20157000  0.26144000  0.25548000  1.0 -0.0150306315
C  C236  1  0.79843000  0.73856000  0.25548000  1.0 -0.0150306315
C  C237  1  0.79843000  0.26144000  0.74452000  1.0 -0.0150306315
C  C238  1  0.20157000  0.73856000  0.74452000  1.0 -0.0150306315
C  C239  1  0.25548000  0.20157000  0.26144000  1.0 -0.0150306315
C  C240  1  0.25548000  0.79843000  0.73856000  1.0 -0.0150306315
C  C241  1  0.74452000  0.79843000  0.26144000  1.0 -0.0150306315
C  C242  1  0.74452000  0.20157000  0.73856000  1.0 -0.0082022077
C  C243  1  0.26144000  0.25548000  0.20157000  1.0 -0.0150306315
C  C244  1  0.73856000  0.25548000  0.79843000  1.0 -0.0150306315
C  C245  1  0.26144000  0.74452000  0.79843000  1.0 -0.0150306315
C  C246  1  0.73856000  0.74452000  0.20157000  1.0 -0.0150306315
C  C247  1  0.79843000  0.73856000  0.74452000  1.0 -0.0150306315
C  C248  1  0.20157000  0.26144000  0.74452000  1.0 -0.0150306315
C  C249  1  0.20157000  0.73856000  0.25548000  1.0 -0.0150306315
C  C250  1  0.79843000  0.26144000  0.25548000  1.0 -0.0150306315
C  C251  1  0.74452000  0.79843000  0.73856000  1.0 -0.0150306315
C  C252  1  0.74452000  0.20157000  0.26144000  1.0 -0.0150306315
C  C253  1  0.25548000  0.20157000  0.73856000  1.0 -0.0150306315
C  C254  1  0.25548000  0.79843000  0.26144000  1.0 -0.0150306315
C  C255  1  0.73856000  0.74452000  0.79843000  1.0 -0.0150306315
C  C256  1  0.26144000  0.74452000  0.20157000  1.0 -0.0150306315
C  C257  1  0.73856000  0.25548000  0.20157000  1.0 -0.0150306315
C  C258  1  0.26144000  0.25548000  0.79843000  1.0 -0.0150306315
C  C259  1  0.15929000  0.27952000  0.27785000  1.0 0.1924453263
C  C260  1  0.84071000  0.72048000  0.27785000  1.0 0.1924453263
C  C261  1  0.84071000  0.27952000  0.72215000  1.0 0.1924453263
C  C262  1  0.15929000  0.72048000  0.72215000  1.0 0.1924453263
C  C263  1  0.27785000  0.15929000  0.27952000  1.0 0.1924453263
C  C264  1  0.27785000  0.84071000  0.72048000  1.0 0.1924453263
C  C265  1  0.72215000  0.84071000  0.27952000  1.0 0.1924453263
C  C266  1  0.72215000  0.15929000  0.72048000  1.0 0.1924453263
C  C267  1  0.27952000  0.27785000  0.15929000  1.0 0.1924453263
C  C268  1  0.72048000  0.27785000  0.84071000  1.0 0.1924453263
C  C269  1  0.27952000  0.72215000  0.84071000  1.0 0.1924453263
C  C270  1  0.72048000  0.72215000  0.15929000  1.0 0.1924453263
C  C271  1  0.84071000  0.72048000  0.72215000  1.0 0.1924453263
C  C272  1  0.15929000  0.27952000  0.72215000  1.0 0.1924453263
C  C273  1  0.15929000  0.72048000  0.27785000  1.0 0.1924453263
C  C274  1  0.84071000  0.27952000  0.27785000  1.0 0.1924453263
C  C275  1  0.72215000  0.84071000  0.72048000  1.0 0.1924453263
C  C276  1  0.72215000  0.15929000  0.27952000  1.0 0.1924453263
C  C277  1  0.27785000  0.15929000  0.72048000  1.0 0.1924453263
C  C278  1  0.27785000  0.84071000  0.27952000  1.0 0.1924453263
C  C279  1  0.72048000  0.72215000  0.84071000  1.0 0.1924453263
C  C280  1  0.27952000  0.72215000  0.15929000  1.0 0.1924453263
C  C281  1  0.72048000  0.27785000  0.15929000  1.0 0.1924453263
C  C282  1  0.27952000  0.27785000  0.84071000  1.0 0.1924453263
C  C283  1  0.16739000  0.32629000  0.29843000  1.0 -0.4684932732
C  C284  1  0.83261000  0.67371000  0.29843000  1.0 -0.4684932732
C  C285  1  0.83261000  0.32629000  0.70157000  1.0 -0.4684932732
C  C286  1  0.16739000  0.67371000  0.70157000  1.0 -0.4684932732
C  C287  1  0.29843000  0.16739000  0.32629000  1.0 -0.4684932732
C  C288  1  0.29843000  0.83261000  0.67371000  1.0 -0.4684932732
C  C289  1  0.70157000  0.83261000  0.32629000  1.0 -0.4684932732
C  C290  1  0.70157000  0.16739000  0.67371000  1.0 -0.4684932732
C  C291  1  0.32629000  0.29843000  0.16739000  1.0 -0.4684932732
C  C292  1  0.67371000  0.29843000  0.83261000  1.0 -0.4684932732
C  C293  1  0.32629000  0.70157000  0.83261000  1.0 -0.4684932732
C  C294  1  0.67371000  0.70157000  0.16739000  1.0 -0.4684932732
C  C295  1  0.83261000  0.67371000  0.70157000  1.0 -0.4684932732
C  C296  1  0.16739000  0.32629000  0.70157000  1.0 -0.4684932732
C  C297  1  0.16739000  0.67371000  0.29843000  1.0 -0.4684932732
C  C298  1  0.83261000  0.32629000  0.29843000  1.0 -0.4684932732
C  C299  1  0.70157000  0.83261000  0.67371000  1.0 -0.4684932732
C  C300  1  0.70157000  0.16739000  0.32629000  1.0 -0.4684932732
C  C301  1  0.29843000  0.16739000  0.67371000  1.0 -0.4684932732
C  C302  1  0.29843000  0.83261000  0.32629000  1.0 -0.4684932732
C  C303  1  0.67371000  0.70157000  0.83261000  1.0 -0.4684932732
C  C304  1  0.32629000  0.70157000  0.16739000  1.0 -0.4684932732
C  C305  1  0.67371000  0.29843000  0.16739000  1.0 -0.4684932732
C  C306  1  0.32629000  0.29843000  0.83261000  1.0 -0.4684932732
C  C307  1  0.11813000  0.27672000  0.24758000  1.0 -0.4435502989
C  C308  1  0.88187000  0.72328000  0.24758000  1.0 -0.4435502989
C  C309  1  0.88187000  0.27672000  0.75242000  1.0 -0.4435502989
C  C310  1  0.11813000  0.72328000  0.75242000  1.0 -0.4435502989
C  C311  1  0.24758000  0.11813000  0.27672000  1.0 -0.4435502989
C  C312  1  0.24758000  0.88187000  0.72328000  1.0 -0.4435502989
C  C313  1  0.75242000  0.88187000  0.27672000  1.0 -0.4435502989
C  C314  1  0.75242000  0.11813000  0.72328000  1.0 -0.4435502989
C  C315  1  0.27672000  0.24758000  0.11813000  1.0 -0.4435502989
C  C316  1  0.72328000  0.24758000  0.88187000  1.0 -0.4435502989
C  C317  1  0.27672000  0.75242000  0.88187000  1.0 -0.4435502989
C  C318  1  0.72328000  0.75242000  0.11813000  1.0 -0.4435502989
C  C319  1  0.88187000  0.72328000  0.75242000  1.0 -0.4435502989
C  C320  1  0.11813000  0.27672000  0.75242000  1.0 -0.4435502989
C  C321  1  0.11813000  0.72328000  0.24758000  1.0 -0.4435502989
C  C322  1  0.88187000  0.27672000  0.24758000  1.0 -0.4435502989
C  C323  1  0.75242000  0.88187000  0.72328000  1.0 -0.4435502989
C  C324  1  0.75242000  0.11813000  0.27672000  1.0 -0.4435502989
C  C325  1  0.24758000  0.11813000  0.72328000  1.0 -0.4435502989
C  C326  1  0.24758000  0.88187000  0.27672000  1.0 -0.4435502989
C  C327  1  0.72328000  0.75242000  0.88187000  1.0 -0.4435502989
C  C328  1  0.27672000  0.75242000  0.11813000  1.0 -0.4435502989
C  C329  1  0.72328000  0.24758000  0.11813000  1.0 -0.4435502989
C  C330  1  0.27672000  0.24758000  0.88187000  1.0 -0.4435502989
C  C331  1  0.01670000  0.40560000  0.46430000  0.5 -0.1148354818
C  C332  1  0.98330000  0.59440000  0.46430000  0.5 -0.1148354818
C  C333  1  0.98330000  0.40560000  0.53570000  0.5 -0.1148354818
C  C334  1  0.01670000  0.59440000  0.53570000  0.5 -0.1148354818
C  C335  1  0.46430000  0.01670000  0.40560000  0.5 -0.1148354818
C  C336  1  0.46430000  0.98330000  0.59440000  0.5 -0.1148354818
C  C337  1  0.53570000  0.98330000  0.40560000  0.5 -0.1148354818
C  C338  1  0.53570000  0.01670000  0.59440000  0.5 -0.1148354818
C  C339  1  0.40560000  0.46430000  0.01670000  0.5 -0.1148354818
C  C340  1  0.59440000  0.46430000  0.98330000  0.5 -0.1148354818
C  C341  1  0.40560000  0.53570000  0.98330000  0.5 -0.1148354818
C  C342  1  0.59440000  0.53570000  0.01670000  0.5 -0.1148354818
C  C343  1  0.98330000  0.59440000  0.53570000  0.5 -0.1148354818
C  C344  1  0.01670000  0.40560000  0.53570000  0.5 -0.1148354818
C  C345  1  0.01670000  0.59440000  0.46430000  0.5 -0.1148354818
C  C346  1  0.98330000  0.40560000  0.46430000  0.5 -0.1148354818
C  C347  1  0.53570000  0.98330000  0.59440000  0.5 -0.1148354818
C  C348  1  0.53570000  0.01670000  0.40560000  0.5 -0.1148354818
C  C349  1  0.46430000  0.01670000  0.59440000  0.5 -0.1148354818
C  C350  1  0.46430000  0.98330000  0.40560000  0.5 -0.1148354818
C  C351  1  0.59440000  0.53570000  0.98330000  0.5 -0.1148354818
C  C352  1  0.40560000  0.53570000  0.01670000  0.5 -0.1148354818
C  C353  1  0.59440000  0.46430000  0.01670000  0.5 -0.1148354818
C  C354  1  0.40560000  0.46430000  0.98330000  0.5 -0.1148354818
C  C355  1  0.01740000  0.45170000  0.46470000  0.5 -0.0727732934
C  C356  1  0.98260000  0.54830000  0.46470000  0.5 -0.0727732934
C  C357  1  0.98260000  0.45170000  0.53530000  0.5 -0.0727732934
C  C358  1  0.01740000  0.54830000  0.53530000  0.5 -0.0727732934
C  C359  1  0.46470000  0.01740000  0.45170000  0.5 -0.0727732934
C  C360  1  0.46470000  0.98260000  0.54830000  0.5 -0.0727732934
C  C361  1  0.53530000  0.98260000  0.45170000  0.5 -0.0727732934
C  C362  1  0.53530000  0.01740000  0.54830000  0.5 -0.0727732934
C  C363  1  0.45170000  0.46470000  0.01740000  0.5 -0.0727732934
C  C364  1  0.54830000  0.46470000  0.98260000  0.5 -0.0727732934
C  C365  1  0.45170000  0.53530000  0.98260000  0.5 -0.0727732934
C  C366  1  0.54830000  0.53530000  0.01740000  0.5 -0.0727732934
C  C367  1  0.98260000  0.54830000  0.53530000  0.5 -0.0727732934
C  C368  1  0.01740000  0.45170000  0.53530000  0.5 -0.0727732934
C  C369  1  0.01740000  0.54830000  0.46470000  0.5 -0.0727732934
C  C370  1  0.98260000  0.45170000  0.46470000  0.5 -0.0727732934
C  C371  1  0.53530000  0.98260000  0.54830000  0.5 -0.0727732934
C  C372  1  0.53530000  0.01740000  0.45170000  0.5 -0.0727732934
C  C373  1  0.46470000  0.01740000  0.54830000  0.5 -0.0727732934
C  C374  1  0.46470000  0.98260000  0.45170000  0.5 -0.0727732934
C  C375  1  0.54830000  0.53530000  0.98260000  0.5 -0.0727732934
C  C376  1  0.45170000  0.53530000  0.01740000  0.5 -0.0727732934
C  C377  1  0.54830000  0.46470000  0.01740000  0.5 -0.0727732934
C  C378  1  0.45170000  0.46470000  0.98260000  0.5 -0.0727732934
C  C379  1  0.05730000  0.46410000  0.39610000  0.12 -0.0494547921
C  C380  1  0.94270000  0.53590000  0.39610000  0.12 -0.0494547921
C  C381  1  0.94270000  0.46410000  0.60390000  0.12 -0.0494547921
C  C382  1  0.05730000  0.53590000  0.60390000  0.12 -0.0494547921
C  C383  1  0.39610000  0.05730000  0.46410000  0.12 -0.0494547921
C  C384  1  0.39610000  0.94270000  0.53590000  0.12 -0.0494547921
C  C385  1  0.60390000  0.94270000  0.46410000  0.12 -0.0494547921
C  C386  1  0.60390000  0.05730000  0.53590000  0.12 -0.0494547921
C  C387  1  0.46410000  0.39610000  0.05730000  0.12 -0.0494547921
C  C388  1  0.53590000  0.39610000  0.94270000  0.12 -0.0494547921
C  C389  1  0.46410000  0.60390000  0.94270000  0.12 -0.0494547921
C  C390  1  0.53590000  0.60390000  0.05730000  0.12 -0.0494547921
C  C391  1  0.94270000  0.53590000  0.60390000  0.12 -0.0494547921
C  C392  1  0.05730000  0.46410000  0.60390000  0.12 -0.0494547921
C  C393  1  0.05730000  0.53590000  0.39610000  0.12 -0.0494547921
C  C394  1  0.94270000  0.46410000  0.39610000  0.12 -0.0494547921
C  C395  1  0.60390000  0.94270000  0.53590000  0.12 -0.0494547921
C  C396  1  0.60390000  0.05730000  0.46410000  0.12 -0.0494547921
C  C397  1  0.39610000  0.05730000  0.53590000  0.12 -0.0494547921
C  C398  1  0.39610000  0.94270000  0.46410000  0.12 -0.0494547921
C  C399  1  0.53590000  0.60390000  0.94270000  0.12 -0.0494547921
C  C400  1  0.46410000  0.60390000  0.05730000  0.12 -0.0494547921
C  C401  1  0.53590000  0.39610000  0.05730000  0.12 -0.0494547921
C  C402  1  0.46410000  0.39610000  0.94270000  0.12 -0.0494547921
C  C403  1  0.08780000  0.50030000  0.37790000  0.12 -0.0600144804
C  C404  1  0.91220000  0.49970000  0.37790000  0.12 -0.0600144804
C  C405  1  0.91220000  0.50030000  0.62210000  0.12 -0.0600144804
C  C406  1  0.08780000  0.49970000  0.62210000  0.12 -0.0600144804
C  C407  1  0.37790000  0.08780000  0.50030000  0.12 -0.0600144804
C  C408  1  0.37790000  0.91220000  0.49970000  0.12 -0.0600144804
C  C409  1  0.62210000  0.91220000  0.50030000  0.12 -0.0600144804
C  C410  1  0.62210000  0.08780000  0.49970000  0.12 -0.0600144804
C  C411  1  0.50030000  0.37790000  0.08780000  0.12 -0.0600144804
C  C412  1  0.49970000  0.37790000  0.91220000  0.12 -0.0600144804
C  C413  1  0.50030000  0.62210000  0.91220000  0.12 -0.0600144804
C  C414  1  0.49970000  0.62210000  0.08780000  0.12 -0.0600144804
C  C415  1  0.12780000  0.50890000  0.40910000  0.12 -0.1332314961
C  C416  1  0.87220000  0.49110000  0.40910000  0.12 -0.1332314961
C  C417  1  0.87220000  0.50890000  0.59090000  0.12 -0.1332314961
C  C418  1  0.12780000  0.49110000  0.59090000  0.12 -0.1332314961
C  C419  1  0.40910000  0.12780000  0.50890000  0.12 -0.1332314961
C  C420  1  0.40910000  0.87220000  0.49110000  0.12 -0.1332314961
C  C421  1  0.59090000  0.87220000  0.50890000  0.12 -0.1332314961
C  C422  1  0.59090000  0.12780000  0.49110000  0.12 -0.1332314961
C  C423  1  0.50890000  0.40910000  0.12780000  0.12 -0.1332314961
C  C424  1  0.49110000  0.40910000  0.87220000  0.12 -0.1332314961
C  C425  1  0.50890000  0.59090000  0.87220000  0.12 -0.1332314961
C  C426  1  0.49110000  0.59090000  0.12780000  0.12 -0.1332314961
C  C427  1  0.87220000  0.49110000  0.59090000  0.12 -0.1332314961
C  C428  1  0.12780000  0.50890000  0.59090000  0.12 -0.1332314961
C  C429  1  0.12780000  0.49110000  0.40910000  0.12 -0.1332314961
C  C430  1  0.87220000  0.50890000  0.40910000  0.12 -0.1332314961
C  C431  1  0.59090000  0.87220000  0.49110000  0.12 -0.1332314961
C  C432  1  0.59090000  0.12780000  0.50890000  0.12 -0.1332314961
C  C433  1  0.40910000  0.12780000  0.49110000  0.12 -0.1332314961
C  C434  1  0.40910000  0.87220000  0.50890000  0.12 -0.1332314961
C  C435  1  0.49110000  0.59090000  0.87220000  0.12 -0.1332314961
C  C436  1  0.50890000  0.59090000  0.12780000  0.12 -0.1332314961
C  C437  1  0.49110000  0.40910000  0.12780000  0.12 -0.1332314961
C  C438  1  0.50890000  0.40910000  0.87220000  0.12 -0.1332314961
C  C439  1  0.14140000  0.55660000  0.39760000  0.12 -0.379053069
C  C440  1  0.85860000  0.44340000  0.39760000  0.12 -0.379053069
C  C441  1  0.85860000  0.55660000  0.60240000  0.12 -0.379053069
C  C442  1  0.14140000  0.44340000  0.60240000  0.12 -0.379053069
C  C443  1  0.39760000  0.14140000  0.55660000  0.12 -0.379053069
C  C444  1  0.39760000  0.85860000  0.44340000  0.12 -0.379053069
C  C445  1  0.60240000  0.85860000  0.55660000  0.12 -0.379053069
C  C446  1  0.60240000  0.14140000  0.44340000  0.12 -0.379053069
C  C447  1  0.55660000  0.39760000  0.14140000  0.12 -0.379053069
C  C448  1  0.44340000  0.39760000  0.85860000  0.12 -0.379053069
C  C449  1  0.55660000  0.60240000  0.85860000  0.12 -0.379053069
C  C450  1  0.44340000  0.60240000  0.14140000  0.12 -0.379053069
C  C451  1  0.85860000  0.44340000  0.60240000  0.12 -0.379053069
C  C452  1  0.14140000  0.55660000  0.60240000  0.12 -0.379053069
C  C453  1  0.14140000  0.44340000  0.39760000  0.12 -0.379053069
C  C454  1  0.85860000  0.55660000  0.39760000  0.12 -0.379053069
C  C455  1  0.60240000  0.85860000  0.44340000  0.12 -0.379053069
C  C456  1  0.60240000  0.14140000  0.55660000  0.12 -0.379053069
C  C457  1  0.39760000  0.14140000  0.44340000  0.12 -0.379053069
C  C458  1  0.39760000  0.85860000  0.55660000  0.12 -0.379053069
C  C459  1  0.44340000  0.60240000  0.85860000  0.12 -0.379053069
C  C460  1  0.55660000  0.60240000  0.14140000  0.12 -0.379053069
C  C461  1  0.44340000  0.39760000  0.14140000  0.12 -0.379053069
C  C462  1  0.55660000  0.39760000  0.85860000  0.12 -0.379053069
C  C463  1  0.09690000  0.58030000  0.39130000  0.12 -0.1533675424
C  C464  1  0.90310000  0.41970000  0.39130000  0.12 -0.1533675424
C  C465  1  0.90310000  0.58030000  0.60870000  0.12 -0.1533675424
C  C466  1  0.09690000  0.41970000  0.60870000  0.12 -0.1533675424
C  C467  1  0.39130000  0.09690000  0.58030000  0.12 -0.1533675424
C  C468  1  0.39130000  0.90310000  0.41970000  0.12 -0.1533675424
C  C469  1  0.60870000  0.90310000  0.58030000  0.12 -0.1533675424
C  C470  1  0.60870000  0.09690000  0.41970000  0.12 -0.1533675424
C  C471  1  0.58030000  0.39130000  0.09690000  0.12 -0.1533675424
C  C472  1  0.41970000  0.39130000  0.90310000  0.12 -0.1533675424
C  C473  1  0.58030000  0.60870000  0.90310000  0.12 -0.1533675424
C  C474  1  0.41970000  0.60870000  0.09690000  0.12 -0.1533675424
C  C475  1  0.90310000  0.41970000  0.60870000  0.12 -0.1533675424
C  C476  1  0.09690000  0.58030000  0.60870000  0.12 -0.160232085
C  C477  1  0.09690000  0.41970000  0.39130000  0.12 -0.1533675424
C  C478  1  0.90310000  0.58030000  0.39130000  0.12 -0.1533675424
C  C479  1  0.60870000  0.90310000  0.41970000  0.12 -0.1533675424
C  C480  1  0.60870000  0.09690000  0.58030000  0.12 -0.1533675424
C  C481  1  0.39130000  0.09690000  0.41970000  0.12 -0.1533675424
C  C482  1  0.39130000  0.90310000  0.58030000  0.12 -0.1533675424
C  C483  1  0.41970000  0.60870000  0.90310000  0.12 -0.160232085
C  C484  1  0.58030000  0.60870000  0.09690000  0.12 -0.1533675424
C  C485  1  0.41970000  0.39130000  0.09690000  0.12 -0.1533675424
C  C486  1  0.58030000  0.39130000  0.90310000  0.12 -0.160232085
C  C487  1  0.03260000  0.55440000  0.34670000  0.12 -0.037188949
C  C488  1  0.96740000  0.44560000  0.34670000  0.12 -0.0340622735
C  C489  1  0.96740000  0.55440000  0.65330000  0.12 -0.0340622735
C  C490  1  0.03260000  0.44560000  0.65330000  0.12 -0.037188949
C  C491  1  0.34670000  0.03260000  0.55440000  0.12 -0.0340622735
C  C492  1  0.34670000  0.96740000  0.44560000  0.12 -0.037188949
C  C493  1  0.65330000  0.96740000  0.55440000  0.12 -0.0340622735
C  C494  1  0.65330000  0.03260000  0.44560000  0.12 -0.0340622735
C  C495  1  0.55440000  0.34670000  0.03260000  0.12 -0.0340622735
C  C496  1  0.44560000  0.34670000  0.96740000  0.12 -0.0340622735
C  C497  1  0.55440000  0.65330000  0.96740000  0.12 -0.0340622735
C  C498  1  0.44560000  0.65330000  0.03260000  0.12 -0.037188949
C  C499  1  0.96740000  0.44560000  0.65330000  0.12 -0.0340622735
C  C500  1  0.03260000  0.55440000  0.65330000  0.12 -0.037188949
C  C501  1  0.03260000  0.44560000  0.34670000  0.12 -0.037188949
C  C502  1  0.96740000  0.55440000  0.34670000  0.12 -0.0340622735
C  C503  1  0.65330000  0.96740000  0.44560000  0.12 -0.0340622735
C  C504  1  0.65330000  0.03260000  0.55440000  0.12 -0.0340622735
C  C505  1  0.34670000  0.03260000  0.44560000  0.12 -0.0340622735
C  C506  1  0.34670000  0.96740000  0.55440000  0.12 -0.037188949
C  C507  1  0.44560000  0.65330000  0.96740000  0.12 -0.037188949
C  C508  1  0.55440000  0.65330000  0.03260000  0.12 -0.0340622735
C  C509  1  0.44560000  0.34670000  0.03260000  0.12 -0.0340622735
C  C510  1  0.55440000  0.34670000  0.96740000  0.12 -0.0340622735
C  C511  1  0.97040000  0.51400000  0.31050000  0.12 0.1038885574
C  C512  1  0.02960000  0.48600000  0.31050000  0.12 0.1038885574
C  C513  1  0.02960000  0.51400000  0.68950000  0.12 0.1038885574
C  C514  1  0.97040000  0.48600000  0.68950000  0.12 0.1038885574
C  C515  1  0.31050000  0.97040000  0.51400000  0.12 0.1038885574
C  C516  1  0.31050000  0.02960000  0.48600000  0.12 0.1038885574
C  C517  1  0.68950000  0.02960000  0.51400000  0.12 0.1038885574
C  C518  1  0.68950000  0.97040000  0.48600000  0.12 0.1038885574
C  C519  1  0.51400000  0.31050000  0.97040000  0.12 0.1038885574
C  C520  1  0.48600000  0.31050000  0.02960000  0.12 0.1038885574
C  C521  1  0.51400000  0.68950000  0.02960000  0.12 0.1038885574
C  C522  1  0.48600000  0.68950000  0.97040000  0.12 0.1038885574
C  C523  1  0.02960000  0.48600000  0.68950000  0.12 0.1038885574
C  C524  1  0.97040000  0.51400000  0.68950000  0.12 0.1038885574
C  C525  1  0.97040000  0.48600000  0.31050000  0.12 0.1038885574
C  C526  1  0.02960000  0.51400000  0.31050000  0.12 0.1038885574
C  C527  1  0.68950000  0.02960000  0.48600000  0.12 0.1038885574
C  C528  1  0.68950000  0.97040000  0.51400000  0.12 0.1038885574
C  C529  1  0.31050000  0.97040000  0.48600000  0.12 0.1038885574
C  C530  1  0.31050000  0.02960000  0.51400000  0.12 0.1038885574
C  C531  1  0.48600000  0.68950000  0.02960000  0.12 0.1038885574
C  C532  1  0.51400000  0.68950000  0.97040000  0.12 0.1038885574
C  C533  1  0.48600000  0.31050000  0.97040000  0.12 0.1038885574
C  C534  1  0.51400000  0.31050000  0.02960000  0.12 0.1038885574
C  C535  1  0.93750000  0.52870000  0.34560000  0.12 -0.0494547921
C  C536  1  0.06250000  0.47130000  0.34560000  0.12 -0.0494547921
C  C537  1  0.06250000  0.52870000  0.65440000  0.12 -0.0494547921
C  C538  1  0.93750000  0.47130000  0.65440000  0.12 -0.0494547921
C  C539  1  0.34560000  0.93750000  0.52870000  0.12 -0.0494547921
C  C540  1  0.34560000  0.06250000  0.47130000  0.12 -0.0494547921
C  C541  1  0.65440000  0.06250000  0.52870000  0.12 -0.0494547921
C  C542  1  0.65440000  0.93750000  0.47130000  0.12 -0.0494547921
C  C543  1  0.52870000  0.34560000  0.93750000  0.12 -0.0494547921
C  C544  1  0.47130000  0.34560000  0.06250000  0.12 -0.0494547921
C  C545  1  0.52870000  0.65440000  0.06250000  0.12 -0.0494547921
C  C546  1  0.47130000  0.65440000  0.93750000  0.12 -0.0494547921
C  C547  1  0.06250000  0.47130000  0.65440000  0.12 -0.0494547921
C  C548  1  0.93750000  0.52870000  0.65440000  0.12 -0.0494547921
C  C549  1  0.93750000  0.47130000  0.34560000  0.12 -0.0494547921
C  C550  1  0.06250000  0.52870000  0.34560000  0.12 -0.0494547921
C  C551  1  0.65440000  0.06250000  0.47130000  0.12 -0.0494547921
C  C552  1  0.65440000  0.93750000  0.52870000  0.12 -0.0494547921
C  C553  1  0.34560000  0.93750000  0.47130000  0.12 -0.0494547921
C  C554  1  0.34560000  0.06250000  0.52870000  0.12 -0.0494547921
C  C555  1  0.47130000  0.65440000  0.06250000  0.12 -0.0494547921
C  C556  1  0.52870000  0.65440000  0.93750000  0.12 -0.0494547921
C  C557  1  0.47130000  0.34560000  0.93750000  0.12 -0.0494547921
C  C558  1  0.52870000  0.34560000  0.06250000  0.12 -0.0494547921
C  C559  1  0.96710000  0.54100000  0.26770000  0.12 -0.2987074532
C  C560  1  0.03290000  0.45900000  0.26770000  0.12 -0.2987074532
C  C561  1  0.03290000  0.54100000  0.73230000  0.12 -0.2987074532
C  C562  1  0.96710000  0.45900000  0.73230000  0.12 -0.2987074532
C  C563  1  0.26770000  0.96710000  0.54100000  0.12 -0.2987074532
C  C564  1  0.26770000  0.03290000  0.45900000  0.12 -0.2987074532
C  C565  1  0.73230000  0.03290000  0.54100000  0.12 -0.2987074532
C  C566  1  0.73230000  0.96710000  0.45900000  0.12 -0.2987074532
C  C567  1  0.54100000  0.26770000  0.96710000  0.12 -0.2987074532
C  C568  1  0.45900000  0.26770000  0.03290000  0.12 -0.2987074532
C  C569  1  0.54100000  0.73230000  0.03290000  0.12 -0.2987074532
C  C570  1  0.45900000  0.73230000  0.96710000  0.12 -0.2987074532
C  C571  1  0.03290000  0.45900000  0.73230000  0.12 -0.2987074532
C  C572  1  0.96710000  0.54100000  0.73230000  0.12 -0.2987074532
C  C573  1  0.96710000  0.45900000  0.26770000  0.12 -0.2987074532
C  C574  1  0.03290000  0.54100000  0.26770000  0.12 -0.2987074532
C  C575  1  0.73230000  0.03290000  0.45900000  0.12 -0.2987074532
C  C576  1  0.73230000  0.96710000  0.54100000  0.12 -0.2987074532
C  C577  1  0.26770000  0.96710000  0.45900000  0.12 -0.2987074532
C  C578  1  0.26770000  0.03290000  0.54100000  0.12 -0.2987074532
C  C579  1  0.45900000  0.73230000  0.03290000  0.12 -0.2987074532
C  C580  1  0.54100000  0.73230000  0.96710000  0.12 -0.2987074532
C  C581  1  0.45900000  0.26770000  0.96710000  0.12 -0.2987074532
C  C582  1  0.54100000  0.26770000  0.03290000  0.12 -0.2987074532
C  C583  1  0.96550000  0.46450000  0.30030000  0.12 -0.0600144804
C  C584  1  0.03450000  0.53550000  0.30030000  0.12 -0.0600144804
C  C585  1  0.03450000  0.46450000  0.69970000  0.12 -0.0600144804
C  C586  1  0.96550000  0.53550000  0.69970000  0.12 -0.0600144804
C  C587  1  0.30030000  0.96550000  0.46450000  0.12 -0.0600144804
C  C588  1  0.30030000  0.03450000  0.53550000  0.12 -0.0600144804
C  C589  1  0.69970000  0.03450000  0.46450000  0.12 -0.0600144804
C  C590  1  0.69970000  0.96550000  0.53550000  0.12 -0.0600144804
C  C591  1  0.46450000  0.30030000  0.96550000  0.12 -0.0600144804
C  C592  1  0.53550000  0.30030000  0.03450000  0.12 -0.0600144804
C  C593  1  0.46450000  0.69970000  0.03450000  0.12 -0.0600144804
C  C594  1  0.53550000  0.69970000  0.96550000  0.12 -0.0600144804
C  C595  1  0.03450000  0.53550000  0.69970000  0.12 -0.0600144804
C  C596  1  0.96550000  0.46450000  0.69970000  0.12 -0.0600144804
C  C597  1  0.96550000  0.53550000  0.30030000  0.12 -0.0600144804
C  C598  1  0.03450000  0.46450000  0.30030000  0.12 -0.0600144804
C  C599  1  0.69970000  0.03450000  0.53550000  0.12 -0.0600144804
C  C600  1  0.69970000  0.96550000  0.46450000  0.12 -0.0600144804
C  C601  1  0.30030000  0.96550000  0.53550000  0.12 -0.0600144804
C  C602  1  0.30030000  0.03450000  0.46450000  0.12 -0.0600144804
C  C603  1  0.53550000  0.69970000  0.03450000  0.12 -0.0600144804
C  C604  1  0.46450000  0.69970000  0.96550000  0.12 -0.0600144804
C  C605  1  0.53550000  0.30030000  0.96550000  0.12 -0.0600144804
C  C606  1  0.46450000  0.30030000  0.03450000  0.12 -0.0600144804
N  N1  1  0.02600000  0.47890000  0.42610000  0.12 -0.207810355
N  N2  1  0.97400000  0.52110000  0.42610000  0.12 -0.207810355
N  N3  1  0.97400000  0.47890000  0.57390000  0.12 -0.207810355
N  N4  1  0.02600000  0.52110000  0.57390000  0.12 -0.207810355
N  N5  1  0.42610000  0.02600000  0.47890000  0.12 -0.207810355
N  N6  1  0.42610000  0.97400000  0.52110000  0.12 -0.207810355
N  N7  1  0.57390000  0.97400000  0.47890000  0.12 -0.207810355
N  N8  1  0.57390000  0.02600000  0.52110000  0.12 -0.207810355
N  N9  1  0.47890000  0.42610000  0.02600000  0.12 -0.207810355
N  N10  1  0.52110000  0.42610000  0.97400000  0.12 -0.207810355
N  N11  1  0.47890000  0.57390000  0.97400000  0.12 -0.207810355
N  N12  1  0.52110000  0.57390000  0.02600000  0.12 -0.207810355
N  N13  1  0.97400000  0.52110000  0.57390000  0.12 -0.207810355
N  N14  1  0.02600000  0.47890000  0.57390000  0.12 -0.207810355
N  N15  1  0.02600000  0.52110000  0.42610000  0.12 -0.207810355
N  N16  1  0.97400000  0.47890000  0.42610000  0.12 -0.207810355
N  N17  1  0.57390000  0.97400000  0.52110000  0.12 -0.207810355
N  N18  1  0.57390000  0.02600000  0.47890000  0.12 -0.207810355
N  N19  1  0.42610000  0.02600000  0.52110000  0.12 -0.207810355
N  N20  1  0.42610000  0.97400000  0.47890000  0.12 -0.207810355
N  N21  1  0.52110000  0.57390000  0.97400000  0.12 -0.207810355
N  N22  1  0.47890000  0.57390000  0.02600000  0.12 -0.207810355
N  N23  1  0.52110000  0.42610000  0.02600000  0.12 -0.207810355
N  N24  1  0.47890000  0.42610000  0.97400000  0.12 -0.207810355
N  N25  1  0.06770000  0.54470000  0.37380000  0.12 -0.0600144804
N  N26  1  0.93230000  0.45530000  0.37380000  0.12 -0.0600144804
N  N27  1  0.93230000  0.54470000  0.62620000  0.12 -0.0600144804
N  N28  1  0.06770000  0.45530000  0.62620000  0.12 -0.0600144804
N  N29  1  0.37380000  0.06770000  0.54470000  0.12 -0.0600144804
N  N30  1  0.37380000  0.93230000  0.45530000  0.12 -0.0600144804
N  N31  1  0.62620000  0.93230000  0.54470000  0.12 -0.0600144804
N  N32  1  0.62620000  0.06770000  0.45530000  0.12 -0.0600144804
N  N33  1  0.54470000  0.37380000  0.06770000  0.12 -0.0600144804
N  N34  1  0.45530000  0.37380000  0.93230000  0.12 -0.0600144804
N  N35  1  0.54470000  0.62620000  0.93230000  0.12 -0.0600144804
N  N36  1  0.45530000  0.62620000  0.06770000  0.12 -0.0600144804
N  N37  1  0.93230000  0.45530000  0.62620000  0.12 -0.0600144804
N  N38  1  0.06770000  0.54470000  0.62620000  0.12 -0.0600144804
N  N39  1  0.06770000  0.45530000  0.37380000  0.12 -0.0600144804
N  N40  1  0.93230000  0.54470000  0.37380000  0.12 -0.0600144804
N  N41  1  0.62620000  0.93230000  0.45530000  0.12 -0.0600144804
N  N42  1  0.62620000  0.06770000  0.54470000  0.12 -0.0600144804
N  N43  1  0.37380000  0.06770000  0.45530000  0.12 -0.0600144804
N  N44  1  0.37380000  0.93230000  0.54470000  0.12 -0.0600144804
N  N45  1  0.45530000  0.62620000  0.93230000  0.12 -0.0600144804
N  N46  1  0.54470000  0.62620000  0.06770000  0.12 -0.0600144804
N  N47  1  0.45530000  0.37380000  0.06770000  0.12 -0.0600144804
N  N48  1  0.54470000  0.37380000  0.93230000  0.12 -0.0600144804
O  O1  1  0.00000000  0.21453000  0.50000000  1.0 -1.0327514115
O  O2  1  0.00000000  0.78547000  0.50000000  1.0 -1.0327514115
O  O3  1  0.50000000  0.00000000  0.21453000  1.0 -1.0327514115
O  O4  1  0.50000000  0.00000000  0.78547000  1.0 -1.0327514115
O  O5  1  0.21453000  0.50000000  0.00000000  1.0 -1.0327514115
O  O6  1  0.78547000  0.50000000  0.00000000  1.0 -1.0327514115
O  O7  1  0.03724000  0.11503000  0.50000000  1.0 -0.5267095321
O  O8  1  0.96276000  0.88497000  0.50000000  1.0 -0.5267095321
O  O9  1  0.96276000  0.11503000  0.50000000  1.0 -0.5267095321
O  O10  1  0.03724000  0.88497000  0.50000000  1.0 -0.5267095321
O  O11  1  0.50000000  0.03724000  0.11503000  1.0 -0.5267095321
O  O12  1  0.50000000  0.96276000  0.88497000  1.0 -0.5267095321
O  O13  1  0.50000000  0.96276000  0.11503000  1.0 -0.5267095321
O  O14  1  0.50000000  0.03724000  0.88497000  1.0 -0.5267095321
O  O15  1  0.11503000  0.50000000  0.03724000  1.0 -0.5267095321
O  O16  1  0.88497000  0.50000000  0.96276000  1.0 -0.5267095321
O  O17  1  0.11503000  0.50000000  0.96276000  1.0 -0.5267095321
O  O18  1  0.88497000  0.50000000  0.03724000  1.0 -0.5267095321
O  O19  1  0.00000000  0.31396000  0.46316000  1.0 -0.5072933339
O  O20  1  0.00000000  0.68604000  0.46316000  1.0 -0.5072933339
O  O21  1  0.00000000  0.31396000  0.53684000  1.0 -0.5072933339
O  O22  1  0.00000000  0.68604000  0.53684000  1.0 -0.5072933339
O  O23  1  0.46316000  0.00000000  0.31396000  1.0 -0.5072933339
O  O24  1  0.46316000  0.00000000  0.68604000  1.0 -0.5072933339
O  O25  1  0.53684000  0.00000000  0.31396000  1.0 -0.5072933339
O  O26  1  0.53684000  0.00000000  0.68604000  1.0 -0.5072933339
O  O27  1  0.31396000  0.46316000  0.00000000  1.0 -0.5072933339
O  O28  1  0.68604000  0.46316000  0.00000000  1.0 -0.5072933339
O  O29  1  0.31396000  0.53684000  0.00000000  1.0 -0.5072933339
O  O30  1  0.68604000  0.53684000  0.00000000  1.0 -0.5072933339
O  O31  1  0.08911000  0.18794000  0.44752000  1.0 -0.5385985526
O  O32  1  0.91089000  0.81206000  0.44752000  1.0 -0.5385985526
O  O33  1  0.91089000  0.18794000  0.55248000  1.0 -0.5385985526
O  O34  1  0.08911000  0.81206000  0.55248000  1.0 -0.5385985526
O  O35  1  0.44752000  0.08911000  0.18794000  1.0 -0.5385985526
O  O36  1  0.44752000  0.91089000  0.81206000  1.0 -0.5385985526
O  O37  1  0.55248000  0.91089000  0.18794000  1.0 -0.5385985526
O  O38  1  0.55248000  0.08911000  0.81206000  1.0 -0.5385985526
O  O39  1  0.18794000  0.44752000  0.08911000  1.0 -0.5385985526
O  O40  1  0.81206000  0.44752000  0.91089000  1.0 -0.5385985526
O  O41  1  0.18794000  0.55248000  0.91089000  1.0 -0.5385985526
O  O42  1  0.81206000  0.55248000  0.08911000  1.0 -0.5385985526
O  O43  1  0.91089000  0.81206000  0.55248000  1.0 -0.5385985526
O  O44  1  0.08911000  0.18794000  0.55248000  1.0 -0.5385985526
O  O45  1  0.08911000  0.81206000  0.44752000  1.0 -0.5385985526
O  O46  1  0.91089000  0.18794000  0.44752000  1.0 -0.5385985526
O  O47  1  0.55248000  0.91089000  0.81206000  1.0 -0.5385985526
O  O48  1  0.55248000  0.08911000  0.18794000  1.0 -0.5385985526
O  O49  1  0.44752000  0.08911000  0.81206000  1.0 -0.5385985526
O  O50  1  0.44752000  0.91089000  0.18794000  1.0 -0.5385985526
O  O51  1  0.81206000  0.55248000  0.91089000  1.0 -0.5385985526
O  O52  1  0.18794000  0.55248000  0.08911000  1.0 -0.5385985526
O  O53  1  0.81206000  0.44752000  0.08911000  1.0 -0.5385985526
O  O54  1  0.18794000  0.44752000  0.91089000  1.0 -0.5385985526
O  O55  1  0.05288000  0.24165000  0.41127000  1.0 -0.5484597239
O  O56  1  0.94712000  0.75835000  0.41127000  1.0 -0.5484597239
O  O57  1  0.94712000  0.24165000  0.58873000  1.0 -0.5484597239
O  O58  1  0.05288000  0.75835000  0.58873000  1.0 -0.5484597239
O  O59  1  0.41127000  0.05288000  0.24165000  1.0 -0.5484597239
O  O60  1  0.41127000  0.94712000  0.75835000  1.0 -0.5484597239
O  O61  1  0.58873000  0.94712000  0.24165000  1.0 -0.5484597239
O  O62  1  0.58873000  0.05288000  0.75835000  1.0 -0.5484597239
O  O63  1  0.24165000  0.41127000  0.05288000  1.0 -0.5484597239
O  O64  1  0.75835000  0.41127000  0.94712000  1.0 -0.5484597239
O  O65  1  0.24165000  0.58873000  0.94712000  1.0 -0.5484597239
O  O66  1  0.75835000  0.58873000  0.05288000  1.0 -0.5484597239
O  O67  1  0.94712000  0.75835000  0.58873000  1.0 -0.5484597239
O  O68  1  0.05288000  0.24165000  0.58873000  1.0 -0.5484597239
O  O69  1  0.05288000  0.75835000  0.41127000  1.0 -0.5484597239
O  O70  1  0.94712000  0.24165000  0.41127000  1.0 -0.5484597239
O  O71  1  0.58873000  0.94712000  0.75835000  1.0 -0.5484597239
O  O72  1  0.58873000  0.05288000  0.24165000  1.0 -0.5484597239
O  O73  1  0.41127000  0.05288000  0.75835000  1.0 -0.5484597239
O  O74  1  0.41127000  0.94712000  0.24165000  1.0 -0.5484597239
O  O75  1  0.75835000  0.58873000  0.94712000  1.0 -0.5484597239
O  O76  1  0.24165000  0.58873000  0.05288000  1.0 -0.5484597239
O  O77  1  0.75835000  0.41127000  0.05288000  1.0 -0.5484597239
O  O78  1  0.24165000  0.41127000  0.94712000  1.0 -0.5484597239
O  O79  1  0.06260000  0.42520000  0.38520000  0.12 -0.0727732934
O  O80  1  0.93740000  0.57480000  0.38520000  0.12 -0.0727732934
O  O81  1  0.93740000  0.42520000  0.61480000  0.12 -0.0727732934
O  O82  1  0.06260000  0.57480000  0.61480000  0.12 -0.0727732934
O  O83  1  0.38520000  0.06260000  0.42520000  0.12 -0.0727732934
O  O84  1  0.38520000  0.93740000  0.57480000  0.12 -0.0727732934
O  O85  1  0.61480000  0.93740000  0.42520000  0.12 -0.0727732934
O  O86  1  0.61480000  0.06260000  0.57480000  0.12 -0.0727732934
O  O87  1  0.42520000  0.38520000  0.06260000  0.12 -0.0727732934
O  O88  1  0.57480000  0.38520000  0.93740000  0.12 -0.0727732934
O  O89  1  0.42520000  0.61480000  0.93740000  0.12 -0.0727732934
O  O90  1  0.57480000  0.61480000  0.06260000  0.12 -0.0727732934
O  O91  1  0.93740000  0.57480000  0.61480000  0.12 -0.0727732934
O  O92  1  0.06260000  0.42520000  0.61480000  0.12 -0.0727732934
O  O93  1  0.06260000  0.57480000  0.38520000  0.12 -0.0727732934
O  O94  1  0.93740000  0.42520000  0.38520000  0.12 -0.0727732934
O  O95  1  0.61480000  0.93740000  0.57480000  0.12 -0.0727732934
O  O96  1  0.61480000  0.06260000  0.42520000  0.12 -0.0727732934
O  O97  1  0.38520000  0.06260000  0.57480000  0.12 -0.0727732934
O  O98  1  0.38520000  0.93740000  0.42520000  0.12 -0.0727732934
O  O99  1  0.57480000  0.61480000  0.93740000  0.12 -0.0727732934
O  O100  1  0.42520000  0.61480000  0.06260000  0.12 -0.0727732934
O  O101  1  0.57480000  0.38520000  0.06260000  0.12 -0.0727732934
O  O102  1  0.42520000  0.38520000  0.93740000  0.12 -0.0727732934
O  O103  1  0.01840000  0.59180000  0.34020000  0.12 -0.2350255155
O  O104  1  0.98160000  0.40820000  0.34020000  0.12 -0.2350255155
O  O105  1  0.98160000  0.59180000  0.65980000  0.12 -0.2350255155
O  O106  1  0.01840000  0.40820000  0.65980000  0.12 -0.2344563954
O  O107  1  0.34020000  0.01840000  0.59180000  0.12 -0.2344563954
O  O108  1  0.34020000  0.98160000  0.40820000  0.12 -0.2350255155
O  O109  1  0.65980000  0.98160000  0.59180000  0.12 -0.2350255155
O  O110  1  0.65980000  0.01840000  0.40820000  0.12 -0.2350255155
O  O111  1  0.59180000  0.34020000  0.01840000  0.12 -0.2350255155
O  O112  1  0.40820000  0.34020000  0.98160000  0.12 -0.2344563954
O  O113  1  0.59180000  0.65980000  0.98160000  0.12 -0.2350255155
O  O114  1  0.40820000  0.65980000  0.01840000  0.12 -0.2350255155
O  O115  1  0.98160000  0.40820000  0.65980000  0.12 -0.2350255155
O  O116  1  0.01840000  0.59180000  0.65980000  0.12 -0.2344563954
O  O117  1  0.01840000  0.40820000  0.34020000  0.12 -0.2344563954
O  O118  1  0.98160000  0.59180000  0.34020000  0.12 -0.2350255155
O  O119  1  0.65980000  0.98160000  0.40820000  0.12 -0.2350255155
O  O120  1  0.65980000  0.01840000  0.59180000  0.12 -0.2350255155
O  O121  1  0.34020000  0.01840000  0.40820000  0.12 -0.2344563954
O  O122  1  0.34020000  0.98160000  0.59180000  0.12 -0.2350255155
O  O123  1  0.40820000  0.65980000  0.98160000  0.12 -0.2344563954
O  O124  1  0.59180000  0.65980000  0.01840000  0.12 -0.2350255155
O  O125  1  0.40820000  0.34020000  0.01840000  0.12 -0.2350255155
O  O126  1  0.59180000  0.34020000  0.98160000  0.12 -0.2350255155
O  O127  1  0.01630000  0.51620000  0.32910000  0.12 -0.0082022077
O  O128  1  0.98370000  0.48380000  0.32910000  0.12 -0.0082022077
O  O129  1  0.98370000  0.51620000  0.67090000  0.12 -0.0082022077
O  O130  1  0.01630000  0.48380000  0.67090000  0.12 -0.0082022077
O  O131  1  0.32910000  0.01630000  0.51620000  0.12 -0.0082022077
O  O132  1  0.32910000  0.98370000  0.48380000  0.12 -0.0082022077
O  O133  1  0.67090000  0.98370000  0.51620000  0.12 -0.0082022077
O  O134  1  0.67090000  0.01630000  0.48380000  0.12 -0.0082022077
O  O135  1  0.51620000  0.32910000  0.01630000  0.12 -0.0082022077
O  O136  1  0.48380000  0.32910000  0.98370000  0.12 -0.0082022077
O  O137  1  0.51620000  0.67090000  0.98370000  0.12 -0.0082022077
O  O138  1  0.48380000  0.67090000  0.01630000  0.12 -0.0082022077
O  O139  1  0.98370000  0.48380000  0.67090000  0.12 -0.0082022077
O  O140  1  0.01630000  0.51620000  0.67090000  0.12 -0.0082022077
O  O141  1  0.01630000  0.48380000  0.32910000  0.12 -0.0082022077
O  O142  1  0.98370000  0.51620000  0.32910000  0.12 -0.0082022077
O  O143  1  0.67090000  0.98370000  0.48380000  0.12 -0.0082022077
O  O144  1  0.67090000  0.01630000  0.51620000  0.12 -0.0082022077
O  O145  1  0.32910000  0.01630000  0.48380000  0.12 -0.0082022077
O  O146  1  0.32910000  0.98370000  0.51620000  0.12 -0.0082022077
O  O147  1  0.48380000  0.67090000  0.98370000  0.12 -0.0082022077
O  O148  1  0.51620000  0.67090000  0.01630000  0.12 -0.0082022077
O  O149  1  0.48380000  0.32910000  0.01630000  0.12 -0.0082022077
O  O150  1  0.51620000  0.32910000  0.98370000  0.12 -0.0082022077
