# DDEC6 charges by PACMAN v1.1 (https://github.com/mtap-research/PACMAN-charge/)
data_2007[In][ctn]3[ASR]1
_chemical_formula_sum              "In12 H48 C144 O96"
_cell_length_a       20.3732
_cell_length_b       20.3732
_cell_length_c       20.3732
_cell_angle_alpha    90
_cell_angle_beta     90
_cell_angle_gamma    90

_symmetry_space_group_name_H-M    "P 1"
_symmetry_Int_Tables_number       1

loop_
  _symmetry_equiv_pos_as_xyz
  'x, y, z'

loop_
  _atom_site_type_symbol
  _atom_site_label
  _atom_site_symmetry_multiplicity
  _atom_site_fract_x
  _atom_site_fract_y
  _atom_site_fract_z
  _atom_site_occupancy
  _atom_site_charge
In  In1       1.0  0.50000  0.25000  0.12500  1.0000 1.3280508951
In  In2       1.0  0.00000  0.75000  0.62500  1.0000 1.3280508951
In  In3       1.0  0.75000  0.37500  0.50000  1.0000 1.3280508951
In  In4       1.0  0.50000  0.75000  0.37500  1.0000 1.3280508951
In  In5       1.0  0.25000  0.12500  0.50000  1.0000 1.3280508951
In  In6       1.0  0.62500  0.00000  0.75000  1.0000 1.3280508951
In  In7       1.0  0.00000  0.25000  0.87500  1.0000 1.3280508951
In  In8       1.0  0.37500  0.50000  0.75000  1.0000 1.3280508951
In  In9       1.0  0.12500  0.50000  0.25000  1.0000 1.3280508951
In  In10      1.0  0.87500  0.00000  0.25000  1.0000 1.3280508951
In  In11      1.0  0.25000  0.87500  0.00000  1.0000 1.3280508951
In  In12      1.0  0.75000  0.62500  0.00000  1.0000 1.3280508951
H   H1        1.0  0.60980  0.43380  0.04640  1.0000 0.1476488208
H   H2        1.0  0.68380  0.14020  0.20360  1.0000 0.1476488208
H   H3        1.0  0.39020  0.06620  0.04640  1.0000 0.1476488208
H   H4        1.0  0.81620  0.85980  0.70360  1.0000 0.1476488208
H   H5        1.0  0.64020  0.29640  0.31620  1.0000 0.1476488208
H   H6        1.0  0.60980  0.56620  0.45360  1.0000 0.1476488208
H   H7        1.0  0.14020  0.20360  0.68380  1.0000 0.1476488208
H   H8        1.0  0.70360  0.81620  0.85980  1.0000 0.1476488208
H   H9        1.0  0.89020  0.43380  0.95360  1.0000 0.1476488208
H   H10       1.0  0.29640  0.31620  0.64020  1.0000 0.1476488208
H   H11       1.0  0.04640  0.60980  0.43380  1.0000 0.1476488208
H   H12       1.0  0.43380  0.04640  0.60980  1.0000 0.1476488208
H   H13       1.0  0.56620  0.45360  0.60980  1.0000 0.1476488208
H   H14       1.0  0.04640  0.39020  0.06620  1.0000 0.1476488208
H   H15       1.0  0.06620  0.04640  0.39020  1.0000 0.1476488208
H   H16       1.0  0.95360  0.89020  0.43380  1.0000 0.1476488208
H   H17       1.0  0.45360  0.60980  0.56620  1.0000 0.1476488208
H   H18       1.0  0.43380  0.95360  0.89020  1.0000 0.1476488208
H   H19       1.0  0.31620  0.64020  0.29640  1.0000 0.1476488208
H   H20       1.0  0.68380  0.85980  0.29640  1.0000 0.1476488208
H   H21       1.0  0.85980  0.70360  0.81620  1.0000 0.1476488208
H   H22       1.0  0.85980  0.29640  0.68380  1.0000 0.1476488208
H   H23       1.0  0.20360  0.68380  0.14020  1.0000 0.1476488208
H   H24       1.0  0.29640  0.68380  0.85980  1.0000 0.1476488208
H   H25       1.0  0.10980  0.93380  0.54640  1.0000 0.1476488208
H   H26       1.0  0.18380  0.64020  0.70360  1.0000 0.1476488208
H   H27       1.0  0.89020  0.56620  0.54640  1.0000 0.1476488208
H   H28       1.0  0.31620  0.35980  0.20360  1.0000 0.1476488208
H   H29       1.0  0.14020  0.79640  0.81620  1.0000 0.1476488208
H   H30       1.0  0.10980  0.06620  0.95360  1.0000 0.1476488208
H   H31       1.0  0.64020  0.70360  0.18380  1.0000 0.1476488208
H   H32       1.0  0.20360  0.31620  0.35980  1.0000 0.1476488208
H   H33       1.0  0.39020  0.93380  0.45360  1.0000 0.1476488208
H   H34       1.0  0.79640  0.81620  0.14020  1.0000 0.1476488208
H   H35       1.0  0.54640  0.10980  0.93380  1.0000 0.1476488208
H   H36       1.0  0.93380  0.54640  0.10980  1.0000 0.1476488208
H   H37       1.0  0.06620  0.95360  0.10980  1.0000 0.1476488208
H   H38       1.0  0.54640  0.89020  0.56620  1.0000 0.1476488208
H   H39       1.0  0.56620  0.54640  0.89020  1.0000 0.1476488208
H   H40       1.0  0.45360  0.39020  0.93380  1.0000 0.1476488208
H   H41       1.0  0.95360  0.10980  0.06620  1.0000 0.1476488208
H   H42       1.0  0.93380  0.45360  0.39020  1.0000 0.1476488208
H   H43       1.0  0.81620  0.14020  0.79640  1.0000 0.1476488208
H   H44       1.0  0.18380  0.35980  0.79640  1.0000 0.1476488208
H   H45       1.0  0.35980  0.20360  0.31620  1.0000 0.1476488208
H   H46       1.0  0.35980  0.79640  0.18380  1.0000 0.1476488208
H   H47       1.0  0.70360  0.18380  0.64020  1.0000 0.1476488208
H   H48       1.0  0.79640  0.18380  0.35980  1.0000 0.1476488208
C   C1        1.0  0.52920  0.40400  0.99690  1.0000 -0.0003829631
C   C2        1.0  0.65400  0.22080  0.25310  1.0000 -0.0003829631
C   C3        1.0  0.47080  0.09600  0.99690  1.0000 -0.0003829631
C   C4        1.0  0.84600  0.77920  0.75310  1.0000 9.21085e-05
C   C5        1.0  0.72080  0.24690  0.34600  1.0000 -0.0003829631
C   C6        1.0  0.52920  0.59600  0.50310  1.0000 -0.0003829631
C   C7        1.0  0.22080  0.25310  0.65400  1.0000 -0.0003829631
C   C8        1.0  0.75310  0.84600  0.77920  1.0000 -0.0003829631
C   C9        1.0  0.97080  0.40400  0.00310  1.0000 9.21085e-05
C   C10       1.0  0.24690  0.34600  0.72080  1.0000 -0.0003829631
C   C11       1.0  0.99690  0.52920  0.40400  1.0000 9.21085e-05
C   C12       1.0  0.40400  0.99690  0.52920  1.0000 -0.0003829631
C   C13       1.0  0.59600  0.50310  0.52920  1.0000 -0.0003829631
C   C14       1.0  0.99690  0.47080  0.09600  1.0000 9.21085e-05
C   C15       1.0  0.09600  0.99690  0.47080  1.0000 -0.0003829631
C   C16       1.0  0.00310  0.97080  0.40400  1.0000 -0.0003829631
C   C17       1.0  0.50310  0.52920  0.59600  1.0000 -0.0003829631
C   C18       1.0  0.40400  0.00310  0.97080  1.0000 -0.0003829631
C   C19       1.0  0.34600  0.72080  0.24690  1.0000 -0.0003829631
C   C20       1.0  0.65400  0.77920  0.24690  1.0000 -0.0003829631
C   C21       1.0  0.77920  0.75310  0.84600  1.0000 9.21085e-05
C   C22       1.0  0.77920  0.24690  0.65400  1.0000 9.21085e-05
C   C23       1.0  0.25310  0.65400  0.22080  1.0000 -0.0003829631
C   C24       1.0  0.24690  0.65400  0.77920  1.0000 -0.0003829631
C   C25       1.0  0.02920  0.90400  0.49690  1.0000 -0.0003829631
C   C26       1.0  0.15400  0.72080  0.75310  1.0000 -0.0003829631
C   C27       1.0  0.97080  0.59600  0.49690  1.0000 9.21085e-05
C   C28       1.0  0.34600  0.27920  0.25310  1.0000 -0.0003829631
C   C29       1.0  0.22080  0.74690  0.84600  1.0000 -0.0003829631
C   C30       1.0  0.02920  0.09600  0.00310  1.0000 -0.0003829631
C   C31       1.0  0.72080  0.75310  0.15400  1.0000 -0.0003829631
C   C32       1.0  0.25310  0.34600  0.27920  1.0000 -0.0003829631
C   C33       1.0  0.47080  0.90400  0.50310  1.0000 -0.0003829631
C   C34       1.0  0.74690  0.84600  0.22080  1.0000 -0.0003829631
C   C35       1.0  0.49690  0.02920  0.90400  1.0000 -0.0003829631
C   C36       1.0  0.90400  0.49690  0.02920  1.0000 9.21085e-05
C   C37       1.0  0.09600  0.00310  0.02920  1.0000 -0.0003829631
C   C38       1.0  0.49690  0.97080  0.59600  1.0000 -0.0003829631
C   C39       1.0  0.59600  0.49690  0.97080  1.0000 -0.0003829631
C   C40       1.0  0.50310  0.47080  0.90400  1.0000 -0.0003829631
C   C41       1.0  0.00310  0.02920  0.09600  1.0000 -0.0003829631
C   C42       1.0  0.90400  0.50310  0.47080  1.0000 9.21085e-05
C   C43       1.0  0.84600  0.22080  0.74690  1.0000 9.21085e-05
C   C44       1.0  0.15400  0.27920  0.74690  1.0000 -0.0003829631
C   C45       1.0  0.27920  0.25310  0.34600  1.0000 -0.0003829631
C   C46       1.0  0.27920  0.74690  0.15400  1.0000 -0.0003829631
C   C47       1.0  0.75310  0.15400  0.72080  1.0000 -0.0003829631
C   C48       1.0  0.74690  0.15400  0.27920  1.0000 -0.0003829631
C   C49       1.0  0.51480  0.34560  0.03950  1.0000 0.540394573
C   C50       1.0  0.59560  0.23520  0.21050  1.0000 0.540394573
C   C51       1.0  0.48520  0.15440  0.03950  1.0000 0.540394573
C   C52       1.0  0.90440  0.76480  0.71050  1.0000 0.540394573
C   C53       1.0  0.73520  0.28950  0.40440  1.0000 0.540394573
C   C54       1.0  0.51480  0.65440  0.46050  1.0000 0.540394573
C   C55       1.0  0.23520  0.21050  0.59560  1.0000 0.540394573
C   C56       1.0  0.71050  0.90440  0.76480  1.0000 0.540394573
C   C57       1.0  0.98520  0.34560  0.96050  1.0000 0.540394573
C   C58       1.0  0.28950  0.40440  0.73520  1.0000 0.540394573
C   C59       1.0  0.03950  0.51480  0.34560  1.0000 0.540394573
C   C60       1.0  0.34560  0.03950  0.51480  1.0000 0.540394573
C   C61       1.0  0.65440  0.46050  0.51480  1.0000 0.540394573
C   C62       1.0  0.03950  0.48520  0.15440  1.0000 0.540394573
C   C63       1.0  0.15440  0.03950  0.48520  1.0000 0.540394573
C   C64       1.0  0.96050  0.98520  0.34560  1.0000 0.540394573
C   C65       1.0  0.46050  0.51480  0.65440  1.0000 0.540394573
C   C66       1.0  0.34560  0.96050  0.98520  1.0000 0.540394573
C   C67       1.0  0.40440  0.73520  0.28950  1.0000 0.540394573
C   C68       1.0  0.59560  0.76480  0.28950  1.0000 0.540394573
C   C69       1.0  0.76480  0.71050  0.90440  1.0000 0.540394573
C   C70       1.0  0.76480  0.28950  0.59560  1.0000 0.540394573
C   C71       1.0  0.21050  0.59560  0.23520  1.0000 0.540394573
C   C72       1.0  0.28950  0.59560  0.76480  1.0000 0.540394573
C   C73       1.0  0.01480  0.84560  0.53950  1.0000 0.540394573
C   C74       1.0  0.09560  0.73520  0.71050  1.0000 0.540394573
C   C75       1.0  0.98520  0.65440  0.53950  1.0000 0.540394573
C   C76       1.0  0.40440  0.26480  0.21050  1.0000 0.540394573
C   C77       1.0  0.23520  0.78950  0.90440  1.0000 0.540394573
C   C78       1.0  0.01480  0.15440  0.96050  1.0000 0.540394573
C   C79       1.0  0.73520  0.71050  0.09560  1.0000 0.540394573
C   C80       1.0  0.21050  0.40440  0.26480  1.0000 0.540394573
C   C81       1.0  0.48520  0.84560  0.46050  1.0000 0.540394573
C   C82       1.0  0.78950  0.90440  0.23520  1.0000 0.540394573
C   C83       1.0  0.53950  0.01480  0.84560  1.0000 0.540394573
C   C84       1.0  0.84560  0.53950  0.01480  1.0000 0.540394573
C   C85       1.0  0.15440  0.96050  0.01480  1.0000 0.540394573
C   C86       1.0  0.53950  0.98520  0.65440  1.0000 0.540394573
C   C87       1.0  0.65440  0.53950  0.98520  1.0000 0.540394573
C   C88       1.0  0.46050  0.48520  0.84560  1.0000 0.540394573
C   C89       1.0  0.96050  0.01480  0.15440  1.0000 0.540394573
C   C90       1.0  0.84560  0.46050  0.48520  1.0000 0.540394573
C   C91       1.0  0.90440  0.23520  0.78950  1.0000 0.540394573
C   C92       1.0  0.09560  0.26480  0.78950  1.0000 0.540394573
C   C93       1.0  0.26480  0.21050  0.40440  1.0000 0.540394573
C   C94       1.0  0.26480  0.78950  0.09560  1.0000 0.540394573
C   C95       1.0  0.71050  0.09560  0.73520  1.0000 0.540394573
C   C96       1.0  0.78950  0.09560  0.26480  1.0000 0.540394573
C   C97       1.0  0.58290  0.44320  0.01080  1.0000 -0.0813850923
C   C98       1.0  0.69320  0.16710  0.23920  1.0000 -0.0813850923
C   C99       1.0  0.41710  0.05680  0.01080  1.0000 -0.0813850923
C   C100      1.0  0.80680  0.83290  0.73920  1.0000 -0.0813850923
C   C101      1.0  0.66710  0.26080  0.30680  1.0000 -0.0813850923
C   C102      1.0  0.58290  0.55680  0.48920  1.0000 -0.0813850923
C   C103      1.0  0.16710  0.23920  0.69320  1.0000 -0.0813850923
C   C104      1.0  0.73920  0.80680  0.83290  1.0000 -0.0813850923
C   C105      1.0  0.91710  0.44320  0.98920  1.0000 -0.0813850923
C   C106      1.0  0.26080  0.30680  0.66710  1.0000 -0.0813850923
C   C107      1.0  0.01080  0.58290  0.44320  1.0000 -0.0813850923
C   C108      1.0  0.44320  0.01080  0.58290  1.0000 -0.0813850923
C   C109      1.0  0.55680  0.48920  0.58290  1.0000 -0.0813850923
C   C110      1.0  0.01080  0.41710  0.05680  1.0000 -0.0813850923
C   C111      1.0  0.05680  0.01080  0.41710  1.0000 -0.0813850923
C   C112      1.0  0.98920  0.91710  0.44320  1.0000 -0.0813850923
C   C113      1.0  0.48920  0.58290  0.55680  1.0000 -0.0813850923
C   C114      1.0  0.44320  0.98920  0.91710  1.0000 -0.0813850923
C   C115      1.0  0.30680  0.66710  0.26080  1.0000 -0.0813850923
C   C116      1.0  0.69320  0.83290  0.26080  1.0000 -0.0813850923
C   C117      1.0  0.83290  0.73920  0.80680  1.0000 -0.0813850923
C   C118      1.0  0.83290  0.26080  0.69320  1.0000 -0.0813850923
C   C119      1.0  0.23920  0.69320  0.16710  1.0000 -0.0813850923
C   C120      1.0  0.26080  0.69320  0.83290  1.0000 -0.0813850923
C   C121      1.0  0.08290  0.94320  0.51080  1.0000 -0.0813850923
C   C122      1.0  0.19320  0.66710  0.73920  1.0000 -0.0813850923
C   C123      1.0  0.91710  0.55680  0.51080  1.0000 -0.0813850923
C   C124      1.0  0.30680  0.33290  0.23920  1.0000 -0.0813850923
C   C125      1.0  0.16710  0.76080  0.80680  1.0000 -0.0813850923
C   C126      1.0  0.08290  0.05680  0.98920  1.0000 -0.0813850923
C   C127      1.0  0.66710  0.73920  0.19320  1.0000 -0.0813850923
C   C128      1.0  0.23920  0.30680  0.33290  1.0000 -0.0813850923
C   C129      1.0  0.41710  0.94320  0.48920  1.0000 -0.0813850923
C   C130      1.0  0.76080  0.80680  0.16710  1.0000 -0.0813850923
C   C131      1.0  0.51080  0.08290  0.94320  1.0000 -0.0813850923
C   C132      1.0  0.94320  0.51080  0.08290  1.0000 -0.0813850923
C   C133      1.0  0.05680  0.98920  0.08290  1.0000 -0.0813850923
C   C134      1.0  0.51080  0.91710  0.55680  1.0000 -0.0813850923
C   C135      1.0  0.55680  0.51080  0.91710  1.0000 -0.0813850923
C   C136      1.0  0.48920  0.41710  0.94320  1.0000 -0.0813850923
C   C137      1.0  0.98920  0.08290  0.05680  1.0000 -0.0813850923
C   C138      1.0  0.94320  0.48920  0.41710  1.0000 -0.0813850923
C   C139      1.0  0.80680  0.16710  0.76080  1.0000 -0.0813850923
C   C140      1.0  0.19320  0.33290  0.76080  1.0000 -0.0813850923
C   C141      1.0  0.33290  0.23920  0.30680  1.0000 -0.0813850923
C   C142      1.0  0.33290  0.76080  0.19320  1.0000 -0.0813850923
C   C143      1.0  0.73920  0.19320  0.66710  1.0000 -0.0813850923
C   C144      1.0  0.76080  0.19320  0.33290  1.0000 -0.0813850923
O   O1        1.0  0.55380  0.33180  0.08500  1.0000 -0.4851159318
O   O2        1.0  0.58180  0.19620  0.16500  1.0000 -0.4851159318
O   O3        1.0  0.44620  0.16820  0.08500  1.0000 -0.4851159318
O   O4        1.0  0.91820  0.80380  0.66500  1.0000 -0.4851159318
O   O5        1.0  0.69620  0.33500  0.41820  1.0000 -0.4851159318
O   O6        1.0  0.55380  0.66820  0.41500  1.0000 -0.4848714634
O   O7        1.0  0.19620  0.16500  0.58180  1.0000 -0.4851159318
O   O8        1.0  0.66500  0.91820  0.80380  1.0000 -0.4851159318
O   O9        1.0  0.94620  0.33180  0.91500  1.0000 -0.4848714634
O   O10       1.0  0.33500  0.41820  0.69620  1.0000 -0.4851159318
O   O11       1.0  0.08500  0.55380  0.33180  1.0000 -0.4848714634
O   O12       1.0  0.33180  0.08500  0.55380  1.0000 -0.4851159318
O   O13       1.0  0.66820  0.41500  0.55380  1.0000 -0.4851159318
O   O14       1.0  0.08500  0.44620  0.16820  1.0000 -0.4848714634
O   O15       1.0  0.16820  0.08500  0.44620  1.0000 -0.4848714634
O   O16       1.0  0.91500  0.94620  0.33180  1.0000 -0.4851159318
O   O17       1.0  0.41500  0.55380  0.66820  1.0000 -0.4851159318
O   O18       1.0  0.33180  0.91500  0.94620  1.0000 -0.4851159318
O   O19       1.0  0.41820  0.69620  0.33500  1.0000 -0.4848714634
O   O20       1.0  0.58180  0.80380  0.33500  1.0000 -0.4848714634
O   O21       1.0  0.80380  0.66500  0.91820  1.0000 -0.4851159318
O   O22       1.0  0.80380  0.33500  0.58180  1.0000 -0.4851159318
O   O23       1.0  0.16500  0.58180  0.19620  1.0000 -0.4848714634
O   O24       1.0  0.33500  0.58180  0.80380  1.0000 -0.4851159318
O   O25       1.0  0.05380  0.83180  0.58500  1.0000 -0.4851159318
O   O26       1.0  0.08180  0.69620  0.66500  1.0000 -0.4848714634
O   O27       1.0  0.94620  0.66820  0.58500  1.0000 -0.4848714634
O   O28       1.0  0.41820  0.30380  0.16500  1.0000 -0.4851159318
O   O29       1.0  0.19620  0.83500  0.91820  1.0000 -0.4851159318
O   O30       1.0  0.05380  0.16820  0.91500  1.0000 -0.4848714634
O   O31       1.0  0.69620  0.66500  0.08180  1.0000 -0.4851159318
O   O32       1.0  0.16500  0.41820  0.30380  1.0000 -0.4848714634
O   O33       1.0  0.44620  0.83180  0.41500  1.0000 -0.4848714634
O   O34       1.0  0.83500  0.91820  0.19620  1.0000 -0.4848714634
O   O35       1.0  0.58500  0.05380  0.83180  1.0000 -0.4851159318
O   O36       1.0  0.83180  0.58500  0.05380  1.0000 -0.4848714634
O   O37       1.0  0.16820  0.91500  0.05380  1.0000 -0.4848714634
O   O38       1.0  0.58500  0.94620  0.66820  1.0000 -0.4851159318
O   O39       1.0  0.66820  0.58500  0.94620  1.0000 -0.4851159318
O   O40       1.0  0.41500  0.44620  0.83180  1.0000 -0.4851159318
O   O41       1.0  0.91500  0.05380  0.16820  1.0000 -0.4848714634
O   O42       1.0  0.83180  0.41500  0.44620  1.0000 -0.4848714634
O   O43       1.0  0.91820  0.19620  0.83500  1.0000 -0.4848714634
O   O44       1.0  0.08180  0.30380  0.83500  1.0000 -0.4848714634
O   O45       1.0  0.30380  0.16500  0.41820  1.0000 -0.4851159318
O   O46       1.0  0.30380  0.83500  0.08180  1.0000 -0.4851159318
O   O47       1.0  0.66500  0.08180  0.69620  1.0000 -0.4851159318
O   O48       1.0  0.83500  0.08180  0.30380  1.0000 -0.4851159318
O   O49       1.0  0.46380  0.31290  0.03160  1.0000 -0.4533729655
O   O50       1.0  0.56290  0.28620  0.21840  1.0000 -0.4533729655
O   O51       1.0  0.53620  0.18710  0.03160  1.0000 -0.4533729655
O   O52       1.0  0.93710  0.71380  0.71840  1.0000 -0.4533729655
O   O53       1.0  0.78620  0.28160  0.43710  1.0000 -0.4533729655
O   O54       1.0  0.46380  0.68710  0.46840  1.0000 -0.4533729655
O   O55       1.0  0.28620  0.21840  0.56290  1.0000 -0.4533729655
O   O56       1.0  0.71840  0.93710  0.71380  1.0000 -0.4533729655
O   O57       1.0  0.03620  0.31290  0.96840  1.0000 -0.4533729655
O   O58       1.0  0.28160  0.43710  0.78620  1.0000 -0.4533729655
O   O59       1.0  0.03160  0.46380  0.31290  1.0000 -0.4533729655
O   O60       1.0  0.31290  0.03160  0.46380  1.0000 -0.4533729655
O   O61       1.0  0.68710  0.46840  0.46380  1.0000 -0.4533729655
O   O62       1.0  0.03160  0.53620  0.18710  1.0000 -0.4533729655
O   O63       1.0  0.18710  0.03160  0.53620  1.0000 -0.4533729655
O   O64       1.0  0.96840  0.03620  0.31290  1.0000 -0.4533729655
O   O65       1.0  0.46840  0.46380  0.68710  1.0000 -0.4533729655
O   O66       1.0  0.31290  0.96840  0.03620  1.0000 -0.4533729655
O   O67       1.0  0.43710  0.78620  0.28160  1.0000 -0.4533729655
O   O68       1.0  0.56290  0.71380  0.28160  1.0000 -0.4533729655
O   O69       1.0  0.71380  0.71840  0.93710  1.0000 -0.4533729655
O   O70       1.0  0.71380  0.28160  0.56290  1.0000 -0.4533729655
O   O71       1.0  0.21840  0.56290  0.28620  1.0000 -0.4533729655
O   O72       1.0  0.28160  0.56290  0.71380  1.0000 -0.4533729655
O   O73       1.0  0.96380  0.81290  0.53160  1.0000 -0.4533729655
O   O74       1.0  0.06290  0.78620  0.71840  1.0000 -0.4533729655
O   O75       1.0  0.03620  0.68710  0.53160  1.0000 -0.4533729655
O   O76       1.0  0.43710  0.21380  0.21840  1.0000 -0.4533729655
O   O77       1.0  0.28620  0.78160  0.93710  1.0000 -0.4533729655
O   O78       1.0  0.96380  0.18710  0.96840  1.0000 -0.4533729655
O   O79       1.0  0.78620  0.71840  0.06290  1.0000 -0.4533729655
O   O80       1.0  0.21840  0.43710  0.21380  1.0000 -0.4533729655
O   O81       1.0  0.53620  0.81290  0.46840  1.0000 -0.4533729655
O   O82       1.0  0.78160  0.93710  0.28620  1.0000 -0.4533729655
O   O83       1.0  0.53160  0.96380  0.81290  1.0000 -0.4533729655
O   O84       1.0  0.81290  0.53160  0.96380  1.0000 -0.4533729655
O   O85       1.0  0.18710  0.96840  0.96380  1.0000 -0.4533729655
O   O86       1.0  0.53160  0.03620  0.68710  1.0000 -0.4533729655
O   O87       1.0  0.68710  0.53160  0.03620  1.0000 -0.4533729655
O   O88       1.0  0.46840  0.53620  0.81290  1.0000 -0.4533729655
O   O89       1.0  0.96840  0.96380  0.18710  1.0000 -0.4533729655
O   O90       1.0  0.81290  0.46840  0.53620  1.0000 -0.4533729655
O   O91       1.0  0.93710  0.28620  0.78160  1.0000 -0.4533729655
O   O92       1.0  0.06290  0.21380  0.78160  1.0000 -0.4533729655
O   O93       1.0  0.21380  0.21840  0.43710  1.0000 -0.4533729655
O   O94       1.0  0.21380  0.78160  0.06290  1.0000 -0.4533729655
O   O95       1.0  0.71840  0.06290  0.78620  1.0000 -0.4533729655
O   O96       1.0  0.78160  0.06290  0.21380  1.0000 -0.4533729655
