# DDEC6 charges by PACMAN v1.1 (https://github.com/mtap-research/PACMAN-charge/)
data_d3nj03470d2_1_ASR_pacman
_symmetry_space_group_name_H-M   'P 1'
_cell_length_a   16.28340000
_cell_length_b   31.24800000
_cell_length_c   42.12200000
_cell_angle_alpha   90.00000000
_cell_angle_beta   90.00000000
_cell_angle_gamma   90.00000000
_symmetry_Int_Tables_number   1
_chemical_formula_structural   In3H24C42N2O13
_chemical_formula_sum   'In24 H192 C336 N16 O104'
_cell_volume   21432.67118375
_cell_formula_units_Z   8
loop_
 _symmetry_equiv_pos_site_id
 _symmetry_equiv_pos_as_xyz
  1  'x, y, z'
loop_
 _atom_site_type_symbol
 _atom_site_label
 _atom_site_symmetry_multiplicity
 _atom_site_fract_x
 _atom_site_fract_y
 _atom_site_fract_z
 _atom_site_occupancy
 _atom_site_charge
In  In1  1  0.96451000  0.02498000  0.74333000  1.0 1.4579370684
In  In2  1  0.03549000  0.97502000  0.24333000  1.0 1.4446122713
In  In3  1  0.96451000  0.47502000  0.24333000  1.0 1.4579370684
In  In4  1  0.03549000  0.52498000  0.74333000  1.0 1.4446122713
In  In5  1  0.11820000  0.96427000  0.78124000  1.0 1.3957183428
In  In6  1  0.88180000  0.03573000  0.28124000  1.0 1.4213206835
In  In7  1  0.11820000  0.53573000  0.28124000  1.0 1.3957183428
In  In8  1  0.88180000  0.46427000  0.78124000  1.0 1.4213206835
In  In9  1  0.03964000  0.05602000  0.81858000  1.0 1.525798546
In  In10  1  0.96036000  0.94398000  0.31858000  1.0 1.525798546
In  In11  1  0.03964000  0.44398000  0.31858000  1.0 1.525798546
In  In12  1  0.96036000  0.55602000  0.81858000  1.0 1.525798546
In  In13  1  0.38689000  0.28774000  0.52062000  1.0 1.4973733492
In  In14  1  0.61311000  0.71226000  0.02062000  1.0 1.4885350533
In  In15  1  0.38689000  0.21226000  0.02062000  1.0 1.4973733492
In  In16  1  0.61311000  0.78774000  0.52062000  1.0 1.4885350533
In  In17  1  0.53727000  0.22719000  0.56052000  1.0 1.525798546
In  In18  1  0.46273000  0.77281000  0.06052000  1.0 1.5188487438
In  In19  1  0.53727000  0.27281000  0.06052000  1.0 1.525798546
In  In20  1  0.46273000  0.72719000  0.56052000  1.0 1.5188487438
In  In21  1  0.47317000  0.19663000  0.48439000  1.0 1.5188487438
In  In22  1  0.52683000  0.80337000  0.98439000  1.0 1.5188487438
In  In23  1  0.47317000  0.30337000  0.98439000  1.0 1.5188487438
In  In24  1  0.52683000  0.69663000  0.48439000  1.0 1.5188487438
H  H1  1  0.25780000  0.94755000  0.69400000  1.0 0.1199531334
H  H2  1  0.74220000  0.05245000  0.19400000  1.0 0.1199531334
H  H3  1  0.25780000  0.55245000  0.19400000  1.0 0.1199531334
H  H4  1  0.74220000  0.44755000  0.69400000  1.0 0.1199531334
H  H5  1  0.34446000  0.94927000  0.65214000  1.0 0.127998533
H  H6  1  0.65554000  0.05073000  0.15214000  1.0 0.127998533
H  H7  1  0.34446000  0.55073000  0.15214000  1.0 0.127998533
H  H8  1  0.65554000  0.44927000  0.65214000  1.0 0.127998533
H  H9  1  0.19525000  0.03104000  0.61055000  1.0 0.127998533
H  H10  1  0.80475000  0.96896000  0.11055000  1.0 0.127998533
H  H11  1  0.19525000  0.46896000  0.11055000  1.0 0.127998533
H  H12  1  0.80475000  0.53104000  0.61055000  1.0 0.127998533
H  H13  1  0.11910000  0.03644000  0.65630000  1.0 0.1199531334
H  H14  1  0.88090000  0.96356000  0.15630000  1.0 0.1199531334
H  H15  1  0.11910000  0.46356000  0.15630000  1.0 0.1199531334
H  H16  1  0.88090000  0.53644000  0.65630000  1.0 0.1199531334
H  H17  1  0.51547000  0.90508000  0.55168000  1.0 0.1199531334
H  H18  1  0.48453000  0.09492000  0.05168000  1.0 0.1199531334
H  H19  1  0.51547000  0.59492000  0.05168000  1.0 0.1199531334
H  H20  1  0.48453000  0.40508000  0.55168000  1.0 0.1199531334
H  H21  1  0.46335000  0.96976000  0.56972000  1.0 0.127998533
H  H22  1  0.53665000  0.03024000  0.06972000  1.0 0.127998533
H  H23  1  0.46335000  0.53024000  0.06972000  1.0 0.127998533
H  H24  1  0.53665000  0.46976000  0.56972000  1.0 0.127998533
H  H25  1  0.26068000  0.90962000  0.60089000  1.0 0.127998533
H  H26  1  0.73932000  0.09038000  0.10089000  1.0 0.127998533
H  H27  1  0.26068000  0.59038000  0.10089000  1.0 0.127998533
H  H28  1  0.73932000  0.40962000  0.60089000  1.0 0.127998533
H  H29  1  0.31280000  0.84494000  0.58285000  1.0 0.1199531334
H  H30  1  0.68720000  0.15506000  0.08285000  1.0 0.1199531334
H  H31  1  0.31280000  0.65506000  0.08285000  1.0 0.1199531334
H  H32  1  0.68720000  0.34494000  0.58285000  1.0 0.1199531334
H  H33  1  0.37759000  0.07000000  0.51691000  1.0 0.1199531334
H  H34  1  0.62241000  0.93000000  0.01691000  1.0 0.1199531334
H  H35  1  0.37759000  0.43000000  0.01691000  1.0 0.1199531334
H  H36  1  0.62241000  0.57000000  0.51691000  1.0 0.1199531334
H  H37  1  0.31756000  0.01429000  0.54109000  1.0 0.127998533
H  H38  1  0.68244000  0.98571000  0.04109000  1.0 0.127998533
H  H39  1  0.31756000  0.48571000  0.04109000  1.0 0.127998533
H  H40  1  0.68244000  0.51429000  0.54109000  1.0 0.127998533
H  H41  1  0.38037000  0.05129000  0.62565000  1.0 0.127998533
H  H42  1  0.61963000  0.94871000  0.12565000  1.0 0.127998533
H  H43  1  0.38037000  0.44871000  0.12565000  1.0 0.127998533
H  H44  1  0.61963000  0.55129000  0.62565000  1.0 0.127998533
H  H45  1  0.45974000  0.10763000  0.60452000  1.0 0.1199531334
H  H46  1  0.54026000  0.89237000  0.10452000  1.0 0.1199531334
H  H47  1  0.45974000  0.39237000  0.10452000  1.0 0.1199531334
H  H48  1  0.54026000  0.60763000  0.60452000  1.0 0.1199531334
H  H49  1  0.07336000  0.13854000  0.69910000  1.0 0.1199531334
H  H50  1  0.92664000  0.86146000  0.19910000  1.0 0.1199531334
H  H51  1  0.07336000  0.36146000  0.19910000  1.0 0.1199531334
H  H52  1  0.92664000  0.63854000  0.69910000  1.0 0.1199531334
H  H53  1  0.10820000  0.20445000  0.68035000  1.0 0.127998533
H  H54  1  0.89180000  0.79555000  0.18035000  1.0 0.127998533
H  H55  1  0.10820000  0.29555000  0.18035000  1.0 0.127998533
H  H56  1  0.89180000  0.70445000  0.68035000  1.0 0.127998533
H  H57  1  0.17272000  0.24479000  0.76343000  1.0 0.127998533
H  H58  1  0.82728000  0.75521000  0.26343000  1.0 0.127998533
H  H59  1  0.17272000  0.25521000  0.26343000  1.0 0.127998533
H  H60  1  0.82728000  0.74479000  0.76343000  1.0 0.127998533
H  H61  1  0.11525000  0.18164000  0.78642000  1.0 0.1199531334
H  H62  1  0.88475000  0.81836000  0.28642000  1.0 0.1199531334
H  H63  1  0.11525000  0.31836000  0.28642000  1.0 0.1199531334
H  H64  1  0.88475000  0.68164000  0.78642000  1.0 0.1199531334
H  H65  1  0.97979000  0.34560000  0.74643000  1.0 0.1199531334
H  H66  1  0.02021000  0.65440000  0.24643000  1.0 0.1199531334
H  H67  1  0.97979000  0.15440000  0.24643000  1.0 0.1199531334
H  H68  1  0.02021000  0.84560000  0.74643000  1.0 0.1199531334
H  H69  1  0.03854000  0.28132000  0.73080000  1.0 0.1199531334
H  H70  1  0.96146000  0.71868000  0.23080000  1.0 0.1199531334
H  H71  1  0.03854000  0.21868000  0.23080000  1.0 0.1199531334
H  H72  1  0.96146000  0.78132000  0.73080000  1.0 0.1199531334
H  H73  1  0.24408000  0.34362000  0.70528000  1.0 0.127998533
H  H74  1  0.75592000  0.65638000  0.20528000  1.0 0.127998533
H  H75  1  0.24408000  0.15638000  0.20528000  1.0 0.127998533
H  H76  1  0.75592000  0.84362000  0.70528000  1.0 0.127998533
H  H77  1  0.18533000  0.40789000  0.72090000  1.0 0.1141792584
H  H78  1  0.81467000  0.59211000  0.22090000  1.0 0.1141792584
H  H79  1  0.18533000  0.09211000  0.22090000  1.0 0.1141792584
H  H80  1  0.81467000  0.90789000  0.72090000  1.0 0.1141792584
H  H81  1  0.39076000  0.22198000  0.64904000  1.0 0.127998533
H  H82  1  0.60924000  0.77802000  0.14904000  1.0 0.127998533
H  H83  1  0.39076000  0.27802000  0.14904000  1.0 0.127998533
H  H84  1  0.60924000  0.72198000  0.64904000  1.0 0.127998533
H  H85  1  0.30735000  0.21963000  0.69085000  1.0 0.127998533
H  H86  1  0.69265000  0.78037000  0.19085000  1.0 0.127998533
H  H87  1  0.30735000  0.28037000  0.19085000  1.0 0.127998533
H  H88  1  0.69265000  0.71963000  0.69085000  1.0 0.127998533
H  H89  1  0.16702000  0.31261000  0.65177000  1.0 0.127998533
H  H90  1  0.83298000  0.68739000  0.15177000  1.0 0.127998533
H  H91  1  0.16702000  0.18739000  0.15177000  1.0 0.127998533
H  H92  1  0.83298000  0.81261000  0.65177000  1.0 0.127998533
H  H93  1  0.23701000  0.30098000  0.60415000  1.0 0.1199531334
H  H94  1  0.76299000  0.69902000  0.10415000  1.0 0.1199531334
H  H95  1  0.23701000  0.19902000  0.10415000  1.0 0.1199531334
H  H96  1  0.76299000  0.80098000  0.60415000  1.0 0.1199531334
H  H97  1  0.00513000  0.88075000  0.86017000  1.0 0.127998533
H  H98  1  0.99487000  0.11925000  0.36017000  1.0 0.127998533
H  H99  1  0.00513000  0.61925000  0.36017000  1.0 0.127998533
H  H100  1  0.99487000  0.38075000  0.86017000  1.0 0.127998533
H  H101  1  0.01756000  0.84316000  0.90583000  1.0 0.127998533
H  H102  1  0.98244000  0.15684000  0.40583000  1.0 0.127998533
H  H103  1  0.01756000  0.65684000  0.40583000  1.0 0.127998533
H  H104  1  0.98244000  0.34316000  0.90583000  1.0 0.127998533
H  H105  1  0.06246000  0.94106000  0.95687000  1.0 0.127998533
H  H106  1  0.93754000  0.05894000  0.45687000  1.0 0.127998533
H  H107  1  0.06246000  0.55894000  0.45687000  1.0 0.127998533
H  H108  1  0.93754000  0.44106000  0.95687000  1.0 0.127998533
H  H109  1  0.06960000  0.98288000  0.91293000  1.0 0.1199531334
H  H110  1  0.93040000  0.01712000  0.41293000  1.0 0.1199531334
H  H111  1  0.06960000  0.51712000  0.41293000  1.0 0.1199531334
H  H112  1  0.93040000  0.48288000  0.91293000  1.0 0.1199531334
H  H113  1  0.28348000  0.83251000  0.95038000  1.0 0.1199531334
H  H114  1  0.71652000  0.16749000  0.45038000  1.0 0.1199531334
H  H115  1  0.28348000  0.66749000  0.45038000  1.0 0.1199531334
H  H116  1  0.71652000  0.33251000  0.95038000  1.0 0.1199531334
H  H117  1  0.16464000  0.86203000  0.93504000  1.0 0.127998533
H  H118  1  0.83536000  0.13797000  0.43504000  1.0 0.127998533
H  H119  1  0.16464000  0.63797000  0.43504000  1.0 0.127998533
H  H120  1  0.83536000  0.36203000  0.93504000  1.0 0.127998533
H  H121  1  0.07144000  0.83377000  0.02023000  1.0 0.127998533
H  H122  1  0.92856000  0.16623000  0.52023000  1.0 0.127998533
H  H123  1  0.07144000  0.66623000  0.52023000  1.0 0.127998533
H  H124  1  0.92856000  0.33377000  0.02023000  1.0 0.127998533
H  H125  1  0.20042000  0.80890000  0.03710000  1.0 0.1199531334
H  H126  1  0.79958000  0.19110000  0.53710000  1.0 0.1199531334
H  H127  1  0.20042000  0.69110000  0.53710000  1.0 0.1199531334
H  H128  1  0.79958000  0.30890000  0.03710000  1.0 0.1199531334
H  H129  1  0.87395000  0.75184000  0.99500000  1.0 0.1199531334
H  H130  1  0.12605000  0.24816000  0.49500000  1.0 0.1199531334
H  H131  1  0.87395000  0.74816000  0.49500000  1.0 0.1199531334
H  H132  1  0.12605000  0.25184000  0.99500000  1.0 0.1199531334
H  H133  1  0.99877000  0.78526000  0.98549000  1.0 0.1199531334
H  H134  1  0.00123000  0.21474000  0.48549000  1.0 0.1199531334
H  H135  1  0.99877000  0.71474000  0.48549000  1.0 0.1199531334
H  H136  1  0.00123000  0.28526000  0.98549000  1.0 0.1199531334
H  H137  1  0.87979000  0.89124000  0.95713000  1.0 0.127998533
H  H138  1  0.12021000  0.10876000  0.45713000  1.0 0.127998533
H  H139  1  0.87979000  0.60876000  0.45713000  1.0 0.127998533
H  H140  1  0.12021000  0.39124000  0.95713000  1.0 0.127998533
H  H141  1  0.75497000  0.85781000  0.96664000  1.0 0.1199531334
H  H142  1  0.24503000  0.14219000  0.46664000  1.0 0.1199531334
H  H143  1  0.75497000  0.64219000  0.46664000  1.0 0.1199531334
H  H144  1  0.24503000  0.35781000  0.96664000  1.0 0.1199531334
H  H145  1  0.54985000  0.26933000  0.39942000  1.0 0.1199531334
H  H146  1  0.45015000  0.73067000  0.89942000  1.0 0.1199531334
H  H147  1  0.54985000  0.23067000  0.89942000  1.0 0.1199531334
H  H148  1  0.45015000  0.76933000  0.39942000  1.0 0.1199531334
H  H149  1  0.58509000  0.31325000  0.35715000  1.0 0.127998533
H  H150  1  0.41491000  0.68675000  0.85715000  1.0 0.127998533
H  H151  1  0.58509000  0.18675000  0.85715000  1.0 0.127998533
H  H152  1  0.41491000  0.81325000  0.35715000  1.0 0.127998533
H  H153  1  0.46782000  0.41153000  0.39874000  1.0 0.127998533
H  H154  1  0.53218000  0.58847000  0.89874000  1.0 0.127998533
H  H155  1  0.46782000  0.08847000  0.89874000  1.0 0.127998533
H  H156  1  0.53218000  0.91153000  0.39874000  1.0 0.127998533
H  H157  1  0.43258000  0.36761000  0.44101000  1.0 0.1199531334
H  H158  1  0.56742000  0.63239000  0.94101000  1.0 0.1199531334
H  H159  1  0.43258000  0.13239000  0.94101000  1.0 0.1199531334
H  H160  1  0.56742000  0.86761000  0.44101000  1.0 0.1199531334
H  H161  1  0.26908000  0.38397000  0.32118000  1.0 0.1199531334
H  H162  1  0.73092000  0.61603000  0.82118000  1.0 0.1199531334
H  H163  1  0.26908000  0.11603000  0.82118000  1.0 0.1199531334
H  H164  1  0.73092000  0.88397000  0.32118000  1.0 0.1199531334
H  H165  1  0.39562000  0.35523000  0.33482000  1.0 0.127998533
H  H166  1  0.60438000  0.64477000  0.83482000  1.0 0.127998533
H  H167  1  0.39562000  0.14477000  0.83482000  1.0 0.127998533
H  H168  1  0.60438000  0.85523000  0.33482000  1.0 0.127998533
H  H169  1  0.49860000  0.47162000  0.32704000  1.0 0.127998533
H  H170  1  0.50140000  0.52838000  0.82704000  1.0 0.127998533
H  H171  1  0.49860000  0.02838000  0.82704000  1.0 0.127998533
H  H172  1  0.50140000  0.97162000  0.32704000  1.0 0.127998533
H  H173  1  0.37206000  0.50037000  0.31341000  1.0 0.1199531334
H  H174  1  0.62794000  0.49963000  0.81341000  1.0 0.1199531334
H  H175  1  0.37206000  0.99963000  0.81341000  1.0 0.1199531334
H  H176  1  0.62794000  0.00037000  0.31341000  1.0 0.1199531334
H  H177  1  0.71660000  0.44096000  0.27201000  1.0 0.1199531334
H  H178  1  0.28340000  0.55904000  0.77201000  1.0 0.1199531334
H  H179  1  0.71660000  0.05904000  0.77201000  1.0 0.1199531334
H  H180  1  0.28340000  0.94096000  0.27201000  1.0 0.1199531334
H  H181  1  0.58692000  0.41938000  0.28825000  1.0 0.1199531334
H  H182  1  0.41308000  0.58062000  0.78825000  1.0 0.127998533
H  H183  1  0.58692000  0.08062000  0.78825000  1.0 0.1199531334
H  H184  1  0.41308000  0.91938000  0.28825000  1.0 0.1199531334
H  H185  1  0.67595000  0.39272000  0.37500000  1.0 0.1199531334
H  H186  1  0.32405000  0.60728000  0.87500000  1.0 0.127998533
H  H187  1  0.67595000  0.10728000  0.87500000  1.0 0.127998533
H  H188  1  0.32405000  0.89272000  0.37500000  1.0 0.127998533
H  H189  1  0.80564000  0.41430000  0.35875000  1.0 0.1199531334
H  H190  1  0.19436000  0.58570000  0.85875000  1.0 0.1199531334
H  H191  1  0.80564000  0.08570000  0.85875000  1.0 0.1199531334
H  H192  1  0.19436000  0.91430000  0.35875000  1.0 0.1199531334
C  C1  1  0.12250000  0.99370000  0.70890000  1.0 0.5625457681
C  C2  1  0.87750000  0.00630000  0.20890000  1.0 0.5625457681
C  C3  1  0.12250000  0.50630000  0.20890000  1.0 0.5625457681
C  C4  1  0.87750000  0.49370000  0.70890000  1.0 0.5625457681
C  C5  1  0.17840000  0.99380000  0.68260000  1.0 -0.1032989387
C  C6  1  0.82160000  0.00620000  0.18260000  1.0 -0.1032989387
C  C7  1  0.17840000  0.50620000  0.18260000  1.0 -0.1032989387
C  C8  1  0.82160000  0.49380000  0.68260000  1.0 -0.1032989387
C  C9  1  0.24570000  0.96660000  0.67770000  1.0 -0.0802717356
C  C10  1  0.75430000  0.03340000  0.17770000  1.0 -0.0802717356
C  C11  1  0.24570000  0.53340000  0.17770000  1.0 -0.0802717356
C  C12  1  0.75430000  0.46660000  0.67770000  1.0 -0.0802717356
C  C13  1  0.29570000  0.96480000  0.65150000  1.0 -0.2209097875
C  C14  1  0.70430000  0.03520000  0.15150000  1.0 -0.2209097875
C  C15  1  0.29570000  0.53520000  0.15150000  1.0 -0.2209097875
C  C16  1  0.70430000  0.46480000  0.65150000  1.0 -0.2209097875
C  C17  1  0.27210000  0.98700000  0.62320000  1.0 0.1593612176
C  C18  1  0.72790000  0.01300000  0.12320000  1.0 0.1593612176
C  C19  1  0.27210000  0.51300000  0.12320000  1.0 0.1593612176
C  C20  1  0.72790000  0.48700000  0.62320000  1.0 0.1593612176
C  C21  1  0.20970000  0.01340000  0.62750000  1.0 -0.1916534321
C  C22  1  0.79030000  0.98660000  0.12750000  1.0 -0.1916534321
C  C23  1  0.20970000  0.48660000  0.12750000  1.0 -0.1916534321
C  C24  1  0.79030000  0.51340000  0.62750000  1.0 -0.1916534321
C  C25  1  0.16260000  0.01720000  0.65590000  1.0 -0.0802717356
C  C26  1  0.83740000  0.98280000  0.15590000  1.0 -0.0802717356
C  C27  1  0.16260000  0.48280000  0.15590000  1.0 -0.0802717356
C  C28  1  0.83740000  0.51720000  0.65590000  1.0 -0.0802717356
C  C29  1  0.45330000  0.82700000  0.55510000  1.0 0.601198028
C  C30  1  0.54670000  0.17300000  0.05510000  1.0 0.601198028
C  C31  1  0.45330000  0.67300000  0.05510000  1.0 0.601198028
C  C32  1  0.54670000  0.32700000  0.55510000  1.0 0.601198028
C  C33  1  0.41930000  0.86860000  0.56550000  1.0 -0.0711044969
C  C34  1  0.58070000  0.13140000  0.06550000  1.0 -0.0711044969
C  C35  1  0.41930000  0.63140000  0.06550000  1.0 -0.0711044969
C  C36  1  0.58070000  0.36860000  0.56550000  1.0 -0.0711044969
C  C37  1  0.46440000  0.90600000  0.56150000  1.0 -0.0802717356
C  C38  1  0.53560000  0.09400000  0.06150000  1.0 -0.0802717356
C  C39  1  0.46440000  0.59400000  0.06150000  1.0 -0.0802717356
C  C40  1  0.53560000  0.40600000  0.56150000  1.0 -0.0802717356
C  C41  1  0.43320000  0.94470000  0.57240000  1.0 -0.2011468822
C  C42  1  0.56680000  0.05530000  0.07240000  1.0 -0.2011468822
C  C43  1  0.43320000  0.55530000  0.07240000  1.0 -0.2011468822
C  C44  1  0.56680000  0.44470000  0.57240000  1.0 -0.2011468822
C  C45  1  0.35680000  0.94610000  0.58710000  1.0 0.1709167664
C  C46  1  0.64320000  0.05390000  0.08710000  1.0 0.1709167664
C  C47  1  0.35680000  0.55390000  0.08710000  1.0 0.1709167664
C  C48  1  0.64320000  0.44610000  0.58710000  1.0 0.1709167664
C  C49  1  0.31180000  0.90870000  0.59100000  1.0 -0.2011468822
C  C50  1  0.68820000  0.09130000  0.09100000  1.0 -0.2011468822
C  C51  1  0.31180000  0.59130000  0.09100000  1.0 -0.2011468822
C  C52  1  0.68820000  0.40870000  0.59100000  1.0 -0.2011468822
C  C53  1  0.34300000  0.87000000  0.58020000  1.0 -0.0802717356
C  C54  1  0.65700000  0.13000000  0.08020000  1.0 -0.0802717356
C  C55  1  0.34300000  0.63000000  0.08020000  1.0 -0.0802717356
C  C56  1  0.65700000  0.37000000  0.58020000  1.0 -0.0802717356
C  C57  1  0.45620000  0.13590000  0.54440000  1.0 0.5793015726
C  C58  1  0.54380000  0.86410000  0.04440000  1.0 0.5793015726
C  C59  1  0.45620000  0.36410000  0.04440000  1.0 0.5793015726
C  C60  1  0.54380000  0.63590000  0.54440000  1.0 0.5793015726
C  C61  1  0.41750000  0.09710000  0.55690000  1.0 -0.0711044969
C  C62  1  0.58250000  0.90290000  0.05690000  1.0 -0.0711044969
C  C63  1  0.41750000  0.40290000  0.05690000  1.0 -0.0711044969
C  C64  1  0.58250000  0.59710000  0.55690000  1.0 -0.0711044969
C  C65  1  0.38040000  0.06710000  0.53890000  1.0 -0.0802717356
C  C66  1  0.61960000  0.93290000  0.03890000  1.0 -0.0802717356
C  C67  1  0.38040000  0.43290000  0.03890000  1.0 -0.0802717356
C  C68  1  0.61960000  0.56710000  0.53890000  1.0 -0.0802717356
C  C69  1  0.34780000  0.03310000  0.55360000  1.0 -0.2011468822
C  C70  1  0.65220000  0.96690000  0.05360000  1.0 -0.2011468822
C  C71  1  0.34780000  0.46690000  0.05360000  1.0 -0.2011468822
C  C72  1  0.65220000  0.53310000  0.55360000  1.0 -0.2011468822
C  C73  1  0.35440000  0.02310000  0.58520000  1.0 0.1593612176
C  C74  1  0.64560000  0.97690000  0.08520000  1.0 0.1593612176
C  C75  1  0.35440000  0.47690000  0.08520000  1.0 0.1593612176
C  C76  1  0.64560000  0.52310000  0.58520000  1.0 0.1593612176
C  C77  1  0.38620000  0.05390000  0.60380000  1.0 -0.2011468822
C  C78  1  0.61380000  0.94610000  0.10380000  1.0 -0.2011468822
C  C79  1  0.38620000  0.44610000  0.10380000  1.0 -0.2011468822
C  C80  1  0.61380000  0.55390000  0.60380000  1.0 -0.2011468822
C  C81  1  0.42800000  0.08980000  0.59180000  1.0 -0.0881942311
C  C82  1  0.57200000  0.91020000  0.09180000  1.0 -0.0881942311
C  C83  1  0.42800000  0.41020000  0.09180000  1.0 -0.0881942311
C  C84  1  0.57200000  0.58980000  0.59180000  1.0 -0.0881942311
C  C85  1  0.03970000  0.11370000  0.75700000  1.0 0.5793015726
C  C86  1  0.96030000  0.88630000  0.25700000  1.0 0.5793015726
C  C87  1  0.03970000  0.38630000  0.25700000  1.0 0.5793015726
C  C88  1  0.96030000  0.61370000  0.75700000  1.0 0.5793015726
C  C89  1  0.07690000  0.15340000  0.74520000  1.0 -0.0711044969
C  C90  1  0.92310000  0.84660000  0.24520000  1.0 -0.0711044969
C  C91  1  0.07690000  0.34660000  0.24520000  1.0 -0.0711044969
C  C92  1  0.92310000  0.65340000  0.74520000  1.0 -0.0802717356
C  C93  1  0.08610000  0.16030000  0.71330000  1.0 -0.0881942311
C  C94  1  0.91390000  0.83970000  0.21330000  1.0 -0.0802717356
C  C95  1  0.08610000  0.33970000  0.21330000  1.0 -0.0881942311
C  C96  1  0.91390000  0.66030000  0.71330000  1.0 -0.0802717356
C  C97  1  0.11390000  0.19870000  0.70190000  1.0 -0.2011468822
C  C98  1  0.88610000  0.80130000  0.20190000  1.0 -0.2011468822
C  C99  1  0.11390000  0.30130000  0.20190000  1.0 -0.2011468822
C  C100  1  0.88610000  0.69870000  0.70190000  1.0 -0.2011468822
C  C101  1  0.14880000  0.22850000  0.72050000  1.0 0.1430236336
C  C102  1  0.85120000  0.77150000  0.22050000  1.0 0.1430236336
C  C103  1  0.14880000  0.27150000  0.22050000  1.0 0.1430236336
C  C104  1  0.85120000  0.72850000  0.72050000  1.0 0.1430236336
C  C105  1  0.14960000  0.22390000  0.75050000  1.0 -0.1916534321
C  C106  1  0.85040000  0.77610000  0.25050000  1.0 -0.1916534321
C  C107  1  0.14960000  0.27610000  0.25050000  1.0 -0.1916534321
C  C108  1  0.85040000  0.72390000  0.75050000  1.0 -0.1916534321
C  C109  1  0.11380000  0.18530000  0.76450000  1.0 -0.0802717356
C  C110  1  0.88620000  0.81470000  0.26450000  1.0 -0.0802717356
C  C111  1  0.11380000  0.31470000  0.26450000  1.0 -0.0802717356
C  C112  1  0.88620000  0.68530000  0.76450000  1.0 -0.0802717356
C  C113  1  0.03500000  0.42130000  0.74690000  1.0 0.5625457681
C  C114  1  0.96500000  0.57870000  0.24690000  1.0 0.5625457681
C  C115  1  0.03500000  0.07870000  0.24690000  1.0 0.5625457681
C  C116  1  0.96500000  0.92130000  0.74690000  1.0 0.5625457681
C  C117  1  0.07670000  0.38310000  0.73520000  1.0 -0.0711044969
C  C118  1  0.92330000  0.61690000  0.23520000  1.0 -0.0711044969
C  C119  1  0.07670000  0.11690000  0.23520000  1.0 -0.0711044969
C  C120  1  0.92330000  0.88310000  0.73520000  1.0 -0.0711044969
C  C121  1  0.03280000  0.34520000  0.73820000  1.0 -0.0802717356
C  C122  1  0.96720000  0.65480000  0.23820000  1.0 -0.0802717356
C  C123  1  0.03280000  0.15480000  0.23820000  1.0 -0.0802717356
C  C124  1  0.96720000  0.84520000  0.73820000  1.0 -0.0802717356
C  C125  1  0.06800000  0.30670000  0.72880000  1.0 -0.2011468822
C  C126  1  0.93200000  0.69330000  0.22880000  1.0 -0.2011468822
C  C127  1  0.06800000  0.19330000  0.22880000  1.0 -0.2011468822
C  C128  1  0.93200000  0.80670000  0.72880000  1.0 -0.2011468822
C  C129  1  0.14710000  0.30610000  0.71650000  1.0 0.187315529
C  C130  1  0.85290000  0.69390000  0.21650000  1.0 0.187315529
C  C131  1  0.14710000  0.19390000  0.21650000  1.0 0.187315529
C  C132  1  0.85290000  0.80610000  0.71650000  1.0 0.187315529
C  C133  1  0.19110000  0.34400000  0.71350000  1.0 -0.2011468822
C  C134  1  0.80890000  0.65600000  0.21350000  1.0 -0.2011468822
C  C135  1  0.19110000  0.15600000  0.21350000  1.0 -0.2011468822
C  C136  1  0.80890000  0.84400000  0.71350000  1.0 -0.2011468822
C  C137  1  0.15590000  0.38250000  0.72290000  1.0 -0.0711044969
C  C138  1  0.84410000  0.61750000  0.22290000  1.0 -0.0711044969
C  C139  1  0.15590000  0.11750000  0.22290000  1.0 -0.0711044969
C  C140  1  0.84410000  0.88250000  0.72290000  1.0 -0.0711044969
C  C141  1  0.36640000  0.25970000  0.59170000  1.0 0.601198028
C  C142  1  0.63360000  0.74030000  0.09170000  1.0 0.601198028
C  C143  1  0.36640000  0.24030000  0.09170000  1.0 0.601198028
C  C144  1  0.63360000  0.75970000  0.59170000  1.0 0.601198028
C  C145  1  0.32110000  0.26120000  0.62270000  1.0 -0.052922381
C  C146  1  0.67890000  0.73880000  0.12270000  1.0 -0.052922381
C  C147  1  0.32110000  0.23880000  0.12270000  1.0 -0.052922381
C  C148  1  0.67890000  0.76120000  0.62270000  1.0 -0.052922381
C  C149  1  0.34260000  0.23800000  0.64910000  1.0 -0.0881942311
C  C150  1  0.65740000  0.76200000  0.14910000  1.0 -0.0881942311
C  C151  1  0.34260000  0.26200000  0.14910000  1.0 -0.0881942311
C  C152  1  0.65740000  0.73800000  0.64910000  1.0 -0.0881942311
C  C153  1  0.29650000  0.23810000  0.67410000  1.0 -0.1677088224
C  C154  1  0.70350000  0.76190000  0.17410000  1.0 -0.1677088224
C  C155  1  0.29650000  0.26190000  0.17410000  1.0 -0.1677088224
C  C156  1  0.70350000  0.73810000  0.67410000  1.0 -0.1677088224
C  C157  1  0.23200000  0.26570000  0.67550000  1.0 0.1593612176
C  C158  1  0.76800000  0.73430000  0.17550000  1.0 0.1593612176
C  C159  1  0.23200000  0.23430000  0.17550000  1.0 0.1593612176
C  C160  1  0.76800000  0.76570000  0.67550000  1.0 0.1593612176
C  C161  1  0.20910000  0.29260000  0.65000000  1.0 -0.1916534321
C  C162  1  0.79090000  0.70740000  0.15000000  1.0 -0.1916534321
C  C163  1  0.20910000  0.20740000  0.15000000  1.0 -0.1916534321
C  C164  1  0.79090000  0.79260000  0.65000000  1.0 -0.1916534321
C  C165  1  0.25310000  0.28720000  0.62270000  1.0 -0.0881942311
C  C166  1  0.74690000  0.71280000  0.12270000  1.0 -0.0802717356
C  C167  1  0.25310000  0.21280000  0.12270000  1.0 -0.0881942311
C  C168  1  0.74690000  0.78720000  0.62270000  1.0 -0.0802717356
C  C169  1  0.05640000  0.96460000  0.85340000  1.0 0.601198028
C  C170  1  0.94360000  0.03540000  0.35340000  1.0 0.601198028
C  C171  1  0.05640000  0.53540000  0.35340000  1.0 0.601198028
C  C172  1  0.94360000  0.46460000  0.85340000  1.0 0.601198028
C  C173  1  0.03760000  0.93670000  0.88060000  1.0 -0.0711044969
C  C174  1  0.96240000  0.06330000  0.38060000  1.0 -0.0711044969
C  C175  1  0.03760000  0.56330000  0.38060000  1.0 -0.0711044969
C  C176  1  0.96240000  0.43670000  0.88060000  1.0 -0.0711044969
C  C177  1  0.01880000  0.89430000  0.87910000  1.0 -0.0711044969
C  C178  1  0.98120000  0.10570000  0.37910000  1.0 -0.0711044969
C  C179  1  0.01880000  0.60570000  0.37910000  1.0 -0.0802717356
C  C180  1  0.98120000  0.39430000  0.87910000  1.0 -0.0711044969
C  C181  1  0.02150000  0.87270000  0.90770000  1.0 -0.2011468822
C  C182  1  0.97850000  0.12730000  0.40770000  1.0 -0.2011468822
C  C183  1  0.02150000  0.62730000  0.40770000  1.0 -0.2011468822
C  C184  1  0.97850000  0.37270000  0.90770000  1.0 -0.2011468822
C  C185  1  0.02840000  0.88570000  0.93600000  1.0 0.1430236336
C  C186  1  0.97160000  0.11430000  0.43600000  1.0 0.1430236336
C  C187  1  0.02840000  0.61430000  0.43600000  1.0 0.1430236336
C  C188  1  0.97160000  0.38570000  0.93600000  1.0 0.1430236336
C  C189  1  0.05050000  0.92900000  0.93720000  1.0 -0.2209097875
C  C190  1  0.94950000  0.07100000  0.43720000  1.0 -0.2209097875
C  C191  1  0.05050000  0.57100000  0.43720000  1.0 -0.2209097875
C  C192  1  0.94950000  0.42900000  0.93720000  1.0 -0.2209097875
C  C193  1  0.05500000  0.95420000  0.91100000  1.0 -0.0881942311
C  C194  1  0.94500000  0.04580000  0.41100000  1.0 -0.0881942311
C  C195  1  0.05500000  0.54580000  0.41100000  1.0 -0.0881942311
C  C196  1  0.94500000  0.45420000  0.91100000  1.0 -0.0881942311
C  C197  1  0.34790000  0.80730000  0.00710000  1.0 0.4444090493
C  C198  1  0.65210000  0.19270000  0.50710000  1.0 0.4461616146
C  C199  1  0.34790000  0.69270000  0.50710000  1.0 0.4461616146
C  C200  1  0.65210000  0.30730000  0.00710000  1.0 0.4461616146
C  C201  1  0.26460000  0.81880000  0.99690000  1.0 -0.0561471533
C  C202  1  0.73540000  0.18120000  0.49690000  1.0 -0.0561471533
C  C203  1  0.26460000  0.68120000  0.49690000  1.0 -0.0561471533
C  C204  1  0.73540000  0.31880000  0.99690000  1.0 -0.0561471533
C  C205  1  0.24200000  0.83380000  0.96550000  1.0 -0.0881942311
C  C206  1  0.75800000  0.16620000  0.46550000  1.0 -0.0881942311
C  C207  1  0.24200000  0.66620000  0.46550000  1.0 -0.0881942311
C  C208  1  0.75800000  0.33380000  0.96550000  1.0 -0.0881942311
C  C209  1  0.16880000  0.84960000  0.95500000  1.0 -0.1916534321
C  C210  1  0.83120000  0.15040000  0.45500000  1.0 -0.2011468822
C  C211  1  0.16880000  0.65040000  0.45500000  1.0 -0.2011468822
C  C212  1  0.83120000  0.34960000  0.95500000  1.0 -0.2011468822
C  C213  1  0.10080000  0.84690000  0.97470000  1.0 0.187315529
C  C214  1  0.89920000  0.15310000  0.47470000  1.0 0.187315529
C  C215  1  0.10080000  0.65310000  0.47470000  1.0 0.187315529
C  C216  1  0.89920000  0.34690000  0.97470000  1.0 0.187315529
C  C217  1  0.11470000  0.83340000  0.00580000  1.0 -0.2209097875
C  C218  1  0.88530000  0.16660000  0.50580000  1.0 -0.2209097875
C  C219  1  0.11470000  0.66666667  0.50580000  1.0 -0.2209097875
C  C220  1  0.88530000  0.33340000  0.00580000  1.0 -0.2209097875
C  C221  1  0.19510000  0.81880000  0.01640000  1.0 -0.0802717356
C  C222  1  0.80490000  0.18120000  0.51640000  1.0 -0.0802717356
C  C223  1  0.19510000  0.68120000  0.51640000  1.0 -0.0802717356
C  C224  1  0.80490000  0.31880000  0.01640000  1.0 -0.0802717356
C  C225  1  0.71890000  0.78480000  0.98800000  1.0 0.6082931029
C  C226  1  0.28110000  0.21520000  0.48800000  1.0 0.6082931029
C  C227  1  0.71890000  0.71520000  0.48800000  1.0 0.6082931029
C  C228  1  0.28110000  0.28480000  0.98800000  1.0 0.6082931029
C  C229  1  0.80210000  0.80150000  0.98180000  1.0 -0.0711044969
C  C230  1  0.19790000  0.19850000  0.48180000  1.0 -0.0711044969
C  C231  1  0.80210000  0.69850000  0.48180000  1.0 -0.0711044969
C  C232  1  0.19790000  0.30150000  0.98180000  1.0 -0.0711044969
C  C233  1  0.87510000  0.77980000  0.98740000  1.0 -0.0711044969
C  C234  1  0.12490000  0.22020000  0.48740000  1.0 -0.0802717356
C  C235  1  0.87510000  0.72020000  0.48740000  1.0 -0.0802717356
C  C236  1  0.12490000  0.27980000  0.98740000  1.0 -0.0711044969
C  C237  1  0.94990000  0.79980000  0.98170000  1.0 -0.2057680023
C  C238  1  0.05010000  0.20020000  0.48170000  1.0 -0.2057680023
C  C239  1  0.94990000  0.70020000  0.48170000  1.0 -0.2057680023
C  C240  1  0.05010000  0.29980000  0.98170000  1.0 -0.2057680023
C  C241  1  0.95170000  0.84160000  0.97040000  1.0 0.1709167664
C  C242  1  0.04830000  0.15840000  0.47040000  1.0 0.1709167664
C  C243  1  0.95170000  0.65840000  0.47040000  1.0 0.1709167664
C  C244  1  0.04830000  0.34160000  0.97040000  1.0 0.1709167664
C  C245  1  0.87860000  0.86330000  0.96470000  1.0 -0.2011468822
C  C246  1  0.12140000  0.13670000  0.46470000  1.0 -0.2011468822
C  C247  1  0.87860000  0.63670000  0.46470000  1.0 -0.2011468822
C  C248  1  0.12140000  0.36330000  0.96470000  1.0 -0.2011468822
C  C249  1  0.80380000  0.84330000  0.97040000  1.0 -0.0802717356
C  C250  1  0.19620000  0.15670000  0.47040000  1.0 -0.0802717356
C  C251  1  0.80380000  0.65670000  0.47040000  1.0 -0.0802717356
C  C252  1  0.19620000  0.34330000  0.97040000  1.0 -0.0802717356
C  C253  1  0.46900000  0.28610000  0.45160000  1.0 0.601198028
C  C254  1  0.53100000  0.71390000  0.95160000  1.0 0.601198028
C  C255  1  0.46900000  0.21390000  0.95160000  1.0 0.601198028
C  C256  1  0.53100000  0.78610000  0.45160000  1.0 0.601198028
C  C257  1  0.48770000  0.31410000  0.42440000  1.0 -0.0711044969
C  C258  1  0.51230000  0.68590000  0.92440000  1.0 -0.0711044969
C  C259  1  0.48770000  0.18590000  0.92440000  1.0 -0.0711044969
C  C260  1  0.51230000  0.81410000  0.42440000  1.0 -0.0711044969
C  C261  1  0.53340000  0.29780000  0.39930000  1.0 -0.0802717356
C  C262  1  0.46660000  0.70220000  0.89930000  1.0 -0.0802717356
C  C263  1  0.53340000  0.20220000  0.89930000  1.0 -0.0802717356
C  C264  1  0.46660000  0.79780000  0.39930000  1.0 -0.0802717356
C  C265  1  0.55450000  0.32410000  0.37400000  1.0 -0.1916534321
C  C266  1  0.44550000  0.67590000  0.87400000  1.0 -0.1916534321
C  C267  1  0.55450000  0.17590000  0.87400000  1.0 -0.1916534321
C  C268  1  0.44550000  0.82410000  0.37400000  1.0 -0.1916534321
C  C269  1  0.52990000  0.36670000  0.37380000  1.0 0.1709167664
C  C270  1  0.47010000  0.63330000  0.87380000  1.0 0.1709167664
C  C271  1  0.52990000  0.13330000  0.87380000  1.0 0.1709167664
C  C272  1  0.47010000  0.86670000  0.37380000  1.0 0.1709167664
C  C273  1  0.48430000  0.38300000  0.39890000  1.0 -0.1916534321
C  C274  1  0.51570000  0.61700000  0.89890000  1.0 -0.1916534321
C  C275  1  0.48430000  0.11700000  0.89890000  1.0 -0.1916534321
C  C276  1  0.51570000  0.88300000  0.39890000  1.0 -0.1916534321
C  C277  1  0.46310000  0.35670000  0.42420000  1.0 -0.0802717356
C  C278  1  0.53690000  0.64330000  0.92420000  1.0 -0.0802717356
C  C279  1  0.46310000  0.14330000  0.92420000  1.0 -0.0802717356
C  C280  1  0.53690000  0.85670000  0.42420000  1.0 -0.0802717356
C  C281  1  0.22490000  0.46350000  0.31050000  1.0 0.6082931029
C  C282  1  0.77510000  0.53650000  0.81050000  1.0 0.6082931029
C  C283  1  0.22490000  0.03650000  0.81050000  1.0 0.6082931029
C  C284  1  0.77510000  0.96350000  0.31050000  1.0 0.6082931029
C  C285  1  0.30800000  0.44500000  0.31590000  1.0 -0.0561471533
C  C286  1  0.69200000  0.55500000  0.81590000  1.0 -0.0561471533
C  C287  1  0.30800000  0.05500000  0.81590000  1.0 -0.0561471533
C  C288  1  0.69200000  0.94500000  0.31590000  1.0 -0.0561471533
C  C289  1  0.31510000  0.40150000  0.32240000  1.0 -0.0802717356
C  C290  1  0.68490000  0.59850000  0.82240000  1.0 -0.0802717356
C  C291  1  0.31510000  0.09850000  0.82240000  1.0 -0.0802717356
C  C292  1  0.68490000  0.90150000  0.32240000  1.0 -0.0802717356
C  C293  1  0.39090000  0.38430000  0.33050000  1.0 -0.2011468822
C  C294  1  0.60910000  0.61570000  0.83050000  1.0 -0.2011468822
C  C295  1  0.39090000  0.11570000  0.83050000  1.0 -0.2011468822
C  C296  1  0.60910000  0.88430000  0.33050000  1.0 -0.2011468822
C  C297  1  0.45970000  0.41060000  0.33230000  1.0 0.187315529
C  C298  1  0.54030000  0.58940000  0.83230000  1.0 0.187315529
C  C299  1  0.45970000  0.08940000  0.83230000  1.0 0.187315529
C  C300  1  0.54030000  0.91060000  0.33230000  1.0 0.187315529
C  C301  1  0.45260000  0.45410000  0.32590000  1.0 -0.2011468822
C  C302  1  0.54740000  0.54590000  0.82590000  1.0 -0.2011468822
C  C303  1  0.45260000  0.04590000  0.82590000  1.0 -0.2011468822
C  C304  1  0.54740000  0.95410000  0.32590000  1.0 -0.2011468822
C  C305  1  0.37680000  0.47130000  0.31770000  1.0 -0.0802717356
C  C306  1  0.62320000  0.52870000  0.81770000  1.0 -0.0802717356
C  C307  1  0.37680000  0.02870000  0.81770000  1.0 -0.0802717356
C  C308  1  0.62320000  0.97130000  0.31770000  1.0 -0.0802717356
C  C309  1  0.85820000  0.44290000  0.30260000  1.0 0.6082931029
C  C310  1  0.14180000  0.55710000  0.80260000  1.0 0.6082931029
C  C311  1  0.85820000  0.05710000  0.80260000  1.0 0.6082931029
C  C312  1  0.14180000  0.94290000  0.30260000  1.0 0.6082931029
C  C313  1  0.77400000  0.42980000  0.31380000  1.0 -0.052922381
C  C314  1  0.22600000  0.57020000  0.81380000  1.0 -0.052922381
C  C315  1  0.77400000  0.07020000  0.81380000  1.0 -0.052922381
C  C316  1  0.22600000  0.92980000  0.31380000  1.0 -0.052922381
C  C317  1  0.70850000  0.43130000  0.29260000  1.0 -0.0802717356
C  C318  1  0.29150000  0.56870000  0.79260000  1.0 -0.0802717356
C  C319  1  0.70850000  0.06870000  0.79260000  1.0 -0.0802717356
C  C320  1  0.29150000  0.93130000  0.29260000  1.0 -0.0802717356
C  C321  1  0.63080000  0.41840000  0.30240000  1.0 -0.2011468822
C  C322  1  0.36920000  0.58160000  0.80240000  1.0 -0.2011468822
C  C323  1  0.63080000  0.08160000  0.80240000  1.0 -0.2011468822
C  C324  1  0.36920000  0.91840000  0.30240000  1.0 -0.2011468822
C  C325  1  0.61860000  0.40390000  0.33320000  1.0 0.1763241656
C  C326  1  0.38140000  0.59610000  0.83320000  1.0 0.1763241656
C  C327  1  0.61860000  0.09610000  0.83320000  1.0 0.1763241656
C  C328  1  0.38140000  0.90390000  0.33320000  1.0 0.1763241656
C  C329  1  0.68410000  0.40240000  0.35440000  1.0 -0.2011468822
C  C330  1  0.31590000  0.59760000  0.85440000  1.0 -0.2057680023
C  C331  1  0.68410000  0.09760000  0.85440000  1.0 -0.2011468822
C  C332  1  0.31590000  0.90240000  0.35440000  1.0 -0.2057680023
C  C333  1  0.76180000  0.41530000  0.34460000  1.0 -0.0881942311
C  C334  1  0.23820000  0.58470000  0.84460000  1.0 -0.0881942311
C  C335  1  0.76180000  0.08470000  0.84460000  1.0 -0.0881942311
C  C336  1  0.23820000  0.91530000  0.34460000  1.0 -0.0881942311
N  N1  1  0.32450000  0.98580000  0.59680000  1.0 -0.1399998201
N  N2  1  0.67550000  0.01420000  0.09680000  1.0 -0.1474181347
N  N3  1  0.32450000  0.51420000  0.09680000  1.0 -0.1399998201
N  N4  1  0.67550000  0.48580000  0.59680000  1.0 -0.1474181347
N  N5  1  0.18080000  0.26760000  0.70500000  1.0 -0.1916534321
N  N6  1  0.81920000  0.73240000  0.20500000  1.0 -0.1916534321
N  N7  1  0.18080000  0.23240000  0.20500000  1.0 -0.1916534321
N  N8  1  0.81920000  0.76760000  0.70500000  1.0 -0.1916534321
N  N9  1  0.02790000  0.86190000  0.96330000  1.0 -0.1399998201
N  N10  1  0.97210000  0.13810000  0.46330000  1.0 -0.1399998201
N  N11  1  0.02790000  0.63810000  0.46330000  1.0 -0.1399998201
N  N12  1  0.97210000  0.36190000  0.96330000  1.0 -0.1399998201
N  N13  1  0.53480000  0.39630000  0.34450000  1.0 -0.1820403942
N  N14  1  0.46520000  0.60370000  0.84450000  1.0 -0.1820403942
N  N15  1  0.53480000  0.10370000  0.84450000  1.0 -0.1820403942
N  N16  1  0.46520000  0.89630000  0.34450000  1.0 -0.1820403942
O  O1  1  0.03420000  0.01490000  0.78250000  1.0 -1.056636744
O  O2  1  0.96580000  0.98510000  0.28250000  1.0 -1.0527869396
O  O3  1  0.03420000  0.48510000  0.28250000  1.0 -1.056636744
O  O4  1  0.96580000  0.51490000  0.78250000  1.0 -1.0527869396
O  O5  1  0.46450000  0.23760000  0.52340000  1.0 -1.056636744
O  O6  1  0.53550000  0.76240000  0.02340000  1.0 -1.056636744
O  O7  1  0.46450000  0.26240000  0.02340000  1.0 -1.056636744
O  O8  1  0.53550000  0.73760000  0.52340000  1.0 -1.056636744
O  O9  1  0.06360000  0.01190000  0.70800000  1.0 -0.4574994118
O  O10  1  0.93640000  0.98810000  0.20800000  1.0 -0.4574994118
O  O11  1  0.06360000  0.48810000  0.20800000  1.0 -0.4574994118
O  O12  1  0.93640000  0.51190000  0.70800000  1.0 -0.4574994118
O  O13  1  0.16250000  0.97590000  0.73300000  1.0 -0.5985405975
O  O14  1  0.83750000  0.02410000  0.23300000  1.0 -0.5985405975
O  O15  1  0.16250000  0.52410000  0.23300000  1.0 -0.5985405975
O  O16  1  0.83750000  0.47590000  0.73300000  1.0 -0.5985405975
O  O17  1  0.41880000  0.79420000  0.56400000  1.0 -0.5426045987
O  O18  1  0.58120000  0.20580000  0.06400000  1.0 -0.5493105583
O  O19  1  0.41880000  0.70580000  0.06400000  1.0 -0.5426045987
O  O20  1  0.58120000  0.29420000  0.56400000  1.0 -0.5493105583
O  O21  1  0.52200000  0.82720000  0.54070000  1.0 -0.5929355107
O  O22  1  0.47800000  0.17280000  0.04070000  1.0 -0.5929355107
O  O23  1  0.52200000  0.67280000  0.04070000  1.0 -0.5929355107
O  O24  1  0.47800000  0.32720000  0.54070000  1.0 -0.5929355107
O  O25  1  0.49740000  0.16110000  0.56730000  1.0 -0.6924163335
O  O26  1  0.50260000  0.83890000  0.06730000  1.0 -0.6924163335
O  O27  1  0.49740000  0.33890000  0.06730000  1.0 -0.6924163335
O  O28  1  0.50260000  0.66110000  0.56730000  1.0 -0.6924163335
O  O29  1  0.44890000  0.14260000  0.51570000  1.0 -0.5426045987
O  O30  1  0.55110000  0.85740000  0.01570000  1.0 -0.5426045987
O  O31  1  0.44890000  0.35740000  0.01570000  1.0 -0.5426045987
O  O32  1  0.55110000  0.64260000  0.51570000  1.0 -0.5426045987
O  O33  1  0.04400000  0.11110000  0.78690000  1.0 -0.5222082072
O  O34  1  0.95600000  0.88890000  0.28690000  1.0 -0.5222082072
O  O35  1  0.04400000  0.38890000  0.28690000  1.0 -0.5222082072
O  O36  1  0.95600000  0.61110000  0.78690000  1.0 -0.5222082072
O  O37  1  0.00360000  0.09060000  0.74270000  1.0 -0.4574994118
O  O38  1  0.99640000  0.90940000  0.24270000  1.0 -0.4574994118
O  O39  1  0.00360000  0.40940000  0.24270000  1.0 -0.4574994118
O  O40  1  0.99640000  0.59060000  0.74270000  1.0 -0.4574994118
O  O41  1  0.97720000  0.41900000  0.76170000  1.0 -0.473333978
O  O42  1  0.02280000  0.58100000  0.26170000  1.0 -0.473333978
O  O43  1  0.97720000  0.08100000  0.26170000  1.0 -0.473333978
O  O44  1  0.02280000  0.91900000  0.76170000  1.0 -0.473333978
O  O45  1  0.08130000  0.45820000  0.74210000  1.0 -0.6648177438
O  O46  1  0.91870000  0.54180000  0.24210000  1.0 -0.6672328346
O  O47  1  0.08130000  0.04180000  0.24210000  1.0 -0.6648177438
O  O48  1  0.91870000  0.95820000  0.74210000  1.0 -0.6672328346
O  O49  1  0.34350000  0.27930000  0.56880000  1.0 -0.5059272357
O  O50  1  0.65650000  0.72070000  0.06880000  1.0 -0.5059272357
O  O51  1  0.34350000  0.22070000  0.06880000  1.0 -0.5059272357
O  O52  1  0.65650000  0.77930000  0.56880000  1.0 -0.5059272357
O  O53  1  0.44110000  0.24230000  0.59210000  1.0 -0.6197391573
O  O54  1  0.55890000  0.75770000  0.09210000  1.0 -0.6197391573
O  O55  1  0.44110000  0.25770000  0.09210000  1.0 -0.6197391573
O  O56  1  0.55890000  0.74230000  0.59210000  1.0 -0.6197391573
O  O57  1  0.03670000  0.00570000  0.85490000  1.0 -0.6197391573
O  O58  1  0.96330000  0.99430000  0.35490000  1.0 -0.6254522734
O  O59  1  0.03670000  0.49430000  0.35490000  1.0 -0.6197391573
O  O60  1  0.96330000  0.50570000  0.85490000  1.0 -0.6197391573
O  O61  1  0.08180000  0.94580000  0.82930000  1.0 -0.5493105583
O  O62  1  0.91820000  0.05420000  0.32930000  1.0 -0.5493105583
O  O63  1  0.08180000  0.55420000  0.32930000  1.0 -0.5493105583
O  O64  1  0.91820000  0.44580000  0.82930000  1.0 -0.5493105583
O  O65  1  0.41840000  0.80750000  0.98560000  1.0 -0.6197391573
O  O66  1  0.58160000  0.19250000  0.48560000  1.0 -0.6197391573
O  O67  1  0.41840000  0.69250000  0.48560000  1.0 -0.6197391573
O  O68  1  0.58160000  0.30750000  0.98560000  1.0 -0.6197391573
O  O69  1  0.34950000  0.79220000  0.03390000  1.0 -0.4841642909
O  O70  1  0.65050000  0.20780000  0.53390000  1.0 -0.4863870375
O  O71  1  0.34950000  0.70780000  0.53390000  1.0 -0.4841642909
O  O72  1  0.65050000  0.29220000  0.03390000  1.0 -0.4863870375
O  O73  1  0.65770000  0.80320000  0.97620000  1.0 -0.5800755702
O  O74  1  0.34230000  0.19680000  0.47620000  1.0 -0.5800755702
O  O75  1  0.65770000  0.69680000  0.47620000  1.0 -0.5800755702
O  O76  1  0.34230000  0.30320000  0.97620000  1.0 -0.5800755702
O  O77  1  0.71740000  0.75030000  0.00290000  1.0 -0.56139353
O  O78  1  0.28260000  0.24970000  0.50290000  1.0 -0.56139353
O  O79  1  0.71740000  0.74970000  0.50290000  1.0 -0.56139353
O  O80  1  0.28260000  0.25030000  0.00290000  1.0 -0.56139353
O  O81  1  0.42620000  0.30410000  0.47240000  1.0 -0.5695012667
O  O82  1  0.57380000  0.69590000  0.97240000  1.0 -0.5695012667
O  O83  1  0.42620000  0.19590000  0.97240000  1.0 -0.5695012667
O  O84  1  0.57380000  0.80410000  0.47240000  1.0 -0.5695012667
O  O85  1  0.49200000  0.25000000  0.45220000  1.0 -0.4977856584
O  O86  1  0.50800000  0.75000000  0.95220000  1.0 -0.4977856584
O  O87  1  0.49200000  0.25000000  0.95220000  1.0 -0.4977856584
O  O88  1  0.50800000  0.75000000  0.45220000  1.0 -0.4977856584
O  O89  1  0.16770000  0.44040000  0.31850000  1.0 -0.56139353
O  O90  1  0.83230000  0.55960000  0.81850000  1.0 -0.56139353
O  O91  1  0.16770000  0.05960000  0.81850000  1.0 -0.56139353
O  O92  1  0.83230000  0.94040000  0.31850000  1.0 -0.56139353
O  O93  1  0.22530000  0.50150000  0.29890000  1.0 -0.5800755702
O  O94  1  0.77470000  0.49850000  0.79890000  1.0 -0.5800755702
O  O95  1  0.22530000  0.99850000  0.79890000  1.0 -0.5800755702
O  O96  1  0.77470000  0.00150000  0.29890000  1.0 -0.5800755702
O  O97  1  0.86140000  0.45610000  0.27290000  1.0 -0.6069653266
O  O98  1  0.13860000  0.54390000  0.77290000  1.0 -0.6069653266
O  O99  1  0.86140000  0.04390000  0.77290000  1.0 -0.6069653266
O  O100  1  0.13860000  0.95610000  0.27290000  1.0 -0.6069653266
O  O101  1  0.92290000  0.44070000  0.31930000  1.0 -0.5695012667
O  O102  1  0.07710000  0.55930000  0.81930000  1.0 -0.5695012667
O  O103  1  0.92290000  0.05930000  0.81930000  1.0 -0.5695012667
O  O104  1  0.07710000  0.94070000  0.31930000  1.0 -0.5695012667
