# DDEC6 charges by PACMAN v1.1 (https://github.com/mtap-research/PACMAN-charge/)
data_d3qi01569f2_2_ASR_pacman
_symmetry_space_group_name_H-M   'P 1'
_cell_length_a   34.19840000
_cell_length_b   34.19840000
_cell_length_c   13.36700000
_cell_angle_alpha   90.00000000
_cell_angle_beta   90.00000000
_cell_angle_gamma   90.00000000
_symmetry_Int_Tables_number   1
_chemical_formula_structural   Zn8H30C56S6(N4O5)5
_chemical_formula_sum   'Zn32 H120 C224 S24 N80 O100'
_cell_volume   15633.11502974
_cell_formula_units_Z   4
loop_
 _symmetry_equiv_pos_site_id
 _symmetry_equiv_pos_as_xyz
  1  'x, y, z'
loop_
 _atom_site_type_symbol
 _atom_site_label
 _atom_site_symmetry_multiplicity
 _atom_site_fract_x
 _atom_site_fract_y
 _atom_site_fract_z
 _atom_site_occupancy
 _atom_site_charge
Zn  Zn1  1  0.18738000  0.81262000  0.38312000  1.0 0.6122818488
Zn  Zn2  1  0.81262000  0.18738000  0.38312000  1.0 0.6122818488
Zn  Zn3  1  0.18738000  0.18738000  0.38312000  1.0 0.6122818488
Zn  Zn4  1  0.81262000  0.81262000  0.38312000  1.0 0.6122818488
Zn  Zn5  1  0.81262000  0.81262000  0.61688000  1.0 0.6122818488
Zn  Zn6  1  0.18738000  0.18738000  0.61688000  1.0 0.6122818488
Zn  Zn7  1  0.81262000  0.18738000  0.61688000  1.0 0.6122818488
Zn  Zn8  1  0.18738000  0.81262000  0.61688000  1.0 0.6122818488
Zn  Zn9  1  0.68738000  0.31262000  0.88312000  1.0 0.6122818488
Zn  Zn10  1  0.31262000  0.68738000  0.88312000  1.0 0.6122818488
Zn  Zn11  1  0.68738000  0.68738000  0.88312000  1.0 0.6122818488
Zn  Zn12  1  0.31262000  0.31262000  0.88312000  1.0 0.6122818488
Zn  Zn13  1  0.31262000  0.31262000  0.11688000  1.0 0.6122818488
Zn  Zn14  1  0.68738000  0.68738000  0.11688000  1.0 0.6122818488
Zn  Zn15  1  0.31262000  0.68738000  0.11688000  1.0 0.6122818488
Zn  Zn16  1  0.68738000  0.31262000  0.11688000  1.0 0.6122818488
Zn  Zn17  1  0.15345000  0.65345000  0.25000000  1.0 0.5597942073
Zn  Zn18  1  0.84655000  0.34655000  0.25000000  1.0 0.5597942073
Zn  Zn19  1  0.34655000  0.15345000  0.25000000  1.0 0.5597942073
Zn  Zn20  1  0.65345000  0.84655000  0.25000000  1.0 0.5597942073
Zn  Zn21  1  0.84655000  0.65345000  0.75000000  1.0 0.5597942073
Zn  Zn22  1  0.15345000  0.34655000  0.75000000  1.0 0.5597942073
Zn  Zn23  1  0.65345000  0.15345000  0.75000000  1.0 0.5597942073
Zn  Zn24  1  0.34655000  0.84655000  0.75000000  1.0 0.5597942073
Zn  Zn25  1  0.84655000  0.34655000  0.75000000  1.0 0.5597942073
Zn  Zn26  1  0.15345000  0.65345000  0.75000000  1.0 0.5597942073
Zn  Zn27  1  0.65345000  0.84655000  0.75000000  1.0 0.5597942073
Zn  Zn28  1  0.34655000  0.15345000  0.75000000  1.0 0.5597942073
Zn  Zn29  1  0.15345000  0.34655000  0.25000000  1.0 0.5597942073
Zn  Zn30  1  0.84655000  0.65345000  0.25000000  1.0 0.5597942073
Zn  Zn31  1  0.34655000  0.84655000  0.25000000  1.0 0.5597942073
Zn  Zn32  1  0.65345000  0.15345000  0.25000000  1.0 0.5597942073
H  H33  1  0.12976000  0.87024000  0.09481000  1.0 0.1498454895
H  H34  1  0.87024000  0.12976000  0.09481000  1.0 0.1498454895
H  H35  1  0.12976000  0.12976000  0.09481000  1.0 0.1498454895
H  H36  1  0.87024000  0.87024000  0.09481000  1.0 0.1498454895
H  H37  1  0.87024000  0.87024000  0.90519000  1.0 0.1498454895
H  H38  1  0.12976000  0.12976000  0.90519000  1.0 0.1498454895
H  H39  1  0.87024000  0.12976000  0.90519000  1.0 0.1498454895
H  H40  1  0.12976000  0.87024000  0.90519000  1.0 0.1498454895
H  H41  1  0.62976000  0.37024000  0.59481000  1.0 0.1498454895
H  H42  1  0.37024000  0.62976000  0.59481000  1.0 0.1498454895
H  H43  1  0.62976000  0.62976000  0.59481000  1.0 0.1498454895
H  H44  1  0.37024000  0.37024000  0.59481000  1.0 0.1498454895
H  H45  1  0.37024000  0.37024000  0.40519000  1.0 0.1498454895
H  H46  1  0.62976000  0.62976000  0.40519000  1.0 0.1498454895
H  H47  1  0.37024000  0.62976000  0.40519000  1.0 0.1498454895
H  H48  1  0.62976000  0.37024000  0.40519000  1.0 0.1498454895
H  H49  1  0.19052000  0.53629000  0.40534000  1.0 0.1197954315
H  H50  1  0.80948000  0.46371000  0.40534000  1.0 0.1197954315
H  H51  1  0.46371000  0.19052000  0.40534000  1.0 0.1197954315
H  H52  1  0.53629000  0.80948000  0.40534000  1.0 0.1197954315
H  H53  1  0.80948000  0.53629000  0.59466000  1.0 0.1197954315
H  H54  1  0.19052000  0.46371000  0.59466000  1.0 0.1197954315
H  H55  1  0.53629000  0.19052000  0.59466000  1.0 0.1197954315
H  H56  1  0.46371000  0.80948000  0.59466000  1.0 0.1197954315
H  H57  1  0.69052000  0.03629000  0.90534000  1.0 0.1197954315
H  H58  1  0.30948000  0.96371000  0.90534000  1.0 0.1197954315
H  H59  1  0.96371000  0.69052000  0.90534000  1.0 0.1197954315
H  H60  1  0.03629000  0.30948000  0.90534000  1.0 0.1197954315
H  H61  1  0.30948000  0.03629000  0.09466000  1.0 0.1197954315
H  H62  1  0.69052000  0.96371000  0.09466000  1.0 0.1197954315
H  H63  1  0.03629000  0.69052000  0.09466000  1.0 0.1197954315
H  H64  1  0.96371000  0.30948000  0.09466000  1.0 0.1197954315
H  H65  1  0.80948000  0.46371000  0.59466000  1.0 0.1197954315
H  H66  1  0.19052000  0.53629000  0.59466000  1.0 0.1197954315
H  H67  1  0.53629000  0.80948000  0.59466000  1.0 0.1197954315
H  H68  1  0.46371000  0.19052000  0.59466000  1.0 0.1197954315
H  H69  1  0.19052000  0.46371000  0.40534000  1.0 0.1197954315
H  H70  1  0.80948000  0.53629000  0.40534000  1.0 0.1197954315
H  H71  1  0.46371000  0.80948000  0.40534000  1.0 0.1197954315
H  H72  1  0.53629000  0.19052000  0.40534000  1.0 0.1197954315
H  H73  1  0.30948000  0.96371000  0.09466000  1.0 0.1197954315
H  H74  1  0.69052000  0.03629000  0.09466000  1.0 0.1197954315
H  H75  1  0.03629000  0.30948000  0.09466000  1.0 0.1197954315
H  H76  1  0.96371000  0.69052000  0.09466000  1.0 0.1197954315
H  H77  1  0.69052000  0.96371000  0.90534000  1.0 0.1197954315
H  H78  1  0.30948000  0.03629000  0.90534000  1.0 0.1197954315
H  H79  1  0.96371000  0.30948000  0.90534000  1.0 0.1197954315
H  H80  1  0.03629000  0.69052000  0.90534000  1.0 0.1197954315
H  H1  1  0.14000000  0.83564000  0.50360000  0.25 0.2739233409
H  H2  1  0.86000000  0.16436000  0.50360000  0.25 0.2739233409
H  H3  1  0.16436000  0.14000000  0.50360000  0.25 0.2739233409
H  H4  1  0.83564000  0.86000000  0.50360000  0.25 0.2739233409
H  H5  1  0.86000000  0.83564000  0.49640000  0.25 0.2739233409
H  H6  1  0.14000000  0.16436000  0.49640000  0.25 0.2739233409
H  H7  1  0.83564000  0.14000000  0.49640000  0.25 0.2739233409
H  H8  1  0.16436000  0.86000000  0.49640000  0.25 0.2739233409
H  H9  1  0.64000000  0.33564000  0.00360000  0.25 0.2739233409
H  H10  1  0.36000000  0.66436000  0.00360000  0.25 0.2739233409
H  H11  1  0.66436000  0.64000000  0.00360000  0.25 0.2739233409
H  H12  1  0.33564000  0.36000000  0.00360000  0.25 0.2739233409
H  H13  1  0.36000000  0.33564000  0.99640000  0.25 0.2739233409
H  H14  1  0.64000000  0.66436000  0.99640000  0.25 0.2739233409
H  H15  1  0.33564000  0.64000000  0.99640000  0.25 0.2739233409
H  H16  1  0.66436000  0.36000000  0.99640000  0.25 0.2739233409
H  H17  1  0.86000000  0.16436000  0.49640000  0.25 0.2739233409
H  H18  1  0.14000000  0.83564000  0.49640000  0.25 0.2739233409
H  H19  1  0.83564000  0.86000000  0.49640000  0.25 0.2739233409
H  H20  1  0.16436000  0.14000000  0.49640000  0.25 0.2739233409
H  H21  1  0.14000000  0.16436000  0.50360000  0.25 0.2739233409
H  H22  1  0.86000000  0.83564000  0.50360000  0.25 0.2739233409
H  H23  1  0.16436000  0.86000000  0.50360000  0.25 0.2739233409
H  H24  1  0.83564000  0.14000000  0.50360000  0.25 0.2739233409
H  H25  1  0.36000000  0.66436000  0.99640000  0.25 0.2739233409
H  H26  1  0.64000000  0.33564000  0.99640000  0.25 0.2739233409
H  H27  1  0.33564000  0.36000000  0.99640000  0.25 0.2739233409
H  H28  1  0.66436000  0.64000000  0.99640000  0.25 0.2739233409
H  H29  1  0.64000000  0.66436000  0.00360000  0.25 0.2739233409
H  H30  1  0.36000000  0.33564000  0.00360000  0.25 0.2739233409
H  H31  1  0.66436000  0.36000000  0.00360000  0.25 0.2739233409
H  H32  1  0.33564000  0.64000000  0.00360000  0.25 0.2739233409
H  H81  1  0.15609000  0.61542000  0.55507000  0.5 0.304490925
H  H82  1  0.84391000  0.38458000  0.55507000  0.5 0.304490925
H  H83  1  0.38458000  0.15609000  0.55507000  0.5 0.304490925
H  H84  1  0.61542000  0.84391000  0.55507000  0.5 0.304490925
H  H85  1  0.84391000  0.61542000  0.44493000  0.5 0.304490925
H  H86  1  0.15609000  0.38458000  0.44493000  0.5 0.304490925
H  H87  1  0.61542000  0.15609000  0.44493000  0.5 0.304490925
H  H88  1  0.38458000  0.84391000  0.44493000  0.5 0.304490925
H  H89  1  0.65609000  0.11542000  0.05507000  0.5 0.304490925
H  H90  1  0.34391000  0.88458000  0.05507000  0.5 0.304490925
H  H91  1  0.88458000  0.65609000  0.05507000  0.5 0.304490925
H  H92  1  0.11542000  0.34391000  0.05507000  0.5 0.304490925
H  H93  1  0.34391000  0.11542000  0.94493000  0.5 0.304490925
H  H94  1  0.65609000  0.88458000  0.94493000  0.5 0.304490925
H  H95  1  0.11542000  0.65609000  0.94493000  0.5 0.304490925
H  H96  1  0.88458000  0.34391000  0.94493000  0.5 0.304490925
H  H97  1  0.84391000  0.38458000  0.44493000  0.5 0.304490925
H  H98  1  0.15609000  0.61542000  0.44493000  0.5 0.304490925
H  H99  1  0.61542000  0.84391000  0.44493000  0.5 0.304490925
H  H100  1  0.38458000  0.15609000  0.44493000  0.5 0.304490925
H  H101  1  0.15609000  0.38458000  0.55507000  0.5 0.304490925
H  H102  1  0.84391000  0.61542000  0.55507000  0.5 0.304490925
H  H103  1  0.38458000  0.84391000  0.55507000  0.5 0.304490925
H  H104  1  0.61542000  0.15609000  0.55507000  0.5 0.304490925
H  H105  1  0.34391000  0.88458000  0.94493000  0.5 0.304490925
H  H106  1  0.65609000  0.11542000  0.94493000  0.5 0.304490925
H  H107  1  0.11542000  0.34391000  0.94493000  0.5 0.304490925
H  H108  1  0.88458000  0.65609000  0.94493000  0.5 0.304490925
H  H109  1  0.65609000  0.88458000  0.05507000  0.5 0.304490925
H  H110  1  0.34391000  0.11542000  0.05507000  0.5 0.304490925
H  H111  1  0.88458000  0.34391000  0.05507000  0.5 0.304490925
H  H112  1  0.11542000  0.65609000  0.05507000  0.5 0.304490925
H  H113  1  0.15876000  0.62532000  0.44410000  0.5 0.2739233409
H  H114  1  0.84123000  0.37468000  0.44410000  0.5 0.2739233409
H  H115  1  0.37468000  0.15876000  0.44410000  0.5 0.2739233409
H  H116  1  0.62532000  0.84123000  0.44410000  0.5 0.2739233409
H  H117  1  0.84123000  0.62532000  0.55590000  0.5 0.2739233409
H  H118  1  0.15876000  0.37468000  0.55590000  0.5 0.2739233409
H  H119  1  0.62532000  0.15876000  0.55590000  0.5 0.2739233409
H  H120  1  0.37468000  0.84123000  0.55590000  0.5 0.2739233409
H  H121  1  0.65877000  0.12532000  0.94410000  0.5 0.2739233409
H  H122  1  0.34124000  0.87468000  0.94410000  0.5 0.2739233409
H  H123  1  0.87468000  0.65877000  0.94410000  0.5 0.2739233409
H  H124  1  0.12532000  0.34124000  0.94410000  0.5 0.2739233409
H  H125  1  0.34124000  0.12532000  0.05590000  0.5 0.2739233409
H  H126  1  0.65877000  0.87468000  0.05590000  0.5 0.2739233409
H  H127  1  0.12532000  0.65877000  0.05590000  0.5 0.2739233409
H  H128  1  0.87468000  0.34124000  0.05590000  0.5 0.2739233409
H  H129  1  0.84123000  0.37468000  0.55590000  0.5 0.2739233409
H  H130  1  0.15876000  0.62532000  0.55590000  0.5 0.2739233409
H  H131  1  0.62532000  0.84123000  0.55590000  0.5 0.2739233409
H  H132  1  0.37468000  0.15876000  0.55590000  0.5 0.2739233409
H  H133  1  0.15876000  0.37468000  0.44410000  0.5 0.2739233409
H  H134  1  0.84123000  0.62532000  0.44410000  0.5 0.2739233409
H  H135  1  0.37468000  0.84123000  0.44410000  0.5 0.2739233409
H  H136  1  0.62532000  0.15876000  0.44410000  0.5 0.2739233409
H  H137  1  0.34124000  0.87468000  0.05590000  0.5 0.2739233409
H  H138  1  0.65877000  0.12532000  0.05590000  0.5 0.2739233409
H  H139  1  0.12532000  0.34124000  0.05590000  0.5 0.2739233409
H  H140  1  0.87468000  0.65877000  0.05590000  0.5 0.2739233409
H  H141  1  0.65877000  0.87468000  0.94410000  0.5 0.2739233409
H  H142  1  0.34124000  0.12532000  0.94410000  0.5 0.2739233409
H  H143  1  0.87468000  0.34124000  0.94410000  0.5 0.2739233409
H  H144  1  0.12532000  0.65877000  0.94410000  0.5 0.2739233409
H  H145  1  0.17964000  0.74049000  0.25022000  0.5 0.0560384143
H  H146  1  0.82036000  0.25951000  0.25022000  0.5 0.0560384143
H  H147  1  0.25951000  0.17964000  0.25022000  0.5 0.0560384143
H  H148  1  0.74049000  0.82036000  0.25022000  0.5 0.0560384143
H  H149  1  0.82036000  0.74049000  0.74978000  0.5 0.0560384143
H  H150  1  0.17964000  0.25951000  0.74978000  0.5 0.0560384143
H  H151  1  0.74049000  0.17964000  0.74978000  0.5 0.0560384143
H  H152  1  0.25951000  0.82036000  0.74978000  0.5 0.0560384143
H  H153  1  0.67964000  0.24049000  0.75022000  0.5 0.0560384143
H  H154  1  0.32036000  0.75951000  0.75022000  0.5 0.0560384143
H  H155  1  0.75951000  0.67964000  0.75022000  0.5 0.0560384143
H  H156  1  0.24049000  0.32036000  0.75022000  0.5 0.0560384143
H  H157  1  0.32036000  0.24049000  0.24978000  0.5 0.0560384143
H  H158  1  0.67964000  0.75951000  0.24978000  0.5 0.0560384143
H  H159  1  0.24049000  0.67964000  0.24978000  0.5 0.0560384143
H  H160  1  0.75951000  0.32036000  0.24978000  0.5 0.0560384143
H  H161  1  0.82036000  0.25951000  0.74978000  0.5 0.0560384143
H  H162  1  0.17964000  0.74049000  0.74978000  0.5 0.0560384143
H  H163  1  0.74049000  0.82036000  0.74978000  0.5 0.0560384143
H  H164  1  0.25951000  0.17964000  0.74978000  0.5 0.0560384143
H  H165  1  0.17964000  0.25951000  0.25022000  0.5 0.0560384143
H  H166  1  0.82036000  0.74049000  0.25022000  0.5 0.0560384143
H  H167  1  0.25951000  0.82036000  0.25022000  0.5 0.0560384143
H  H168  1  0.74049000  0.17964000  0.25022000  0.5 0.0560384143
H  H169  1  0.32036000  0.75951000  0.24978000  0.5 0.0560384143
H  H170  1  0.67964000  0.24049000  0.24978000  0.5 0.0560384143
H  H171  1  0.24049000  0.32036000  0.24978000  0.5 0.0560384143
H  H172  1  0.75951000  0.67964000  0.24978000  0.5 0.0560384143
H  H173  1  0.67964000  0.75951000  0.75022000  0.5 0.0560384143
H  H174  1  0.32036000  0.24049000  0.75022000  0.5 0.0560384143
H  H175  1  0.75951000  0.32036000  0.75022000  0.5 0.0560384143
H  H176  1  0.24049000  0.67964000  0.75022000  0.5 0.0560384143
H  H177  1  0.17380000  0.73110000  0.71825000  0.5 0.0974160106
H  H178  1  0.82620000  0.26890000  0.71825000  0.5 0.0974160106
H  H179  1  0.26890000  0.17380000  0.71825000  0.5 0.0974160106
H  H180  1  0.73110000  0.82620000  0.71825000  0.5 0.0974160106
H  H181  1  0.82620000  0.73110000  0.28175000  0.5 0.0974160106
H  H182  1  0.17380000  0.26890000  0.28175000  0.5 0.0974160106
H  H183  1  0.73110000  0.17380000  0.28175000  0.5 0.0974160106
H  H184  1  0.26890000  0.82620000  0.28175000  0.5 0.0974160106
H  H185  1  0.67380000  0.23110000  0.21825000  0.5 0.0974160106
H  H186  1  0.32620000  0.76890000  0.21825000  0.5 0.0974160106
H  H187  1  0.76890000  0.67380000  0.21825000  0.5 0.0974160106
H  H188  1  0.23110000  0.32620000  0.21825000  0.5 0.0974160106
H  H189  1  0.32620000  0.23110000  0.78175000  0.5 0.0974160106
H  H190  1  0.67380000  0.76890000  0.78175000  0.5 0.0974160106
H  H191  1  0.23110000  0.67380000  0.78175000  0.5 0.0974160106
H  H192  1  0.76890000  0.32620000  0.78175000  0.5 0.0974160106
H  H193  1  0.82620000  0.26890000  0.28175000  0.5 0.0974160106
H  H194  1  0.17380000  0.73110000  0.28175000  0.5 0.0974160106
H  H195  1  0.73110000  0.82620000  0.28175000  0.5 0.0974160106
H  H196  1  0.26890000  0.17380000  0.28175000  0.5 0.0974160106
H  H197  1  0.17380000  0.26890000  0.71825000  0.5 0.0974160106
H  H198  1  0.82620000  0.73110000  0.71825000  0.5 0.0974160106
H  H199  1  0.26890000  0.82620000  0.71825000  0.5 0.0974160106
H  H200  1  0.73110000  0.17380000  0.71825000  0.5 0.0974160106
H  H201  1  0.32620000  0.76890000  0.78175000  0.5 0.0974160106
H  H202  1  0.67380000  0.23110000  0.78175000  0.5 0.0974160106
H  H203  1  0.23110000  0.32620000  0.78175000  0.5 0.0974160106
H  H204  1  0.76890000  0.67380000  0.78175000  0.5 0.0974160106
H  H205  1  0.67380000  0.76890000  0.21825000  0.5 0.0974160106
H  H206  1  0.32620000  0.23110000  0.21825000  0.5 0.0974160106
H  H207  1  0.76890000  0.32620000  0.21825000  0.5 0.0974160106
H  H208  1  0.23110000  0.67380000  0.21825000  0.5 0.0974160106
C  C1  1  0.18010000  0.81990000  0.19620000  1.0 0.4933215466
C  C2  1  0.81990000  0.18010000  0.19620000  1.0 0.4933215466
C  C3  1  0.18010000  0.18010000  0.19620000  1.0 0.4933215466
C  C4  1  0.81990000  0.81990000  0.19620000  1.0 0.4933215466
C  C5  1  0.81990000  0.81990000  0.80380000  1.0 0.4933215466
C  C6  1  0.18010000  0.18010000  0.80380000  1.0 0.4933215466
C  C7  1  0.81990000  0.18010000  0.80380000  1.0 0.4933215466
C  C8  1  0.18010000  0.81990000  0.80380000  1.0 0.4933215466
C  C9  1  0.68010000  0.31990000  0.69620000  1.0 0.4933215466
C  C10  1  0.31990000  0.68010000  0.69620000  1.0 0.4933215466
C  C11  1  0.68010000  0.68010000  0.69620000  1.0 0.4933215466
C  C12  1  0.31990000  0.31990000  0.69620000  1.0 0.4933215466
C  C13  1  0.31990000  0.31990000  0.30380000  1.0 0.4933215466
C  C14  1  0.68010000  0.68010000  0.30380000  1.0 0.4933215466
C  C15  1  0.31990000  0.68010000  0.30380000  1.0 0.4933215466
C  C16  1  0.68010000  0.31990000  0.30380000  1.0 0.4933215466
C  C17  1  0.17010000  0.82990000  0.09020000  1.0 -0.0189072403
C  C18  1  0.82990000  0.17010000  0.09020000  1.0 -0.0189072403
C  C19  1  0.17010000  0.17010000  0.09020000  1.0 -0.0189072403
C  C20  1  0.82990000  0.82990000  0.09020000  1.0 -0.0189072403
C  C21  1  0.82990000  0.82990000  0.90980000  1.0 -0.0189072403
C  C22  1  0.17010000  0.17010000  0.90980000  1.0 -0.0189072403
C  C23  1  0.82990000  0.17010000  0.90980000  1.0 -0.0189072403
C  C24  1  0.17010000  0.82990000  0.90980000  1.0 -0.0189072403
C  C25  1  0.67010000  0.32990000  0.59020000  1.0 -0.0189072403
C  C26  1  0.32990000  0.67010000  0.59020000  1.0 -0.0189072403
C  C27  1  0.67010000  0.67010000  0.59020000  1.0 -0.0189072403
C  C28  1  0.32990000  0.32990000  0.59020000  1.0 -0.0189072403
C  C29  1  0.32990000  0.32990000  0.40980000  1.0 -0.0189072403
C  C30  1  0.67010000  0.67010000  0.40980000  1.0 -0.0189072403
C  C31  1  0.32990000  0.67010000  0.40980000  1.0 -0.0189072403
C  C32  1  0.67010000  0.32990000  0.40980000  1.0 -0.0189072403
C  C33  1  0.14600000  0.85400000  0.05510000  1.0 -0.0882797619
C  C34  1  0.85400000  0.14600000  0.05510000  1.0 -0.0882797619
C  C35  1  0.14600000  0.14600000  0.05510000  1.0 -0.0882797619
C  C36  1  0.85400000  0.85400000  0.05510000  1.0 -0.0882797619
C  C37  1  0.85400000  0.85400000  0.94490000  1.0 -0.0882797619
C  C38  1  0.14600000  0.14600000  0.94490000  1.0 -0.0882797619
C  C39  1  0.85400000  0.14600000  0.94490000  1.0 -0.0882797619
C  C40  1  0.14600000  0.85400000  0.94490000  1.0 -0.0882797619
C  C41  1  0.64600000  0.35400000  0.55510000  1.0 -0.0882797619
C  C42  1  0.35400000  0.64600000  0.55510000  1.0 -0.0882797619
C  C43  1  0.64600000  0.64600000  0.55510000  1.0 -0.0882797619
C  C44  1  0.35400000  0.35400000  0.55510000  1.0 -0.0882797619
C  C45  1  0.35400000  0.35400000  0.44490000  1.0 -0.0882797619
C  C46  1  0.64600000  0.64600000  0.44490000  1.0 -0.0882797619
C  C47  1  0.35400000  0.64600000  0.44490000  1.0 -0.0882797619
C  C48  1  0.64600000  0.35400000  0.44490000  1.0 -0.0882797619
C  C49  1  0.15760000  0.57702000  0.24430000  1.0 0.5545843589
C  C50  1  0.84240000  0.42298000  0.24430000  1.0 0.5545843589
C  C51  1  0.42298000  0.15760000  0.24430000  1.0 0.5545843589
C  C52  1  0.57702000  0.84240000  0.24430000  1.0 0.5545843589
C  C53  1  0.84240000  0.57702000  0.75570000  1.0 0.5545843589
C  C54  1  0.15760000  0.42298000  0.75570000  1.0 0.5545843589
C  C55  1  0.57702000  0.15760000  0.75570000  1.0 0.5545843589
C  C56  1  0.42298000  0.84240000  0.75570000  1.0 0.5545843589
C  C57  1  0.65760000  0.07702000  0.74430000  1.0 0.5545843589
C  C58  1  0.34240000  0.92298000  0.74430000  1.0 0.5545843589
C  C59  1  0.92298000  0.65760000  0.74430000  1.0 0.5545843589
C  C60  1  0.07702000  0.34240000  0.74430000  1.0 0.5545843589
C  C61  1  0.34240000  0.07702000  0.25570000  1.0 0.5545843589
C  C62  1  0.65760000  0.92298000  0.25570000  1.0 0.5545843589
C  C63  1  0.07702000  0.65760000  0.25570000  1.0 0.5545843589
C  C64  1  0.92298000  0.34240000  0.25570000  1.0 0.5545843589
C  C65  1  0.84240000  0.42298000  0.75570000  1.0 0.5545843589
C  C66  1  0.15760000  0.57702000  0.75570000  1.0 0.5545843589
C  C67  1  0.57702000  0.84240000  0.75570000  1.0 0.5545843589
C  C68  1  0.42298000  0.15760000  0.75570000  1.0 0.5545843589
C  C69  1  0.15760000  0.42298000  0.24430000  1.0 0.5545843589
C  C70  1  0.84240000  0.57702000  0.24430000  1.0 0.5545843589
C  C71  1  0.42298000  0.84240000  0.24430000  1.0 0.5545843589
C  C72  1  0.57702000  0.15760000  0.24430000  1.0 0.5545843589
C  C73  1  0.34240000  0.92298000  0.25570000  1.0 0.5545843589
C  C74  1  0.65760000  0.07702000  0.25570000  1.0 0.5545843589
C  C75  1  0.07702000  0.34240000  0.25570000  1.0 0.5545843589
C  C76  1  0.92298000  0.65760000  0.25570000  1.0 0.5545843589
C  C77  1  0.65760000  0.92298000  0.74430000  1.0 0.5545843589
C  C78  1  0.34240000  0.07702000  0.74430000  1.0 0.5545843589
C  C79  1  0.92298000  0.34240000  0.74430000  1.0 0.5545843589
C  C80  1  0.07702000  0.65760000  0.74430000  1.0 0.5545843589
C  C81  1  0.16320000  0.53458000  0.27090000  1.0 -0.1118014556
C  C82  1  0.83680000  0.46542000  0.27090000  1.0 -0.1118014556
C  C83  1  0.46542000  0.16320000  0.27090000  1.0 -0.1118014556
C  C84  1  0.53458000  0.83680000  0.27090000  1.0 -0.1118014556
C  C85  1  0.83680000  0.53458000  0.72910000  1.0 -0.1118014556
C  C86  1  0.16320000  0.46542000  0.72910000  1.0 -0.1118014556
C  C87  1  0.53458000  0.16320000  0.72910000  1.0 -0.1118014556
C  C88  1  0.46542000  0.83680000  0.72910000  1.0 -0.1118014556
C  C89  1  0.66320000  0.03458000  0.77090000  1.0 -0.1118014556
C  C90  1  0.33680000  0.96542000  0.77090000  1.0 -0.1118014556
C  C91  1  0.96542000  0.66320000  0.77090000  1.0 -0.1118014556
C  C92  1  0.03458000  0.33680000  0.77090000  1.0 -0.1118014556
C  C93  1  0.33680000  0.03458000  0.22910000  1.0 -0.1118014556
C  C94  1  0.66320000  0.96542000  0.22910000  1.0 -0.1118014556
C  C95  1  0.03458000  0.66320000  0.22910000  1.0 -0.1118014556
C  C96  1  0.96542000  0.33680000  0.22910000  1.0 -0.1118014556
C  C97  1  0.83680000  0.46542000  0.72910000  1.0 -0.1118014556
C  C98  1  0.16320000  0.53458000  0.72910000  1.0 -0.1118014556
C  C99  1  0.53458000  0.83680000  0.72910000  1.0 -0.1118014556
C  C100  1  0.46542000  0.16320000  0.72910000  1.0 -0.1118014556
C  C101  1  0.16320000  0.46542000  0.27090000  1.0 -0.1118014556
C  C102  1  0.83680000  0.53458000  0.27090000  1.0 -0.1118014556
C  C103  1  0.46542000  0.83680000  0.27090000  1.0 -0.1118014556
C  C104  1  0.53458000  0.16320000  0.27090000  1.0 -0.1118014556
C  C105  1  0.33680000  0.96542000  0.22910000  1.0 -0.1118014556
C  C106  1  0.66320000  0.03458000  0.22910000  1.0 -0.1118014556
C  C107  1  0.03458000  0.33680000  0.22910000  1.0 -0.1118014556
C  C108  1  0.96542000  0.66320000  0.22910000  1.0 -0.1118014556
C  C109  1  0.66320000  0.96542000  0.77090000  1.0 -0.1118014556
C  C110  1  0.33680000  0.03458000  0.77090000  1.0 -0.1118014556
C  C111  1  0.96542000  0.33680000  0.77090000  1.0 -0.1118014556
C  C112  1  0.03458000  0.66320000  0.77090000  1.0 -0.1118014556
C  C113  1  0.18000000  0.52060000  0.35330000  1.0 -0.1272372155
C  C114  1  0.82000000  0.47940000  0.35330000  1.0 -0.1272372155
C  C115  1  0.47940000  0.18000000  0.35330000  1.0 -0.1272372155
C  C116  1  0.52060000  0.82000000  0.35330000  1.0 -0.1272372155
C  C117  1  0.82000000  0.52060000  0.64670000  1.0 -0.1272372155
C  C118  1  0.18000000  0.47940000  0.64670000  1.0 -0.1272372155
C  C119  1  0.52060000  0.18000000  0.64670000  1.0 -0.1272372155
C  C120  1  0.47940000  0.82000000  0.64670000  1.0 -0.1272372155
C  C121  1  0.68000000  0.02060000  0.85330000  1.0 -0.1272372155
C  C122  1  0.32000000  0.97940000  0.85330000  1.0 -0.1272372155
C  C123  1  0.97940000  0.68000000  0.85330000  1.0 -0.1272372155
C  C124  1  0.02060000  0.32000000  0.85330000  1.0 -0.1272372155
C  C125  1  0.32000000  0.02060000  0.14670000  1.0 -0.1272372155
C  C126  1  0.68000000  0.97940000  0.14670000  1.0 -0.1272372155
C  C127  1  0.02060000  0.68000000  0.14670000  1.0 -0.1272372155
C  C128  1  0.97940000  0.32000000  0.14670000  1.0 -0.1272372155
C  C129  1  0.82000000  0.47940000  0.64670000  1.0 -0.1272372155
C  C130  1  0.18000000  0.52060000  0.64670000  1.0 -0.1272372155
C  C131  1  0.52060000  0.82000000  0.64670000  1.0 -0.1272372155
C  C132  1  0.47940000  0.18000000  0.64670000  1.0 -0.1272372155
C  C133  1  0.18000000  0.47940000  0.35330000  1.0 -0.1272372155
C  C134  1  0.82000000  0.52060000  0.35330000  1.0 -0.1272372155
C  C135  1  0.47940000  0.82000000  0.35330000  1.0 -0.1272372155
C  C136  1  0.52060000  0.18000000  0.35330000  1.0 -0.1272372155
C  C137  1  0.32000000  0.97940000  0.14670000  1.0 -0.1272372155
C  C138  1  0.68000000  0.02060000  0.14670000  1.0 -0.1272372155
C  C139  1  0.02060000  0.32000000  0.14670000  1.0 -0.1272372155
C  C140  1  0.97940000  0.68000000  0.14670000  1.0 -0.1272372155
C  C141  1  0.68000000  0.97940000  0.85330000  1.0 -0.1272372155
C  C142  1  0.32000000  0.02060000  0.85330000  1.0 -0.1272372155
C  C143  1  0.97940000  0.32000000  0.85330000  1.0 -0.1272372155
C  C144  1  0.02060000  0.68000000  0.85330000  1.0 -0.1272372155
C  C145  1  0.17780000  0.73350000  0.31880000  0.5 0.0198362122
C  C146  1  0.82220000  0.26650000  0.31880000  0.5 0.0198362122
C  C147  1  0.26650000  0.17780000  0.31880000  0.5 0.0198362122
C  C148  1  0.73350000  0.82220000  0.31880000  0.5 0.0198362122
C  C149  1  0.82220000  0.73350000  0.68120000  0.5 0.0198362122
C  C150  1  0.17780000  0.26650000  0.68120000  0.5 0.0198362122
C  C151  1  0.73350000  0.17780000  0.68120000  0.5 0.0198362122
C  C152  1  0.26650000  0.82220000  0.68120000  0.5 0.0198362122
C  C153  1  0.67780000  0.23350000  0.81880000  0.5 0.0198362122
C  C154  1  0.32220000  0.76650000  0.81880000  0.5 0.0198362122
C  C155  1  0.76650000  0.67780000  0.81880000  0.5 0.0198362122
C  C156  1  0.23350000  0.32220000  0.81880000  0.5 0.0198362122
C  C157  1  0.32220000  0.23350000  0.18120000  0.5 0.0198362122
C  C158  1  0.67780000  0.76650000  0.18120000  0.5 0.0198362122
C  C159  1  0.23350000  0.67780000  0.18120000  0.5 0.0198362122
C  C160  1  0.76650000  0.32220000  0.18120000  0.5 0.0198362122
C  C161  1  0.82220000  0.26650000  0.68120000  0.5 0.0198362122
C  C162  1  0.17780000  0.73350000  0.68120000  0.5 0.0198362122
C  C163  1  0.73350000  0.82220000  0.68120000  0.5 0.0198362122
C  C164  1  0.26650000  0.17780000  0.68120000  0.5 0.0198362122
C  C165  1  0.17780000  0.26650000  0.31880000  0.5 0.0198362122
C  C166  1  0.82220000  0.73350000  0.31880000  0.5 0.0198362122
C  C167  1  0.26650000  0.82220000  0.31880000  0.5 0.0198362122
C  C168  1  0.73350000  0.17780000  0.31880000  0.5 0.0198362122
C  C169  1  0.32220000  0.76650000  0.18120000  0.5 0.0198362122
C  C170  1  0.67780000  0.23350000  0.18120000  0.5 0.0198362122
C  C171  1  0.23350000  0.32220000  0.18120000  0.5 0.0198362122
C  C172  1  0.76650000  0.67780000  0.18120000  0.5 0.0198362122
C  C173  1  0.67780000  0.76650000  0.81880000  0.5 0.0198362122
C  C174  1  0.32220000  0.23350000  0.81880000  0.5 0.0198362122
C  C175  1  0.76650000  0.32220000  0.81880000  0.5 0.0198362122
C  C176  1  0.23350000  0.67780000  0.81880000  0.5 0.0198362122
C  C177  1  0.17695000  0.73716000  0.47990000  0.5 0.0974160106
C  C178  1  0.82305000  0.26284000  0.47990000  0.5 0.0974160106
C  C179  1  0.26284000  0.17695000  0.47990000  0.5 0.0974160106
C  C180  1  0.73716000  0.82305000  0.47990000  0.5 0.0974160106
C  C181  1  0.82305000  0.73716000  0.52010000  0.5 0.0974160106
C  C182  1  0.17695000  0.26284000  0.52010000  0.5 0.0974160106
C  C183  1  0.73716000  0.17695000  0.52010000  0.5 0.0974160106
C  C184  1  0.26284000  0.82305000  0.52010000  0.5 0.0974160106
C  C185  1  0.67695000  0.23716000  0.97990000  0.5 0.0974160106
C  C186  1  0.32305000  0.76284000  0.97990000  0.5 0.0974160106
C  C187  1  0.76284000  0.67695000  0.97990000  0.5 0.0974160106
C  C188  1  0.23716000  0.32305000  0.97990000  0.5 0.0974160106
C  C189  1  0.32305000  0.23716000  0.02010000  0.5 0.0974160106
C  C190  1  0.67695000  0.76284000  0.02010000  0.5 0.0974160106
C  C191  1  0.23716000  0.67695000  0.02010000  0.5 0.0974160106
C  C192  1  0.76284000  0.32305000  0.02010000  0.5 0.0974160106
C  C193  1  0.82305000  0.26284000  0.52010000  0.5 0.0974160106
C  C194  1  0.17695000  0.73716000  0.52010000  0.5 0.0974160106
C  C195  1  0.73716000  0.82305000  0.52010000  0.5 0.0974160106
C  C196  1  0.26284000  0.17695000  0.52010000  0.5 0.0974160106
C  C197  1  0.17695000  0.26284000  0.47990000  0.5 0.0974160106
C  C198  1  0.82305000  0.73716000  0.47990000  0.5 0.0974160106
C  C199  1  0.26284000  0.82305000  0.47990000  0.5 0.0974160106
C  C200  1  0.73716000  0.17695000  0.47990000  0.5 0.0974160106
C  C201  1  0.32305000  0.76284000  0.02010000  0.5 0.0974160106
C  C202  1  0.67695000  0.23716000  0.02010000  0.5 0.0974160106
C  C203  1  0.23716000  0.32305000  0.02010000  0.5 0.0974160106
C  C204  1  0.76284000  0.67695000  0.02010000  0.5 0.0974160106
C  C205  1  0.67695000  0.76284000  0.97990000  0.5 0.0974160106
C  C206  1  0.32305000  0.23716000  0.97990000  0.5 0.0974160106
C  C207  1  0.76284000  0.32305000  0.97990000  0.5 0.0974160106
C  C208  1  0.23716000  0.67695000  0.97990000  0.5 0.0974160106
C  C209  1  0.17310000  0.72300000  0.65030000  0.5 0.1498454895
C  C210  1  0.82690000  0.27700000  0.65030000  0.5 0.1498454895
C  C211  1  0.27700000  0.17310000  0.65030000  0.5 0.1498454895
C  C212  1  0.72300000  0.82690000  0.65030000  0.5 0.1498454895
C  C213  1  0.82690000  0.72300000  0.34970000  0.5 0.1498454895
C  C214  1  0.17310000  0.27700000  0.34970000  0.5 0.1498454895
C  C215  1  0.72300000  0.17310000  0.34970000  0.5 0.1498454895
C  C216  1  0.27700000  0.82690000  0.34970000  0.5 0.1498454895
C  C217  1  0.67310000  0.22300000  0.15030000  0.5 0.1498454895
C  C218  1  0.32690000  0.77700000  0.15030000  0.5 0.1498454895
C  C219  1  0.77700000  0.67310000  0.15030000  0.5 0.1498454895
C  C220  1  0.22300000  0.32690000  0.15030000  0.5 0.1498454895
C  C221  1  0.32690000  0.22300000  0.84970000  0.5 0.1498454895
C  C222  1  0.67310000  0.77700000  0.84970000  0.5 0.1498454895
C  C223  1  0.22300000  0.67310000  0.84970000  0.5 0.1498454895
C  C224  1  0.77700000  0.32690000  0.84970000  0.5 0.1498454895
C  C225  1  0.82690000  0.27700000  0.34970000  0.5 0.1498454895
C  C226  1  0.17310000  0.72300000  0.34970000  0.5 0.1498454895
C  C227  1  0.72300000  0.82690000  0.34970000  0.5 0.1498454895
C  C228  1  0.27700000  0.17310000  0.34970000  0.5 0.1498454895
C  C229  1  0.17310000  0.27700000  0.65030000  0.5 0.1498454895
C  C230  1  0.82690000  0.72300000  0.65030000  0.5 0.1498454895
C  C231  1  0.27700000  0.82690000  0.65030000  0.5 0.1498454895
C  C232  1  0.72300000  0.17310000  0.65030000  0.5 0.1498454895
C  C233  1  0.32690000  0.77700000  0.84970000  0.5 0.1498454895
C  C234  1  0.67310000  0.22300000  0.84970000  0.5 0.1498454895
C  C235  1  0.22300000  0.32690000  0.84970000  0.5 0.1498454895
C  C236  1  0.77700000  0.67310000  0.84970000  0.5 0.1498454895
C  C237  1  0.67310000  0.77700000  0.15030000  0.5 0.1498454895
C  C238  1  0.32690000  0.22300000  0.15030000  0.5 0.1498454895
C  C239  1  0.77700000  0.32690000  0.15030000  0.5 0.1498454895
C  C240  1  0.22300000  0.67310000  0.15030000  0.5 0.1498454895
C  C241  1  0.16574000  0.67210000  0.53110000  0.5 0.135944843
C  C242  1  0.83426000  0.32790000  0.53110000  0.5 0.135944843
C  C243  1  0.32790000  0.16574000  0.53110000  0.5 0.135944843
C  C244  1  0.67210000  0.83426000  0.53110000  0.5 0.135944843
C  C245  1  0.83426000  0.67210000  0.46890000  0.5 0.135944843
C  C246  1  0.16574000  0.32790000  0.46890000  0.5 0.135944843
C  C247  1  0.67210000  0.16574000  0.46890000  0.5 0.135944843
C  C248  1  0.32790000  0.83426000  0.46890000  0.5 0.135944843
C  C249  1  0.66574000  0.17210000  0.03110000  0.5 0.135944843
C  C250  1  0.33426000  0.82790000  0.03110000  0.5 0.135944843
C  C251  1  0.82790000  0.66574000  0.03110000  0.5 0.135944843
C  C252  1  0.17210000  0.33426000  0.03110000  0.5 0.135944843
C  C253  1  0.33426000  0.17210000  0.96890000  0.5 0.135944843
C  C254  1  0.66574000  0.82790000  0.96890000  0.5 0.135944843
C  C255  1  0.17210000  0.66574000  0.96890000  0.5 0.135944843
C  C256  1  0.82790000  0.33426000  0.96890000  0.5 0.135944843
C  C257  1  0.83426000  0.32790000  0.46890000  0.5 0.135944843
C  C258  1  0.16574000  0.67210000  0.46890000  0.5 0.135944843
C  C259  1  0.67210000  0.83426000  0.46890000  0.5 0.135944843
C  C260  1  0.32790000  0.16574000  0.46890000  0.5 0.135944843
C  C261  1  0.16574000  0.32790000  0.53110000  0.5 0.135944843
C  C262  1  0.83426000  0.67210000  0.53110000  0.5 0.135944843
C  C263  1  0.32790000  0.83426000  0.53110000  0.5 0.135944843
C  C264  1  0.67210000  0.16574000  0.53110000  0.5 0.135944843
C  C265  1  0.33426000  0.82790000  0.96890000  0.5 0.135944843
C  C266  1  0.66574000  0.17210000  0.96890000  0.5 0.135944843
C  C267  1  0.17210000  0.33426000  0.96890000  0.5 0.135944843
C  C268  1  0.82790000  0.66574000  0.96890000  0.5 0.135944843
C  C269  1  0.66574000  0.82790000  0.03110000  0.5 0.135944843
C  C270  1  0.33426000  0.17210000  0.03110000  0.5 0.135944843
C  C271  1  0.82790000  0.33426000  0.03110000  0.5 0.135944843
C  C272  1  0.17210000  0.66574000  0.03110000  0.5 0.135944843
C  C273  1  0.17092000  0.69952000  0.45570000  0.5 0.0402254452
C  C274  1  0.82908000  0.30048000  0.45570000  0.5 0.0402254452
C  C275  1  0.30048000  0.17092000  0.45570000  0.5 0.0402254452
C  C276  1  0.69952000  0.82908000  0.45570000  0.5 0.0402254452
C  C277  1  0.82908000  0.69952000  0.54430000  0.5 0.0402254452
C  C278  1  0.17092000  0.30048000  0.54430000  0.5 0.0402254452
C  C279  1  0.69952000  0.17092000  0.54430000  0.5 0.0402254452
C  C280  1  0.30048000  0.82908000  0.54430000  0.5 0.0402254452
C  C281  1  0.67092000  0.19952000  0.95570000  0.5 0.0402254452
C  C282  1  0.32908000  0.80048000  0.95570000  0.5 0.0402254452
C  C283  1  0.80048000  0.67092000  0.95570000  0.5 0.0402254452
C  C284  1  0.19952000  0.32908000  0.95570000  0.5 0.0402254452
C  C285  1  0.32908000  0.19952000  0.04430000  0.5 0.0402254452
C  C286  1  0.67092000  0.80048000  0.04430000  0.5 0.0402254452
C  C287  1  0.19952000  0.67092000  0.04430000  0.5 0.0402254452
C  C288  1  0.80048000  0.32908000  0.04430000  0.5 0.0402254452
C  C289  1  0.82908000  0.30048000  0.54430000  0.5 0.0402254452
C  C290  1  0.17092000  0.69952000  0.54430000  0.5 0.0402254452
C  C291  1  0.69952000  0.82908000  0.54430000  0.5 0.0402254452
C  C292  1  0.30048000  0.17092000  0.54430000  0.5 0.0402254452
C  C293  1  0.17092000  0.30048000  0.45570000  0.5 0.0402254452
C  C294  1  0.82908000  0.69952000  0.45570000  0.5 0.0402254452
C  C295  1  0.30048000  0.82908000  0.45570000  0.5 0.0402254452
C  C296  1  0.69952000  0.17092000  0.45570000  0.5 0.0402254452
C  C297  1  0.32908000  0.80048000  0.04430000  0.5 0.0402254452
C  C298  1  0.67092000  0.19952000  0.04430000  0.5 0.0402254452
C  C299  1  0.19952000  0.32908000  0.04430000  0.5 0.0402254452
C  C300  1  0.80048000  0.67092000  0.04430000  0.5 0.0402254452
C  C301  1  0.67092000  0.80048000  0.95570000  0.5 0.0402254452
C  C302  1  0.32908000  0.19952000  0.95570000  0.5 0.0402254452
C  C303  1  0.80048000  0.32908000  0.95570000  0.5 0.0402254452
C  C304  1  0.19952000  0.67092000  0.95570000  0.5 0.0402254452
S  S1  1  0.19435000  0.80565000  0.00000000  1.0 -0.3203549592
S  S2  1  0.80565000  0.19435000  0.00000000  1.0 -0.3203549592
S  S3  1  0.19435000  0.19435000  0.00000000  1.0 -0.3203549592
S  S4  1  0.80565000  0.80565000  0.00000000  1.0 -0.3203549592
S  S5  1  0.69435000  0.30565000  0.50000000  1.0 -0.3203549592
S  S6  1  0.30565000  0.69435000  0.50000000  1.0 -0.3257849168
S  S7  1  0.69435000  0.69435000  0.50000000  1.0 -0.3203549592
S  S8  1  0.30565000  0.30565000  0.50000000  1.0 -0.3203549592
S  S9  1  0.14860000  0.50000000  0.19140000  1.0 0.3727658767
S  S10  1  0.85140000  0.50000000  0.19140000  1.0 0.3755573083
S  S11  1  0.50000000  0.14860000  0.19140000  1.0 0.3727658767
S  S12  1  0.50000000  0.85140000  0.19140000  1.0 0.3755573083
S  S13  1  0.85140000  0.50000000  0.80860000  1.0 0.3755573083
S  S14  1  0.14860000  0.50000000  0.80860000  1.0 0.3727658767
S  S15  1  0.50000000  0.14860000  0.80860000  1.0 0.3727658767
S  S16  1  0.50000000  0.85140000  0.80860000  1.0 0.3755573083
S  S17  1  0.64860000  0.00000000  0.69140000  1.0 0.3755573083
S  S18  1  0.35140000  0.00000000  0.69140000  1.0 0.3727658767
S  S19  1  0.00000000  0.64860000  0.69140000  1.0 0.3727658767
S  S20  1  0.00000000  0.35140000  0.69140000  1.0 0.3727658767
S  S21  1  0.35140000  0.00000000  0.30860000  1.0 0.3727658767
S  S22  1  0.64860000  0.00000000  0.30860000  1.0 0.3755573083
S  S23  1  0.00000000  0.64860000  0.30860000  1.0 0.3727658767
S  S24  1  0.00000000  0.35140000  0.30860000  1.0 0.3727658767
N  N1  1  0.17150000  0.69730000  0.35410000  0.5 -0.0882797619
N  N2  1  0.82850000  0.30270000  0.35410000  0.5 -0.0882797619
N  N3  1  0.30270000  0.17150000  0.35410000  0.5 -0.0882797619
N  N4  1  0.69730000  0.82850000  0.35410000  0.5 -0.0882797619
N  N5  1  0.82850000  0.69730000  0.64590000  0.5 -0.0882797619
N  N6  1  0.17150000  0.30270000  0.64590000  0.5 -0.0882797619
N  N7  1  0.69730000  0.17150000  0.64590000  0.5 -0.0882797619
N  N8  1  0.30270000  0.82850000  0.64590000  0.5 -0.0882797619
N  N9  1  0.67150000  0.19730000  0.85410000  0.5 -0.0882797619
N  N10  1  0.32850000  0.80270000  0.85410000  0.5 -0.0882797619
N  N11  1  0.80270000  0.67150000  0.85410000  0.5 -0.0882797619
N  N12  1  0.19730000  0.32850000  0.85410000  0.5 -0.0882797619
N  N13  1  0.32850000  0.19730000  0.14590000  0.5 -0.0882797619
N  N14  1  0.67150000  0.80270000  0.14590000  0.5 -0.0882797619
N  N15  1  0.19730000  0.67150000  0.14590000  0.5 -0.0882797619
N  N16  1  0.80270000  0.32850000  0.14590000  0.5 -0.0882797619
N  N17  1  0.82850000  0.30270000  0.64590000  0.5 -0.0882797619
N  N18  1  0.17150000  0.69730000  0.64590000  0.5 -0.0882797619
N  N19  1  0.69730000  0.82850000  0.64590000  0.5 -0.0882797619
N  N20  1  0.30270000  0.17150000  0.64590000  0.5 -0.0882797619
N  N21  1  0.17150000  0.30270000  0.35410000  0.5 -0.0882797619
N  N22  1  0.82850000  0.69730000  0.35410000  0.5 -0.0882797619
N  N23  1  0.30270000  0.82850000  0.35410000  0.5 -0.0882797619
N  N24  1  0.69730000  0.17150000  0.35410000  0.5 -0.0882797619
N  N25  1  0.32850000  0.80270000  0.14590000  0.5 -0.0882797619
N  N26  1  0.67150000  0.19730000  0.14590000  0.5 -0.0882797619
N  N27  1  0.19730000  0.32850000  0.14590000  0.5 -0.0882797619
N  N28  1  0.80270000  0.67150000  0.14590000  0.5 -0.0882797619
N  N29  1  0.67150000  0.80270000  0.85410000  0.5 -0.0882797619
N  N30  1  0.32850000  0.19730000  0.85410000  0.5 -0.0882797619
N  N31  1  0.80270000  0.32850000  0.85410000  0.5 -0.0882797619
N  N32  1  0.19730000  0.67150000  0.85410000  0.5 -0.0882797619
N  N33  1  0.18120000  0.75820000  0.39670000  0.5 -0.1789921148
N  N34  1  0.81880000  0.24180000  0.39670000  0.5 -0.1789921148
N  N35  1  0.24180000  0.18120000  0.39670000  0.5 -0.1789921148
N  N36  1  0.75820000  0.81880000  0.39670000  0.5 -0.1789921148
N  N37  1  0.81880000  0.75820000  0.60330000  0.5 -0.1789921148
N  N38  1  0.18120000  0.24180000  0.60330000  0.5 -0.1789921148
N  N39  1  0.75820000  0.18120000  0.60330000  0.5 -0.1789921148
N  N40  1  0.24180000  0.81880000  0.60330000  0.5 -0.1789921148
N  N41  1  0.68120000  0.25820000  0.89670000  0.5 -0.1789921148
N  N42  1  0.31880000  0.74180000  0.89670000  0.5 -0.1789921148
N  N43  1  0.74180000  0.68120000  0.89670000  0.5 -0.1789921148
N  N44  1  0.25820000  0.31880000  0.89670000  0.5 -0.1789921148
N  N45  1  0.31880000  0.25820000  0.10330000  0.5 -0.1789921148
N  N46  1  0.68120000  0.74180000  0.10330000  0.5 -0.1789921148
N  N47  1  0.25820000  0.68120000  0.10330000  0.5 -0.1789921148
N  N48  1  0.74180000  0.31880000  0.10330000  0.5 -0.1789921148
N  N49  1  0.81880000  0.24180000  0.60330000  0.5 -0.1789921148
N  N50  1  0.18120000  0.75820000  0.60330000  0.5 -0.1789921148
N  N51  1  0.75820000  0.81880000  0.60330000  0.5 -0.1789921148
N  N52  1  0.24180000  0.18120000  0.60330000  0.5 -0.1789921148
N  N53  1  0.18120000  0.24180000  0.39670000  0.5 -0.1789921148
N  N54  1  0.81880000  0.75820000  0.39670000  0.5 -0.1789921148
N  N55  1  0.24180000  0.81880000  0.39670000  0.5 -0.1789921148
N  N56  1  0.75820000  0.18120000  0.39670000  0.5 -0.1789921148
N  N57  1  0.31880000  0.74180000  0.10330000  0.5 -0.1789921148
N  N58  1  0.68120000  0.25820000  0.10330000  0.5 -0.1789921148
N  N59  1  0.25820000  0.31880000  0.10330000  0.5 -0.1789921148
N  N60  1  0.74180000  0.68120000  0.10330000  0.5 -0.1789921148
N  N61  1  0.68120000  0.74180000  0.89670000  0.5 -0.1789921148
N  N62  1  0.31880000  0.25820000  0.89670000  0.5 -0.1789921148
N  N63  1  0.74180000  0.31880000  0.89670000  0.5 -0.1789921148
N  N64  1  0.25820000  0.68120000  0.89670000  0.5 -0.1789921148
N  N65  1  0.17821000  0.75000000  0.57640000  0.5 -0.1197378997
N  N66  1  0.82179000  0.25000000  0.57640000  0.5 -0.1197378997
N  N67  1  0.25000000  0.17821000  0.57640000  0.5 -0.1197378997
N  N68  1  0.75000000  0.82179000  0.57640000  0.5 -0.1197378997
N  N69  1  0.82179000  0.75000000  0.42360000  0.5 -0.1197378997
N  N70  1  0.17821000  0.25000000  0.42360000  0.5 -0.1197378997
N  N71  1  0.75000000  0.17821000  0.42360000  0.5 -0.1197378997
N  N72  1  0.25000000  0.82179000  0.42360000  0.5 -0.1197378997
N  N73  1  0.67821000  0.25000000  0.07640000  0.5 -0.1197378997
N  N74  1  0.32179000  0.75000000  0.07640000  0.5 -0.1197378997
N  N75  1  0.75000000  0.67821000  0.07640000  0.5 -0.1197378997
N  N76  1  0.25000000  0.32179000  0.07640000  0.5 -0.1197378997
N  N77  1  0.32179000  0.25000000  0.92360000  0.5 -0.1197378997
N  N78  1  0.67821000  0.75000000  0.92360000  0.5 -0.1197378997
N  N79  1  0.25000000  0.67821000  0.92360000  0.5 -0.1197378997
N  N80  1  0.75000000  0.32179000  0.92360000  0.5 -0.1197378997
N  N81  1  0.82179000  0.25000000  0.42360000  0.5 -0.1197378997
N  N82  1  0.17821000  0.75000000  0.42360000  0.5 -0.1197378997
N  N83  1  0.75000000  0.82179000  0.42360000  0.5 -0.1197378997
N  N84  1  0.25000000  0.17821000  0.42360000  0.5 -0.1197378997
N  N85  1  0.17821000  0.25000000  0.57640000  0.5 -0.1197378997
N  N86  1  0.82179000  0.75000000  0.57640000  0.5 -0.1197378997
N  N87  1  0.25000000  0.82179000  0.57640000  0.5 -0.1197378997
N  N88  1  0.75000000  0.17821000  0.57640000  0.5 -0.1197378997
N  N89  1  0.32179000  0.75000000  0.92360000  0.5 -0.1197378997
N  N90  1  0.67821000  0.25000000  0.92360000  0.5 -0.1197378997
N  N91  1  0.25000000  0.32179000  0.92360000  0.5 -0.1197378997
N  N92  1  0.75000000  0.67821000  0.92360000  0.5 -0.1197378997
N  N93  1  0.67821000  0.75000000  0.07640000  0.5 -0.1197378997
N  N94  1  0.32179000  0.25000000  0.07640000  0.5 -0.1197378997
N  N95  1  0.75000000  0.32179000  0.07640000  0.5 -0.1197378997
N  N96  1  0.25000000  0.67821000  0.07640000  0.5 -0.1197378997
N  N97  1  0.16690000  0.68440000  0.62830000  0.5 -0.0979409437
N  N98  1  0.83310000  0.31560000  0.62830000  0.5 -0.0979409437
N  N99  1  0.31560000  0.16690000  0.62830000  0.5 -0.0979409437
N  N100  1  0.68440000  0.83310000  0.62830000  0.5 -0.0979409437
N  N101  1  0.83310000  0.68440000  0.37170000  0.5 -0.0979409437
N  N102  1  0.16690000  0.31560000  0.37170000  0.5 -0.0979409437
N  N103  1  0.68440000  0.16690000  0.37170000  0.5 -0.0979409437
N  N104  1  0.31560000  0.83310000  0.37170000  0.5 -0.0979409437
N  N105  1  0.66690000  0.18440000  0.12830000  0.5 -0.0979409437
N  N106  1  0.33310000  0.81560000  0.12830000  0.5 -0.0979409437
N  N107  1  0.81560000  0.66690000  0.12830000  0.5 -0.0979409437
N  N108  1  0.18440000  0.33310000  0.12830000  0.5 -0.0979409437
N  N109  1  0.33310000  0.18440000  0.87170000  0.5 -0.0979409437
N  N110  1  0.66690000  0.81560000  0.87170000  0.5 -0.0979409437
N  N111  1  0.18440000  0.66690000  0.87170000  0.5 -0.0979409437
N  N112  1  0.81560000  0.33310000  0.87170000  0.5 -0.0979409437
N  N113  1  0.83310000  0.31560000  0.37170000  0.5 -0.0979409437
N  N114  1  0.16690000  0.68440000  0.37170000  0.5 -0.0979409437
N  N115  1  0.68440000  0.83310000  0.37170000  0.5 -0.0979409437
N  N116  1  0.31560000  0.16690000  0.37170000  0.5 -0.0979409437
N  N117  1  0.16690000  0.31560000  0.62830000  0.5 -0.0979409437
N  N118  1  0.83310000  0.68440000  0.62830000  0.5 -0.0979409437
N  N119  1  0.31560000  0.83310000  0.62830000  0.5 -0.0979409437
N  N120  1  0.68440000  0.16690000  0.62830000  0.5 -0.0979409437
N  N121  1  0.33310000  0.81560000  0.87170000  0.5 -0.0979409437
N  N122  1  0.66690000  0.18440000  0.87170000  0.5 -0.0979409437
N  N123  1  0.18440000  0.33310000  0.87170000  0.5 -0.0979409437
N  N124  1  0.81560000  0.66690000  0.87170000  0.5 -0.0979409437
N  N125  1  0.66690000  0.81560000  0.12830000  0.5 -0.0979409437
N  N126  1  0.33310000  0.18440000  0.12830000  0.5 -0.0979409437
N  N127  1  0.81560000  0.33310000  0.12830000  0.5 -0.0979409437
N  N128  1  0.18440000  0.66690000  0.12830000  0.5 -0.0979409437
N  N129  1  0.15941000  0.63270000  0.50710000  0.5 -0.5622029591
N  N130  1  0.84059000  0.36730000  0.50710000  0.5 -0.5622029591
N  N131  1  0.36730000  0.15941000  0.50710000  0.5 -0.5622029591
N  N132  1  0.63270000  0.84059000  0.50710000  0.5 -0.5622029591
N  N133  1  0.84059000  0.63270000  0.49290000  0.5 -0.5622029591
N  N134  1  0.15941000  0.36730000  0.49290000  0.5 -0.5622029591
N  N135  1  0.63270000  0.15941000  0.49290000  0.5 -0.5622029591
N  N136  1  0.36730000  0.84059000  0.49290000  0.5 -0.5622029591
N  N137  1  0.65941000  0.13270000  0.00710000  0.5 -0.5622029591
N  N138  1  0.34059000  0.86730000  0.00710000  0.5 -0.5622029591
N  N139  1  0.86730000  0.65941000  0.00710000  0.5 -0.5622029591
N  N140  1  0.13270000  0.34059000  0.00710000  0.5 -0.5622029591
N  N141  1  0.34059000  0.13270000  0.99290000  0.5 -0.5622029591
N  N142  1  0.65941000  0.86730000  0.99290000  0.5 -0.5622029591
N  N143  1  0.13270000  0.65941000  0.99290000  0.5 -0.5622029591
N  N144  1  0.86730000  0.34059000  0.99290000  0.5 -0.5622029591
N  N145  1  0.84059000  0.36730000  0.49290000  0.5 -0.5622029591
N  N146  1  0.15941000  0.63270000  0.49290000  0.5 -0.5622029591
N  N147  1  0.63270000  0.84059000  0.49290000  0.5 -0.5622029591
N  N148  1  0.36730000  0.15941000  0.49290000  0.5 -0.5622029591
N  N149  1  0.15941000  0.36730000  0.50710000  0.5 -0.5622029591
N  N150  1  0.84059000  0.63270000  0.50710000  0.5 -0.5622029591
N  N151  1  0.36730000  0.84059000  0.50710000  0.5 -0.5622029591
N  N152  1  0.63270000  0.15941000  0.50710000  0.5 -0.5622029591
N  N153  1  0.34059000  0.86730000  0.99290000  0.5 -0.5622029591
N  N154  1  0.65941000  0.13270000  0.99290000  0.5 -0.5622029591
N  N155  1  0.13270000  0.34059000  0.99290000  0.5 -0.5622029591
N  N156  1  0.86730000  0.65941000  0.99290000  0.5 -0.5622029591
N  N157  1  0.65941000  0.86730000  0.00710000  0.5 -0.5622029591
N  N158  1  0.34059000  0.13270000  0.00710000  0.5 -0.5622029591
N  N159  1  0.86730000  0.34059000  0.00710000  0.5 -0.5622029591
N  N160  1  0.13270000  0.65941000  0.00710000  0.5 -0.5622029591
O  O1  1  0.16420000  0.83580000  0.26180000  1.0 -0.4316301819
O  O2  1  0.83580000  0.16420000  0.26180000  1.0 -0.4316301819
O  O3  1  0.16420000  0.16420000  0.26180000  1.0 -0.4316301819
O  O4  1  0.83580000  0.83580000  0.26180000  1.0 -0.4316301819
O  O5  1  0.83580000  0.83580000  0.73820000  1.0 -0.4316301819
O  O6  1  0.16420000  0.16420000  0.73820000  1.0 -0.4316301819
O  O7  1  0.83580000  0.16420000  0.73820000  1.0 -0.4316301819
O  O8  1  0.16420000  0.83580000  0.73820000  1.0 -0.4316301819
O  O9  1  0.66420000  0.33580000  0.76180000  1.0 -0.4316301819
O  O10  1  0.33580000  0.66420000  0.76180000  1.0 -0.4316301819
O  O11  1  0.66420000  0.66420000  0.76180000  1.0 -0.4316301819
O  O12  1  0.33580000  0.33580000  0.76180000  1.0 -0.4316301819
O  O13  1  0.33580000  0.33580000  0.23820000  1.0 -0.4316301819
O  O14  1  0.66420000  0.66420000  0.23820000  1.0 -0.4316301819
O  O15  1  0.33580000  0.66420000  0.23820000  1.0 -0.4316301819
O  O16  1  0.66420000  0.33580000  0.23820000  1.0 -0.4316301819
O  O17  1  0.20610000  0.79390000  0.20970000  1.0 -0.5622029591
O  O18  1  0.79390000  0.20610000  0.20970000  1.0 -0.5622029591
O  O19  1  0.20610000  0.20610000  0.20970000  1.0 -0.5622029591
O  O20  1  0.79390000  0.79390000  0.20970000  1.0 -0.5622029591
O  O21  1  0.79390000  0.79390000  0.79030000  1.0 -0.5622029591
O  O22  1  0.20610000  0.20610000  0.79030000  1.0 -0.5622029591
O  O23  1  0.79390000  0.20610000  0.79030000  1.0 -0.5622029591
O  O24  1  0.20610000  0.79390000  0.79030000  1.0 -0.5622029591
O  O25  1  0.70610000  0.29390000  0.70970000  1.0 -0.5622029591
O  O26  1  0.29390000  0.70610000  0.70970000  1.0 -0.5622029591
O  O27  1  0.70610000  0.70610000  0.70970000  1.0 -0.5622029591
O  O28  1  0.29390000  0.29390000  0.70970000  1.0 -0.5622029591
O  O29  1  0.29390000  0.29390000  0.29030000  1.0 -0.5622029591
O  O30  1  0.70610000  0.70610000  0.29030000  1.0 -0.5622029591
O  O31  1  0.29390000  0.70610000  0.29030000  1.0 -0.5622029591
O  O32  1  0.70610000  0.29390000  0.29030000  1.0 -0.5622029591
O  O33  1  0.16952000  0.60258000  0.30380000  1.0 -0.5195190783
O  O34  1  0.83048000  0.39742000  0.30380000  1.0 -0.5195190783
O  O35  1  0.39742000  0.16952000  0.30380000  1.0 -0.5195190783
O  O36  1  0.60258000  0.83048000  0.30380000  1.0 -0.5195190783
O  O37  1  0.83048000  0.60258000  0.69620000  1.0 -0.5195190783
O  O38  1  0.16952000  0.39742000  0.69620000  1.0 -0.5195190783
O  O39  1  0.60258000  0.16952000  0.69620000  1.0 -0.5195190783
O  O40  1  0.39742000  0.83048000  0.69620000  1.0 -0.5195190783
O  O41  1  0.66952000  0.10258000  0.80380000  1.0 -0.5195190783
O  O42  1  0.33048000  0.89742000  0.80380000  1.0 -0.5195190783
O  O43  1  0.89742000  0.66952000  0.80380000  1.0 -0.5195190783
O  O44  1  0.10258000  0.33048000  0.80380000  1.0 -0.5195190783
O  O45  1  0.33048000  0.10258000  0.19620000  1.0 -0.5195190783
O  O46  1  0.66952000  0.89742000  0.19620000  1.0 -0.5195190783
O  O47  1  0.10258000  0.66952000  0.19620000  1.0 -0.5195190783
O  O48  1  0.89742000  0.33048000  0.19620000  1.0 -0.5195190783
O  O49  1  0.83048000  0.39742000  0.69620000  1.0 -0.5195190783
O  O50  1  0.16952000  0.60258000  0.69620000  1.0 -0.5195190783
O  O51  1  0.60258000  0.83048000  0.69620000  1.0 -0.5195190783
O  O52  1  0.39742000  0.16952000  0.69620000  1.0 -0.5195190783
O  O53  1  0.16952000  0.39742000  0.30380000  1.0 -0.5195190783
O  O54  1  0.83048000  0.60258000  0.30380000  1.0 -0.5195190783
O  O55  1  0.39742000  0.83048000  0.30380000  1.0 -0.5195190783
O  O56  1  0.60258000  0.16952000  0.30380000  1.0 -0.5195190783
O  O57  1  0.33048000  0.89742000  0.19620000  1.0 -0.5195190783
O  O58  1  0.66952000  0.10258000  0.19620000  1.0 -0.5195190783
O  O59  1  0.10258000  0.33048000  0.19620000  1.0 -0.5195190783
O  O60  1  0.89742000  0.66952000  0.19620000  1.0 -0.5195190783
O  O61  1  0.66952000  0.89742000  0.80380000  1.0 -0.5195190783
O  O62  1  0.33048000  0.10258000  0.80380000  1.0 -0.5195190783
O  O63  1  0.89742000  0.33048000  0.80380000  1.0 -0.5195190783
O  O64  1  0.10258000  0.66952000  0.80380000  1.0 -0.5195190783
O  O65  1  0.14159000  0.58700000  0.16540000  1.0 -0.487687121
O  O66  1  0.85841000  0.41300000  0.16540000  1.0 -0.487687121
O  O67  1  0.41300000  0.14159000  0.16540000  1.0 -0.487687121
O  O68  1  0.58700000  0.85841000  0.16540000  1.0 -0.487687121
O  O69  1  0.85841000  0.58700000  0.83460000  1.0 -0.487687121
O  O70  1  0.14159000  0.41300000  0.83460000  1.0 -0.487687121
O  O71  1  0.58700000  0.14159000  0.83460000  1.0 -0.487687121
O  O72  1  0.41300000  0.85841000  0.83460000  1.0 -0.487687121
O  O73  1  0.64159000  0.08700000  0.66540000  1.0 -0.487687121
O  O74  1  0.35841000  0.91300000  0.66540000  1.0 -0.487687121
O  O75  1  0.91300000  0.64159000  0.66540000  1.0 -0.487687121
O  O76  1  0.08700000  0.35841000  0.66540000  1.0 -0.487687121
O  O77  1  0.35841000  0.08700000  0.33460000  1.0 -0.487687121
O  O78  1  0.64159000  0.91300000  0.33460000  1.0 -0.487687121
O  O79  1  0.08700000  0.64159000  0.33460000  1.0 -0.487687121
O  O80  1  0.91300000  0.35841000  0.33460000  1.0 -0.487687121
O  O81  1  0.85841000  0.41300000  0.83460000  1.0 -0.487687121
O  O82  1  0.14159000  0.58700000  0.83460000  1.0 -0.487687121
O  O83  1  0.58700000  0.85841000  0.83460000  1.0 -0.487687121
O  O84  1  0.41300000  0.14159000  0.83460000  1.0 -0.487687121
O  O85  1  0.14159000  0.41300000  0.16540000  1.0 -0.487687121
O  O86  1  0.85841000  0.58700000  0.16540000  1.0 -0.487687121
O  O87  1  0.41300000  0.85841000  0.16540000  1.0 -0.487687121
O  O88  1  0.58700000  0.14159000  0.16540000  1.0 -0.487687121
O  O89  1  0.35841000  0.91300000  0.33460000  1.0 -0.487687121
O  O90  1  0.64159000  0.08700000  0.33460000  1.0 -0.487687121
O  O91  1  0.08700000  0.35841000  0.33460000  1.0 -0.487687121
O  O92  1  0.91300000  0.64159000  0.33460000  1.0 -0.487687121
O  O93  1  0.64159000  0.91300000  0.66540000  1.0 -0.487687121
O  O94  1  0.35841000  0.08700000  0.66540000  1.0 -0.487687121
O  O95  1  0.91300000  0.35841000  0.66540000  1.0 -0.487687121
O  O96  1  0.08700000  0.64159000  0.66540000  1.0 -0.487687121
O  O97  1  0.16450000  0.83620000  0.50720000  0.25 -0.5876013067
O  O98  1  0.83550000  0.16380000  0.50720000  0.25 -0.5876013067
O  O99  1  0.16380000  0.16450000  0.50720000  0.25 -0.5876013067
O  O100  1  0.83620000  0.83550000  0.50720000  0.25 -0.5876013067
O  O101  1  0.83550000  0.83620000  0.49280000  0.25 -0.5876013067
O  O102  1  0.16450000  0.16380000  0.49280000  0.25 -0.5876013067
O  O103  1  0.83620000  0.16450000  0.49280000  0.25 -0.5876013067
O  O104  1  0.16380000  0.83550000  0.49280000  0.25 -0.5876013067
O  O105  1  0.66450000  0.33620000  0.00720000  0.25 -0.5876013067
O  O106  1  0.33550000  0.66380000  0.00720000  0.25 -0.5876013067
O  O107  1  0.66380000  0.66450000  0.00720000  0.25 -0.5876013067
O  O108  1  0.33620000  0.33550000  0.00720000  0.25 -0.5876013067
O  O109  1  0.33550000  0.33620000  0.99280000  0.25 -0.5876013067
O  O110  1  0.66450000  0.66380000  0.99280000  0.25 -0.5876013067
O  O111  1  0.33620000  0.66450000  0.99280000  0.25 -0.5876013067
O  O112  1  0.66380000  0.33550000  0.99280000  0.25 -0.5876013067
