# DDEC6 charges by PACMAN v1.1 (https://github.com/mtap-research/PACMAN-charge/)
data_ja206029a_si_003_FSR_pacman
_symmetry_space_group_name_H-M   'P 1'
_cell_length_a   16.61790000
_cell_length_b   16.61790000
_cell_length_c   22.26600000
_cell_angle_alpha   90.00000000
_cell_angle_beta   90.00000000
_cell_angle_gamma   90.00000000
_symmetry_Int_Tables_number   1
_chemical_formula_structural   Zn3B0.96H50.32C77.12N8O8F1.92
_chemical_formula_sum   'Zn3 B0.96 H50.32 C77.12 N8 O8 F1.92'
_cell_volume   6148.85833273
_cell_formula_units_Z   1
loop_
 _symmetry_equiv_pos_site_id
 _symmetry_equiv_pos_as_xyz
  1  'x, y, z'
loop_
 _atom_site_type_symbol
 _atom_site_label
 _atom_site_symmetry_multiplicity
 _atom_site_fract_x
 _atom_site_fract_y
 _atom_site_fract_z
 _atom_site_occupancy
 _atom_site_charge
Zn  Zn1  1  0.50000000  0.50000000  0.50000000  1.0 0.6112849956
Zn  Zn2  1  0.00000000  0.00000000  0.56564000  1.0 0.7332280522
Zn  Zn3  1  0.00000000  0.00000000  0.43436000  1.0 0.7332280522
B  B1  1  0.97900000  0.90500000  0.00000000  0.12 0.0694165582
B  B2  1  0.02100000  0.09500000  0.00000000  0.12 0.0694165582
B  B3  1  0.09500000  0.97900000  0.00000000  0.12 0.0694165582
B  B4  1  0.90500000  0.02100000  0.00000000  0.12 0.0694165582
B  B5  1  0.02100000  0.90500000  0.00000000  0.12 0.0694165582
B  B6  1  0.97900000  0.09500000  0.00000000  0.12 0.0694165582
B  B7  1  0.90500000  0.97900000  0.00000000  0.12 0.0694165582
B  B8  1  0.09500000  0.02100000  0.00000000  0.12 0.0694165582
H  H1  1  0.81930000  0.81930000  0.59030000  1.0 0.1181911027
H  H2  1  0.18070000  0.18070000  0.59030000  1.0 0.1181911027
H  H3  1  0.18070000  0.81930000  0.59030000  1.0 0.1181911027
H  H4  1  0.81930000  0.18070000  0.59030000  1.0 0.1181911027
H  H5  1  0.18070000  0.81930000  0.40970000  1.0 0.1181911027
H  H6  1  0.81930000  0.18070000  0.40970000  1.0 0.1181911027
H  H7  1  0.81930000  0.81930000  0.40970000  1.0 0.1181911027
H  H8  1  0.18070000  0.18070000  0.40970000  1.0 0.1181911027
H  H9  1  0.71800000  0.71800000  0.58750000  1.0 0.111882562
H  H10  1  0.28200000  0.28200000  0.58750000  1.0 0.111882562
H  H11  1  0.28200000  0.71800000  0.58750000  1.0 0.111882562
H  H12  1  0.71800000  0.28200000  0.58750000  1.0 0.111882562
H  H13  1  0.28200000  0.71800000  0.41250000  1.0 0.111882562
H  H14  1  0.71800000  0.28200000  0.41250000  1.0 0.111882562
H  H15  1  0.71800000  0.71800000  0.41250000  1.0 0.111882562
H  H16  1  0.28200000  0.28200000  0.41250000  1.0 0.111882562
H  H17  1  0.80090000  0.57520000  0.50000000  1.0 0.1181911027
H  H18  1  0.19910000  0.42480000  0.50000000  1.0 0.1181911027
H  H19  1  0.42480000  0.80090000  0.50000000  1.0 0.1181911027
H  H20  1  0.57520000  0.19910000  0.50000000  1.0 0.1181911027
H  H21  1  0.19910000  0.57520000  0.50000000  1.0 0.1181911027
H  H22  1  0.80090000  0.42480000  0.50000000  1.0 0.1181911027
H  H23  1  0.57520000  0.80090000  0.50000000  1.0 0.1181911027
H  H24  1  0.42480000  0.19910000  0.50000000  1.0 0.1181911027
H  H25  1  0.21510000  0.13500000  0.00000000  0.12 0.0965167379
H  H26  1  0.78490000  0.86500000  0.00000000  0.12 0.0965167379
H  H27  1  0.86500000  0.21510000  0.00000000  0.12 0.0965167379
H  H28  1  0.13500000  0.78490000  0.00000000  0.12 0.0965167379
H  H29  1  0.78490000  0.13500000  0.00000000  0.12 0.0965167379
H  H30  1  0.21510000  0.86500000  0.00000000  0.12 0.0965167379
H  H31  1  0.13500000  0.21510000  0.00000000  0.12 0.0965167379
H  H32  1  0.86500000  0.78490000  0.00000000  0.12 0.0965167379
H  H33  1  0.18370000  0.37930000  0.00000000  0.12 0.0834977498
H  H34  1  0.81630000  0.62070000  0.00000000  0.12 0.0834977498
H  H35  1  0.62070000  0.18370000  0.00000000  0.12 0.0834977498
H  H36  1  0.37930000  0.81630000  0.00000000  0.12 0.0834977498
H  H37  1  0.81630000  0.37930000  0.00000000  0.12 0.0834977498
H  H38  1  0.18370000  0.62070000  0.00000000  0.12 0.0834977498
H  H39  1  0.37930000  0.18370000  0.00000000  0.12 0.0834977498
H  H40  1  0.62070000  0.81630000  0.00000000  0.12 0.0834977498
H  H41  1  0.04310000  0.36130000  0.00000000  0.12 0.0932456499
H  H42  1  0.95690000  0.63870000  0.00000000  0.12 0.0932456499
H  H43  1  0.63870000  0.04310000  0.00000000  0.12 0.0932456499
H  H44  1  0.36130000  0.95690000  0.00000000  0.12 0.0932456499
H  H45  1  0.95690000  0.36130000  0.00000000  0.12 0.0932456499
H  H46  1  0.04310000  0.63870000  0.00000000  0.12 0.0932456499
H  H47  1  0.36130000  0.04310000  0.00000000  0.12 0.0932456499
H  H48  1  0.63870000  0.95690000  0.00000000  0.12 0.0932456499
H  H49  1  0.98850000  0.23040000  0.00000000  0.12 0.2094190216
H  H50  1  0.01150000  0.76960000  0.00000000  0.12 0.2094190216
H  H51  1  0.76960000  0.98850000  0.00000000  0.12 0.2094190216
H  H52  1  0.23040000  0.01150000  0.00000000  0.12 0.2094190216
H  H53  1  0.01150000  0.23040000  0.00000000  0.12 0.2094190216
H  H54  1  0.98850000  0.76960000  0.00000000  0.12 0.2094190216
H  H55  1  0.23040000  0.98850000  0.00000000  0.12 0.2094190216
H  H56  1  0.76960000  0.01150000  0.00000000  0.12 0.2094190216
H  H57  1  0.89910000  0.86720000  0.84070000  0.13 0.0694165582
H  H58  1  0.10090000  0.13280000  0.84070000  0.13 0.0694165582
H  H59  1  0.13280000  0.89910000  0.84070000  0.13 0.0694165582
H  H60  1  0.86720000  0.10090000  0.84070000  0.13 0.0694165582
H  H61  1  0.10090000  0.86720000  0.15930000  0.13 0.0694165582
H  H62  1  0.89910000  0.13280000  0.15930000  0.13 0.0694165582
H  H63  1  0.86720000  0.89910000  0.15930000  0.13 0.0694165582
H  H64  1  0.13280000  0.10090000  0.15930000  0.13 0.0694165582
H  H65  1  0.10090000  0.13280000  0.15930000  0.13 0.0694165582
H  H66  1  0.89910000  0.86720000  0.15930000  0.13 0.0694165582
H  H67  1  0.86720000  0.10090000  0.15930000  0.13 0.0694165582
H  H68  1  0.13280000  0.89910000  0.15930000  0.13 0.0694165582
H  H69  1  0.89910000  0.13280000  0.84070000  0.13 0.0694165582
H  H70  1  0.10090000  0.86720000  0.84070000  0.13 0.0694165582
H  H71  1  0.13280000  0.10090000  0.84070000  0.13 0.0694165582
H  H72  1  0.86720000  0.89910000  0.84070000  0.13 0.0694165582
H  H73  1  0.92860000  0.82750000  0.90240000  0.13 0.0028086756
H  H74  1  0.07140000  0.17250000  0.90240000  0.13 0.0028086756
H  H75  1  0.17250000  0.92860000  0.90240000  0.13 0.0028086756
H  H76  1  0.82750000  0.07140000  0.90240000  0.13 0.0028086756
H  H77  1  0.07140000  0.82750000  0.09760000  0.13 0.0028086756
H  H78  1  0.92860000  0.17250000  0.09760000  0.13 0.0028086756
H  H79  1  0.82750000  0.92860000  0.09760000  0.13 0.0028086756
H  H80  1  0.17250000  0.07140000  0.09760000  0.13 0.0028086756
H  H81  1  0.07140000  0.17250000  0.09760000  0.13 0.0028086756
H  H82  1  0.92860000  0.82750000  0.09760000  0.13 0.0028086756
H  H83  1  0.82750000  0.07140000  0.09760000  0.13 0.0028086756
H  H84  1  0.17250000  0.92860000  0.09760000  0.13 0.0028086756
H  H85  1  0.92860000  0.17250000  0.90240000  0.13 0.0028086756
H  H86  1  0.07140000  0.82750000  0.90240000  0.13 0.0028086756
H  H87  1  0.17250000  0.07140000  0.90240000  0.13 0.0028086756
H  H88  1  0.82750000  0.92860000  0.90240000  0.13 0.0028086756
H  H89  1  0.98470000  0.82320000  0.84410000  0.13 0.0619691593
H  H90  1  0.01530000  0.17680000  0.84410000  0.13 0.0619691593
H  H91  1  0.17680000  0.98470000  0.84410000  0.13 0.0619691593
H  H92  1  0.82320000  0.01530000  0.84410000  0.13 0.0619691593
H  H93  1  0.01530000  0.82320000  0.15590000  0.13 0.0619691593
H  H94  1  0.98470000  0.17680000  0.15590000  0.13 0.0619691593
H  H95  1  0.82320000  0.98470000  0.15590000  0.13 0.0619691593
H  H96  1  0.17680000  0.01530000  0.15590000  0.13 0.0619691593
H  H97  1  0.01530000  0.17680000  0.15590000  0.13 0.0619691593
H  H98  1  0.98470000  0.82320000  0.15590000  0.13 0.0619691593
H  H99  1  0.82320000  0.01530000  0.15590000  0.13 0.0619691593
H  H100  1  0.17680000  0.98470000  0.15590000  0.13 0.0619691593
H  H101  1  0.98470000  0.17680000  0.84410000  0.13 0.0619691593
H  H102  1  0.01530000  0.82320000  0.84410000  0.13 0.0619691593
H  H103  1  0.17680000  0.01530000  0.84410000  0.13 0.0619691593
H  H104  1  0.82320000  0.98470000  0.84410000  0.13 0.0619691593
H  H105  1  0.10030000  0.12350000  0.81370000  0.13 0.0619691593
H  H106  1  0.89970000  0.87650000  0.81370000  0.13 0.0619691593
H  H107  1  0.87650000  0.10030000  0.81370000  0.13 0.0619691593
H  H108  1  0.12350000  0.89970000  0.81370000  0.13 0.0619691593
H  H109  1  0.89970000  0.12350000  0.18630000  0.13 0.0619691593
H  H110  1  0.10030000  0.87650000  0.18630000  0.13 0.0619691593
H  H111  1  0.12350000  0.10030000  0.18630000  0.13 0.0619691593
H  H112  1  0.87650000  0.89970000  0.18630000  0.13 0.0619691593
H  H113  1  0.89970000  0.87650000  0.18630000  0.13 0.0619691593
H  H114  1  0.10030000  0.12350000  0.18630000  0.13 0.0619691593
H  H115  1  0.12350000  0.89970000  0.18630000  0.13 0.0619691593
H  H116  1  0.87650000  0.10030000  0.18630000  0.13 0.0619691593
H  H117  1  0.10030000  0.87650000  0.81370000  0.13 0.0619691593
H  H118  1  0.89970000  0.12350000  0.81370000  0.13 0.0619691593
H  H119  1  0.87650000  0.89970000  0.81370000  0.13 0.0619691593
H  H120  1  0.12350000  0.10030000  0.81370000  0.13 0.0619691593
H  H121  1  0.12740000  0.14810000  0.88020000  0.13 0.0521363393
H  H122  1  0.87260000  0.85190000  0.88020000  0.13 0.0521363393
H  H123  1  0.85190000  0.12740000  0.88020000  0.13 0.0521363393
H  H124  1  0.14810000  0.87260000  0.88020000  0.13 0.0521363393
H  H125  1  0.87260000  0.14810000  0.11980000  0.13 0.0521363393
H  H126  1  0.12740000  0.85190000  0.11980000  0.13 0.0521363393
H  H127  1  0.14810000  0.12740000  0.11980000  0.13 0.0521363393
H  H128  1  0.85190000  0.87260000  0.11980000  0.13 0.0521363393
H  H129  1  0.87260000  0.85190000  0.11980000  0.13 0.0521363393
H  H130  1  0.12740000  0.14810000  0.11980000  0.13 0.0521363393
H  H131  1  0.14810000  0.87260000  0.11980000  0.13 0.0521363393
H  H132  1  0.85190000  0.12740000  0.11980000  0.13 0.0521363393
H  H133  1  0.12740000  0.85190000  0.88020000  0.13 0.0521363393
H  H134  1  0.87260000  0.14810000  0.88020000  0.13 0.0521363393
H  H135  1  0.85190000  0.87260000  0.88020000  0.13 0.0521363393
H  H136  1  0.14810000  0.12740000  0.88020000  0.13 0.0521363393
H  H137  1  0.04160000  0.17590000  0.85520000  0.13 0.0619691593
H  H138  1  0.95840000  0.82410000  0.85520000  0.13 0.0619691593
H  H139  1  0.82410000  0.04160000  0.85520000  0.13 0.0619691593
H  H140  1  0.17590000  0.95840000  0.85520000  0.13 0.0619691593
H  H141  1  0.95840000  0.17590000  0.14480000  0.13 0.0619691593
H  H142  1  0.04160000  0.82410000  0.14480000  0.13 0.0619691593
H  H143  1  0.17590000  0.04160000  0.14480000  0.13 0.0619691593
H  H144  1  0.82410000  0.95840000  0.14480000  0.13 0.0619691593
H  H145  1  0.95840000  0.82410000  0.14480000  0.13 0.0619691593
H  H146  1  0.04160000  0.17590000  0.14480000  0.13 0.0619691593
H  H147  1  0.17590000  0.95840000  0.14480000  0.13 0.0619691593
H  H148  1  0.82410000  0.04160000  0.14480000  0.13 0.0619691593
H  H149  1  0.04160000  0.82410000  0.85520000  0.13 0.0619691593
H  H150  1  0.95840000  0.17590000  0.85520000  0.13 0.0619691593
H  H151  1  0.82410000  0.95840000  0.85520000  0.13 0.0619691593
H  H152  1  0.17590000  0.04160000  0.85520000  0.13 0.0619691593
H  H153  1  0.94610000  0.89350000  0.66710000  0.25 0.0619691593
H  H154  1  0.05390000  0.10650000  0.66710000  0.25 0.0619691593
H  H155  1  0.10650000  0.94610000  0.66710000  0.25 0.0619691593
H  H156  1  0.89350000  0.05390000  0.66710000  0.25 0.0619691593
H  H157  1  0.05390000  0.89350000  0.33290000  0.25 0.0619691593
H  H158  1  0.94610000  0.10650000  0.33290000  0.25 0.0619691593
H  H159  1  0.89350000  0.94610000  0.33290000  0.25 0.0619691593
H  H160  1  0.10650000  0.05390000  0.33290000  0.25 0.0619691593
H  H161  1  0.05390000  0.10650000  0.33290000  0.25 0.0619691593
H  H162  1  0.94610000  0.89350000  0.33290000  0.25 0.0619691593
H  H163  1  0.89350000  0.05390000  0.33290000  0.25 0.0619691593
H  H164  1  0.10650000  0.94610000  0.33290000  0.25 0.0619691593
H  H165  1  0.94610000  0.10650000  0.66710000  0.25 0.0619691593
H  H166  1  0.05390000  0.89350000  0.66710000  0.25 0.0619691593
H  H167  1  0.10650000  0.05390000  0.66710000  0.25 0.0619691593
H  H168  1  0.89350000  0.94610000  0.66710000  0.25 0.0619691593
H  H169  1  0.95680000  0.88650000  0.76770000  0.25 0.0521363393
H  H170  1  0.04320000  0.11350000  0.76770000  0.25 0.0521363393
H  H171  1  0.11350000  0.95680000  0.76770000  0.25 0.0521363393
H  H172  1  0.88650000  0.04320000  0.76770000  0.25 0.0521363393
H  H173  1  0.04320000  0.88650000  0.23230000  0.25 0.0521363393
H  H174  1  0.95680000  0.11350000  0.23230000  0.25 0.0521363393
H  H175  1  0.88650000  0.95680000  0.23230000  0.25 0.0521363393
H  H176  1  0.11350000  0.04320000  0.23230000  0.25 0.0521363393
H  H177  1  0.04320000  0.11350000  0.23230000  0.25 0.0521363393
H  H178  1  0.95680000  0.88650000  0.23230000  0.25 0.0521363393
H  H179  1  0.88650000  0.04320000  0.23230000  0.25 0.0521363393
H  H180  1  0.11350000  0.95680000  0.23230000  0.25 0.0521363393
H  H181  1  0.95680000  0.11350000  0.76770000  0.25 0.0521363393
H  H182  1  0.04320000  0.88650000  0.76770000  0.25 0.0521363393
H  H183  1  0.11350000  0.04320000  0.76770000  0.25 0.0521363393
H  H184  1  0.88650000  0.95680000  0.76770000  0.25 0.0521363393
H  H185  1  0.26960000  0.26650000  0.00000000  0.25 0.1358434504
H  H186  1  0.73040000  0.73350000  0.00000000  0.25 0.1358434504
H  H187  1  0.73350000  0.26960000  0.00000000  0.25 0.1358434504
H  H188  1  0.26650000  0.73040000  0.00000000  0.25 0.1358434504
H  H189  1  0.73040000  0.26650000  0.00000000  0.25 0.1358434504
H  H190  1  0.26960000  0.73350000  0.00000000  0.25 0.1358434504
H  H191  1  0.26650000  0.26960000  0.00000000  0.25 0.1358434504
H  H192  1  0.73350000  0.73040000  0.00000000  0.25 0.1358434504
C  C1  1  0.89420000  0.89420000  0.50000000  1.0 0.5685921555
C  C2  1  0.10580000  0.10580000  0.50000000  1.0 0.5685921555
C  C3  1  0.10580000  0.89420000  0.50000000  1.0 0.5685921555
C  C4  1  0.89420000  0.10580000  0.50000000  1.0 0.5685921555
C  C5  1  0.82720000  0.82720000  0.50000000  1.0 -0.0182539488
C  C6  1  0.17280000  0.17280000  0.50000000  1.0 -0.0182539488
C  C7  1  0.17280000  0.82720000  0.50000000  1.0 -0.0182539488
C  C8  1  0.82720000  0.17280000  0.50000000  1.0 -0.0182539488
C  C9  1  0.79937000  0.79937000  0.55310000  1.0 -0.1109645067
C  C10  1  0.20063000  0.20063000  0.55310000  1.0 -0.1109645067
C  C11  1  0.20063000  0.79937000  0.55310000  1.0 -0.1109645067
C  C12  1  0.79937000  0.20063000  0.55310000  1.0 -0.1109645067
C  C13  1  0.20063000  0.79937000  0.44690000  1.0 -0.1109645067
C  C14  1  0.79937000  0.20063000  0.44690000  1.0 -0.1109645067
C  C15  1  0.79937000  0.79937000  0.44690000  1.0 -0.1109645067
C  C16  1  0.20063000  0.20063000  0.44690000  1.0 -0.1109645067
C  C17  1  0.73870000  0.73870000  0.55080000  1.0 -0.168677996
C  C18  1  0.26130000  0.26130000  0.55080000  1.0 -0.168677996
C  C19  1  0.26130000  0.73870000  0.55080000  1.0 -0.168677996
C  C20  1  0.73870000  0.26130000  0.55080000  1.0 -0.168677996
C  C21  1  0.26130000  0.73870000  0.44920000  1.0 -0.168677996
C  C22  1  0.73870000  0.26130000  0.44920000  1.0 -0.168677996
C  C23  1  0.73870000  0.73870000  0.44920000  1.0 -0.168677996
C  C24  1  0.26130000  0.26130000  0.44920000  1.0 -0.168677996
C  C25  1  0.71020000  0.71020000  0.50000000  1.0 0.0619691593
C  C26  1  0.28980000  0.28980000  0.50000000  1.0 0.0521363393
C  C27  1  0.28980000  0.71020000  0.50000000  1.0 0.0619691593
C  C28  1  0.71020000  0.28980000  0.50000000  1.0 0.0619691593
C  C29  1  0.64590000  0.64590000  0.50000000  1.0 -0.0791644788
C  C30  1  0.35410000  0.35410000  0.50000000  1.0 -0.0791644788
C  C31  1  0.35410000  0.64590000  0.50000000  1.0 -0.0791644788
C  C32  1  0.64590000  0.35410000  0.50000000  1.0 -0.0791644788
C  C33  1  0.67150000  0.56640000  0.50000000  1.0 0.1666720046
C  C34  1  0.32850000  0.43360000  0.50000000  1.0 0.1666720046
C  C35  1  0.43360000  0.67150000  0.50000000  1.0 0.1666720046
C  C36  1  0.56640000  0.32850000  0.50000000  1.0 0.1666720046
C  C37  1  0.32850000  0.56640000  0.50000000  1.0 0.1666720046
C  C38  1  0.67150000  0.43360000  0.50000000  1.0 0.1666720046
C  C39  1  0.56640000  0.67150000  0.50000000  1.0 0.1666720046
C  C40  1  0.43360000  0.32850000  0.50000000  1.0 0.1666720046
C  C41  1  0.75500000  0.54110000  0.50000000  1.0 -0.1939537021
C  C42  1  0.24500000  0.45890000  0.50000000  1.0 -0.1939537021
C  C43  1  0.45890000  0.75500000  0.50000000  1.0 -0.1939537021
C  C44  1  0.54110000  0.24500000  0.50000000  1.0 -0.1939537021
C  C45  1  0.24500000  0.54110000  0.50000000  1.0 -0.1939537021
C  C46  1  0.75500000  0.45890000  0.50000000  1.0 -0.1939537021
C  C47  1  0.54110000  0.75500000  0.50000000  1.0 -0.1939537021
C  C48  1  0.45890000  0.24500000  0.50000000  1.0 -0.1939537021
C  C49  1  0.00000000  0.00000000  0.78580000  1.0 -0.0642085801
C  C50  1  0.00000000  0.00000000  0.21420000  1.0 -0.0642085801
C  C51  1  0.00000000  0.00000000  0.84210000  1.0 0.0157156891
C  C52  1  0.00000000  0.00000000  0.15790000  1.0 0.0157156891
C  C53  1  0.98300000  0.93070000  0.88310000  0.13 0.0157156891
C  C54  1  0.01700000  0.06930000  0.88310000  0.13 0.0157156891
C  C55  1  0.06930000  0.98300000  0.88310000  0.13 0.0157156891
C  C56  1  0.93070000  0.01700000  0.88310000  0.13 0.0157156891
C  C57  1  0.01700000  0.93070000  0.11690000  0.13 0.0157156891
C  C58  1  0.98300000  0.06930000  0.11690000  0.13 0.0157156891
C  C59  1  0.93070000  0.98300000  0.11690000  0.13 0.0157156891
C  C60  1  0.06930000  0.01700000  0.11690000  0.13 0.0157156891
C  C61  1  0.01700000  0.06930000  0.11690000  0.13 0.0157156891
C  C62  1  0.98300000  0.93070000  0.11690000  0.13 0.0157156891
C  C63  1  0.93070000  0.01700000  0.11690000  0.13 0.0157156891
C  C64  1  0.06930000  0.98300000  0.11690000  0.13 0.0138104127
C  C65  1  0.98300000  0.06930000  0.88310000  0.13 0.0157156891
C  C66  1  0.01700000  0.93070000  0.88310000  0.13 0.0157156891
C  C67  1  0.06930000  0.01700000  0.88310000  0.13 0.0157156891
C  C68  1  0.93070000  0.98300000  0.88310000  0.13 0.0157156891
C  C69  1  0.04600000  0.06000000  0.87790000  0.13 0.0138104127
C  C70  1  0.95400000  0.94000000  0.87790000  0.13 0.0138104127
C  C71  1  0.94000000  0.04600000  0.87790000  0.13 0.0157156891
C  C72  1  0.06000000  0.95400000  0.87790000  0.13 0.0138104127
C  C73  1  0.95400000  0.06000000  0.12210000  0.13 0.0157156891
C  C74  1  0.04600000  0.94000000  0.12210000  0.13 0.0138104127
C  C75  1  0.06000000  0.04600000  0.12210000  0.13 0.0138104127
C  C76  1  0.94000000  0.95400000  0.12210000  0.13 0.0138104127
C  C77  1  0.95400000  0.94000000  0.12210000  0.13 0.0138104127
C  C78  1  0.04600000  0.06000000  0.12210000  0.13 0.0138104127
C  C79  1  0.06000000  0.95400000  0.12210000  0.13 0.0138104127
C  C80  1  0.94000000  0.04600000  0.12210000  0.13 0.0157156891
C  C81  1  0.04600000  0.94000000  0.87790000  0.13 0.0138104127
C  C82  1  0.95400000  0.06000000  0.87790000  0.13 0.0157156891
C  C83  1  0.94000000  0.95400000  0.87790000  0.13 0.0138104127
C  C84  1  0.06000000  0.04600000  0.87790000  0.13 0.0138104127
C  C85  1  0.94600000  0.85630000  0.86630000  0.13 -0.1452597732
C  C86  1  0.05400000  0.14370000  0.86630000  0.13 -0.1452597732
C  C87  1  0.14370000  0.94600000  0.86630000  0.13 -0.1452597732
C  C88  1  0.85630000  0.05400000  0.86630000  0.13 -0.1452597732
C  C89  1  0.05400000  0.85630000  0.13370000  0.13 -0.1452597732
C  C90  1  0.94600000  0.14370000  0.13370000  0.13 -0.1452597732
C  C91  1  0.85630000  0.94600000  0.13370000  0.13 -0.1452597732
C  C92  1  0.14370000  0.05400000  0.13370000  0.13 -0.1452597732
C  C93  1  0.05400000  0.14370000  0.13370000  0.13 -0.1452597732
C  C94  1  0.94600000  0.85630000  0.13370000  0.13 -0.1452597732
C  C95  1  0.85630000  0.05400000  0.13370000  0.13 -0.1452597732
C  C96  1  0.14370000  0.94600000  0.13370000  0.13 -0.1452597732
C  C97  1  0.94600000  0.14370000  0.86630000  0.13 -0.1452597732
C  C98  1  0.05400000  0.85630000  0.86630000  0.13 -0.1452597732
C  C99  1  0.14370000  0.05400000  0.86630000  0.13 -0.1452597732
C  C100  1  0.85630000  0.94600000  0.86630000  0.13 -0.1452597732
C  C101  1  0.08200000  0.13300000  0.85500000  0.13 -0.1287972488
C  C102  1  0.91800000  0.86700000  0.85500000  0.13 -0.1287972488
C  C103  1  0.86700000  0.08200000  0.85500000  0.13 -0.1287972488
C  C104  1  0.13300000  0.91800000  0.85500000  0.13 -0.1287972488
C  C105  1  0.91800000  0.13300000  0.14500000  0.13 -0.1287972488
C  C106  1  0.08200000  0.86700000  0.14500000  0.13 -0.1287972488
C  C107  1  0.13300000  0.08200000  0.14500000  0.13 -0.1287972488
C  C108  1  0.86700000  0.91800000  0.14500000  0.13 -0.1287972488
C  C109  1  0.91800000  0.86700000  0.14500000  0.13 -0.1287972488
C  C110  1  0.08200000  0.13300000  0.14500000  0.13 -0.1287972488
C  C111  1  0.13300000  0.91800000  0.14500000  0.13 -0.1287972488
C  C112  1  0.86700000  0.08200000  0.14500000  0.13 -0.1287972488
C  C113  1  0.08200000  0.86700000  0.85500000  0.13 -0.1287972488
C  C114  1  0.91800000  0.13300000  0.85500000  0.13 -0.1287972488
C  C115  1  0.86700000  0.91800000  0.85500000  0.13 -0.1287972488
C  C116  1  0.13300000  0.08200000  0.85500000  0.13 -0.1287972488
C  C117  1  0.97070000  0.93810000  0.68660000  0.25 0.0028086756
C  C118  1  0.02930000  0.06190000  0.68660000  0.25 -0.0012536114
C  C119  1  0.06190000  0.97070000  0.68660000  0.25 -0.0012536114
C  C120  1  0.93810000  0.02930000  0.68660000  0.25 0.0028086756
C  C121  1  0.02930000  0.93810000  0.31340000  0.25 -0.0012536114
C  C122  1  0.97070000  0.06190000  0.31340000  0.25 0.0028086756
C  C123  1  0.93810000  0.97070000  0.31340000  0.25 0.0028086756
C  C124  1  0.06190000  0.02930000  0.31340000  0.25 -0.0012536114
C  C125  1  0.02930000  0.06190000  0.31340000  0.25 -0.0012536114
C  C126  1  0.97070000  0.93810000  0.31340000  0.25 0.0028086756
C  C127  1  0.93810000  0.02930000  0.31340000  0.25 0.0028086756
C  C128  1  0.06190000  0.97070000  0.31340000  0.25 -0.0012536114
C  C129  1  0.97070000  0.06190000  0.68660000  0.25 0.0028086756
C  C130  1  0.02930000  0.93810000  0.68660000  0.25 -0.0012536114
C  C131  1  0.06190000  0.02930000  0.68660000  0.25 -0.0012536114
C  C132  1  0.93810000  0.97070000  0.68660000  0.25 0.0028086756
C  C133  1  0.97350000  0.93480000  0.74860000  0.25 -0.048307048
C  C134  1  0.02650000  0.06520000  0.74860000  0.25 -0.048307048
C  C135  1  0.06520000  0.97350000  0.74860000  0.25 -0.048307048
C  C136  1  0.93480000  0.02650000  0.74860000  0.25 -0.048307048
C  C137  1  0.02650000  0.93480000  0.25140000  0.25 -0.048307048
C  C138  1  0.97350000  0.06520000  0.25140000  0.25 -0.048307048
C  C139  1  0.93480000  0.97350000  0.25140000  0.25 -0.048307048
C  C140  1  0.06520000  0.02650000  0.25140000  0.25 -0.048307048
C  C141  1  0.02650000  0.06520000  0.25140000  0.25 -0.048307048
C  C142  1  0.97350000  0.93480000  0.25140000  0.25 -0.048307048
C  C143  1  0.93480000  0.02650000  0.25140000  0.25 -0.048307048
C  C144  1  0.06520000  0.97350000  0.25140000  0.25 -0.048307048
C  C145  1  0.97350000  0.06520000  0.74860000  0.25 -0.048307048
C  C146  1  0.02650000  0.93480000  0.74860000  0.25 -0.048307048
C  C147  1  0.06520000  0.02650000  0.74860000  0.25 -0.048307048
C  C148  1  0.93480000  0.97350000  0.74860000  0.25 -0.048307048
C  C149  1  0.03870000  0.03870000  0.94260000  0.25 0.0157156891
C  C150  1  0.96130000  0.96130000  0.94260000  0.25 0.0157156891
C  C151  1  0.96130000  0.03870000  0.94260000  0.25 0.0157156891
C  C152  1  0.03870000  0.96130000  0.94260000  0.25 0.0138104127
C  C153  1  0.96130000  0.03870000  0.05740000  0.25 0.0157156891
C  C154  1  0.03870000  0.96130000  0.05740000  0.25 0.0157156891
C  C155  1  0.03870000  0.03870000  0.05740000  0.25 0.0157156891
C  C156  1  0.96130000  0.96130000  0.05740000  0.25 0.0157156891
C  C157  1  0.07600000  0.07600000  0.00000000  0.25 -0.0182539488
C  C158  1  0.92400000  0.92400000  0.00000000  0.25 -0.0182539488
C  C159  1  0.92400000  0.07600000  0.00000000  0.25 -0.0182539488
C  C160  1  0.07600000  0.92400000  0.00000000  0.25 -0.0182539488
C  C161  1  0.18100000  0.18100000  0.00000000  0.25 -0.168677996
C  C162  1  0.81900000  0.81900000  0.00000000  0.25 -0.168677996
C  C163  1  0.81900000  0.18100000  0.00000000  0.25 -0.168677996
C  C164  1  0.18100000  0.81900000  0.00000000  0.25 -0.168677996
C  C165  1  0.09600000  0.17000000  0.00000000  0.12 -0.0791644788
C  C166  1  0.90400000  0.83000000  0.00000000  0.12 -0.0791644788
C  C167  1  0.83000000  0.09600000  0.00000000  0.12 -0.0791644788
C  C168  1  0.17000000  0.90400000  0.00000000  0.12 -0.0791644788
C  C169  1  0.90400000  0.17000000  0.00000000  0.12 -0.0791644788
C  C170  1  0.09600000  0.83000000  0.00000000  0.12 -0.0791644788
C  C171  1  0.17000000  0.09600000  0.00000000  0.12 -0.0791644788
C  C172  1  0.83000000  0.90400000  0.00000000  0.12 -0.0791644788
C  C173  1  0.21300000  0.25900000  0.00000000  0.12 -0.1621948088
C  C174  1  0.78700000  0.74100000  0.00000000  0.12 -0.1621948088
C  C175  1  0.74100000  0.21300000  0.00000000  0.12 -0.1621948088
C  C176  1  0.25900000  0.78700000  0.00000000  0.12 -0.1621948088
C  C177  1  0.78700000  0.25900000  0.00000000  0.12 -0.1621948088
C  C178  1  0.21300000  0.74100000  0.00000000  0.12 -0.1621948088
C  C179  1  0.25900000  0.21300000  0.00000000  0.12 -0.1621948088
C  C180  1  0.74100000  0.78700000  0.00000000  0.12 -0.1621948088
C  C181  1  0.16200000  0.32700000  0.00000000  0.12 -0.1109645067
C  C182  1  0.83800000  0.67300000  0.00000000  0.12 -0.1109645067
C  C183  1  0.67300000  0.16200000  0.00000000  0.12 -0.1109645067
C  C184  1  0.32700000  0.83800000  0.00000000  0.12 -0.1109645067
C  C185  1  0.83800000  0.32700000  0.00000000  0.12 -0.1109645067
C  C186  1  0.16200000  0.67300000  0.00000000  0.12 -0.1109645067
C  C187  1  0.32700000  0.16200000  0.00000000  0.12 -0.1109645067
C  C188  1  0.67300000  0.83800000  0.00000000  0.12 -0.1109645067
C  C189  1  0.07800000  0.31600000  0.00000000  0.12 -0.2548075373
C  C190  1  0.92200000  0.68400000  0.00000000  0.12 -0.2548075373
C  C191  1  0.68400000  0.07800000  0.00000000  0.12 -0.2548075373
C  C192  1  0.31600000  0.92200000  0.00000000  0.12 -0.2548075373
C  C193  1  0.92200000  0.31600000  0.00000000  0.12 -0.255372023
C  C194  1  0.07800000  0.68400000  0.00000000  0.12 -0.2548075373
C  C195  1  0.31600000  0.07800000  0.00000000  0.12 -0.2548075373
C  C196  1  0.68400000  0.92200000  0.00000000  0.12 -0.2548075373
C  C197  1  0.04500000  0.23800000  0.00000000  0.12 -0.1158933489
C  C198  1  0.95500000  0.76200000  0.00000000  0.12 -0.1109645067
C  C199  1  0.76200000  0.04500000  0.00000000  0.12 -0.1109645067
C  C200  1  0.23800000  0.95500000  0.00000000  0.12 -0.1158933489
C  C201  1  0.95500000  0.23800000  0.00000000  0.12 -0.1109645067
C  C202  1  0.04500000  0.76200000  0.00000000  0.12 -0.1158933489
C  C203  1  0.23800000  0.04500000  0.00000000  0.12 -0.1158933489
C  C204  1  0.76200000  0.95500000  0.00000000  0.12 -0.1109645067
N  N1  1  0.62090000  0.50000000  0.50000000  1.0 -0.3684391732
N  N2  1  0.37910000  0.50000000  0.50000000  1.0 -0.3684391732
N  N3  1  0.50000000  0.62090000  0.50000000  1.0 -0.3684391732
N  N4  1  0.50000000  0.37910000  0.50000000  1.0 -0.3684391732
N  N5  1  0.00000000  0.00000000  0.64820000  1.0 -0.0375359075
N  N6  1  0.00000000  0.00000000  0.35180000  1.0 -0.0375359075
N  N7  1  0.00000000  0.95700000  0.94600000  0.25 0.0368895281
N  N8  1  0.00000000  0.04300000  0.94600000  0.25 0.0368895281
N  N9  1  0.04300000  0.00000000  0.94600000  0.25 0.0368895281
N  N10  1  0.95700000  0.00000000  0.94600000  0.25 0.0368895281
N  N11  1  0.00000000  0.95700000  0.05400000  0.25 0.0368895281
N  N12  1  0.00000000  0.04300000  0.05400000  0.25 0.0368895281
N  N13  1  0.95700000  0.00000000  0.05400000  0.25 0.0368895281
N  N14  1  0.04300000  0.00000000  0.05400000  0.25 0.0368895281
O  O1  1  0.91578000  0.91578000  0.55240000  1.0 -0.5645363683
O  O2  1  0.08422000  0.08422000  0.55240000  1.0 -0.5645363683
O  O3  1  0.08422000  0.91578000  0.55240000  1.0 -0.5655216927
O  O4  1  0.91578000  0.08422000  0.55240000  1.0 -0.5645363683
O  O5  1  0.08422000  0.91578000  0.44760000  1.0 -0.5655216927
O  O6  1  0.91578000  0.08422000  0.44760000  1.0 -0.5645363683
O  O7  1  0.91578000  0.91578000  0.44760000  1.0 -0.5645363683
O  O8  1  0.08422000  0.08422000  0.44760000  1.0 -0.5645363683
F  F1  1  0.01900000  0.83100000  0.00000000  0.12 -0.0012536114
F  F2  1  0.98100000  0.16900000  0.00000000  0.12 -0.0012536114
F  F3  1  0.16900000  0.01900000  0.00000000  0.12 -0.0012536114
F  F4  1  0.83100000  0.98100000  0.00000000  0.12 -0.0012536114
F  F5  1  0.98100000  0.83100000  0.00000000  0.12 -0.0012536114
F  F6  1  0.01900000  0.16900000  0.00000000  0.12 -0.0012536114
F  F7  1  0.83100000  0.01900000  0.00000000  0.12 -0.0012536114
F  F8  1  0.16900000  0.98100000  0.00000000  0.12 -0.0012536114
F  F9  1  0.91200000  0.85400000  0.00000000  0.12 0.0138104127
F  F10  1  0.08800000  0.14600000  0.00000000  0.12 0.0138104127
F  F11  1  0.14600000  0.91200000  0.00000000  0.12 0.0138104127
F  F12  1  0.85400000  0.08800000  0.00000000  0.12 0.0138104127
F  F13  1  0.08800000  0.85400000  0.00000000  0.12 0.0138104127
F  F14  1  0.91200000  0.14600000  0.00000000  0.12 0.0138104127
F  F15  1  0.85400000  0.91200000  0.00000000  0.12 0.0138104127
F  F16  1  0.14600000  0.08800000  0.00000000  0.12 0.0138104127
