# DDEC6 charges by PACMAN v1.1 (https://github.com/mtap-research/PACMAN-charge/)
data_2015[Zn][ith]3[ASR]1
_chemical_formula_sum              "Zn24 H252 C354 O78"
_cell_length_a       29.9525
_cell_length_b       29.9525
_cell_length_c       29.9525
_cell_angle_alpha    90
_cell_angle_beta     90
_cell_angle_gamma    90

_symmetry_space_group_name_H-M    "P 1"
_symmetry_Int_Tables_number       1

loop_
  _symmetry_equiv_pos_as_xyz
  'x, y, z'

loop_
  _atom_site_type_symbol
  _atom_site_label
  _atom_site_symmetry_multiplicity
  _atom_site_fract_x
  _atom_site_fract_y
  _atom_site_fract_z
  _atom_site_occupancy
  _atom_site_charge
Zn  Zn1       1.0  0.05332  0.17736  0.50000  1.0000 0.9573753351
Zn  Zn2       1.0  0.94668  0.82264  0.50000  1.0000 0.9573753351
Zn  Zn3       1.0  0.94668  0.17736  0.50000  1.0000 0.9573753351
Zn  Zn4       1.0  0.05332  0.82264  0.50000  1.0000 0.9573753351
Zn  Zn5       1.0  0.50000  0.05332  0.17736  1.0000 0.9573753351
Zn  Zn6       1.0  0.50000  0.94668  0.82264  1.0000 0.9573753351
Zn  Zn7       1.0  0.50000  0.94668  0.17736  1.0000 0.9573753351
Zn  Zn8       1.0  0.50000  0.05332  0.82264  1.0000 0.9573753351
Zn  Zn9       1.0  0.17736  0.50000  0.05332  1.0000 0.9573753351
Zn  Zn10      1.0  0.82264  0.50000  0.94668  1.0000 0.9573753351
Zn  Zn11      1.0  0.17736  0.50000  0.94668  1.0000 0.9573753351
Zn  Zn12      1.0  0.82264  0.50000  0.05332  1.0000 0.9573753351
Zn  Zn13      1.0  0.00000  0.25139  0.44672  1.0000 0.9504656369
Zn  Zn14      1.0  0.00000  0.74861  0.44672  1.0000 0.9504656369
Zn  Zn15      1.0  0.00000  0.25139  0.55328  1.0000 0.9504656369
Zn  Zn16      1.0  0.00000  0.74861  0.55328  1.0000 0.9504656369
Zn  Zn17      1.0  0.44672  0.00000  0.25139  1.0000 0.9504656369
Zn  Zn18      1.0  0.44672  0.00000  0.74861  1.0000 0.9504656369
Zn  Zn19      1.0  0.55328  0.00000  0.25139  1.0000 0.9504656369
Zn  Zn20      1.0  0.55328  0.00000  0.74861  1.0000 0.9504656369
Zn  Zn21      1.0  0.25139  0.44672  0.00000  1.0000 0.9504656369
Zn  Zn22      1.0  0.74861  0.44672  0.00000  1.0000 0.9504656369
Zn  Zn23      1.0  0.25139  0.55328  0.00000  1.0000 0.9504656369
Zn  Zn24      1.0  0.74861  0.55328  0.00000  1.0000 0.9504656369
H   H1        1.0  0.09760  0.26790  0.34640  1.0000 0.1295430136
H   H2        1.0  0.90240  0.73210  0.34640  1.0000 0.1295430136
H   H3        1.0  0.90240  0.26790  0.65360  1.0000 0.1295430136
H   H4        1.0  0.09760  0.73210  0.65360  1.0000 0.1295430136
H   H5        1.0  0.34640  0.09760  0.26790  1.0000 0.1295430136
H   H6        1.0  0.34640  0.90240  0.73210  1.0000 0.1295430136
H   H7        1.0  0.65360  0.90240  0.26790  1.0000 0.1295430136
H   H8        1.0  0.65360  0.09760  0.73210  1.0000 0.1295430136
H   H9        1.0  0.26790  0.34640  0.09760  1.0000 0.1295430136
H   H10       1.0  0.73210  0.34640  0.90240  1.0000 0.1295430136
H   H11       1.0  0.26790  0.65360  0.90240  1.0000 0.1295430136
H   H12       1.0  0.73210  0.65360  0.09760  1.0000 0.1295430136
H   H13       1.0  0.90240  0.73210  0.65360  1.0000 0.1295430136
H   H14       1.0  0.09760  0.26790  0.65360  1.0000 0.1295430136
H   H15       1.0  0.09760  0.73210  0.34640  1.0000 0.1295430136
H   H16       1.0  0.90240  0.26790  0.34640  1.0000 0.1295430136
H   H17       1.0  0.65360  0.90240  0.73210  1.0000 0.1295430136
H   H18       1.0  0.65360  0.09760  0.26790  1.0000 0.1295430136
H   H19       1.0  0.34640  0.09760  0.73210  1.0000 0.1295430136
H   H20       1.0  0.34640  0.90240  0.26790  1.0000 0.1295430136
H   H21       1.0  0.73210  0.65360  0.90240  1.0000 0.1295430136
H   H22       1.0  0.26790  0.65360  0.09760  1.0000 0.1295430136
H   H23       1.0  0.73210  0.34640  0.09760  1.0000 0.1295430136
H   H24       1.0  0.26790  0.34640  0.90240  1.0000 0.1295430136
H   H25       1.0  0.06620  0.03860  0.50000  1.0000 0.1295430136
H   H26       1.0  0.93380  0.96140  0.50000  1.0000 0.1295430136
H   H27       1.0  0.93380  0.03860  0.50000  1.0000 0.1295430136
H   H28       1.0  0.06620  0.96140  0.50000  1.0000 0.1295430136
H   H29       1.0  0.50000  0.06620  0.03860  1.0000 0.1295430136
H   H30       1.0  0.50000  0.93380  0.96140  1.0000 0.1295430136
H   H31       1.0  0.50000  0.93380  0.03860  1.0000 0.1295430136
H   H32       1.0  0.50000  0.06620  0.96140  1.0000 0.1295430136
H   H33       1.0  0.03860  0.50000  0.06620  1.0000 0.1295430136
H   H34       1.0  0.96140  0.50000  0.93380  1.0000 0.1295430136
H   H35       1.0  0.03860  0.50000  0.93380  1.0000 0.1295430136
H   H36       1.0  0.96140  0.50000  0.06620  1.0000 0.1295430136
H   H37       1.0  0.15330  0.16060  0.40340  1.0000 0.1295430136
H   H38       1.0  0.84670  0.83940  0.40340  1.0000 0.1295430136
H   H39       1.0  0.84670  0.16060  0.59660  1.0000 0.1295430136
H   H40       1.0  0.15330  0.83940  0.59660  1.0000 0.1295430136
H   H41       1.0  0.40340  0.15330  0.16060  1.0000 0.1295430136
H   H42       1.0  0.40340  0.84670  0.83940  1.0000 0.1295430136
H   H43       1.0  0.59660  0.84670  0.16060  1.0000 0.1295430136
H   H44       1.0  0.59660  0.15330  0.83940  1.0000 0.1295430136
H   H45       1.0  0.16060  0.40340  0.15330  1.0000 0.1295430136
H   H46       1.0  0.83940  0.40340  0.84670  1.0000 0.1295430136
H   H47       1.0  0.16060  0.59660  0.84670  1.0000 0.1295430136
H   H48       1.0  0.83940  0.59660  0.15330  1.0000 0.1295430136
H   H49       1.0  0.84670  0.83940  0.59660  1.0000 0.1295430136
H   H50       1.0  0.15330  0.16060  0.59660  1.0000 0.1295430136
H   H51       1.0  0.15330  0.83940  0.40340  1.0000 0.1295430136
H   H52       1.0  0.84670  0.16060  0.40340  1.0000 0.1295430136
H   H53       1.0  0.59660  0.84670  0.83940  1.0000 0.1295430136
H   H54       1.0  0.59660  0.15330  0.16060  1.0000 0.1295430136
H   H55       1.0  0.40340  0.15330  0.83940  1.0000 0.1295430136
H   H56       1.0  0.40340  0.84670  0.16060  1.0000 0.1295430136
H   H57       1.0  0.83940  0.59660  0.84670  1.0000 0.1295430136
H   H58       1.0  0.16060  0.59660  0.15330  1.0000 0.1295430136
H   H59       1.0  0.83940  0.40340  0.15330  1.0000 0.1295430136
H   H60       1.0  0.16060  0.40340  0.84670  1.0000 0.1295430136
H   H61       1.0  0.20800  0.15930  0.34920  1.0000 0.1199438507
H   H62       1.0  0.79200  0.84070  0.34920  1.0000 0.1199438507
H   H63       1.0  0.79200  0.15930  0.65080  1.0000 0.1199438507
H   H64       1.0  0.20800  0.84070  0.65080  1.0000 0.1199438507
H   H65       1.0  0.34920  0.20800  0.15930  1.0000 0.1199438507
H   H66       1.0  0.34920  0.79200  0.84070  1.0000 0.1199438507
H   H67       1.0  0.65080  0.79200  0.15930  1.0000 0.1199438507
H   H68       1.0  0.65080  0.20800  0.84070  1.0000 0.1199438507
H   H69       1.0  0.15930  0.34920  0.20800  1.0000 0.1199438507
H   H70       1.0  0.84070  0.34920  0.79200  1.0000 0.1199438507
H   H71       1.0  0.15930  0.65080  0.79200  1.0000 0.1199438507
H   H72       1.0  0.84070  0.65080  0.20800  1.0000 0.1199438507
H   H73       1.0  0.79200  0.84070  0.65080  1.0000 0.1199438507
H   H74       1.0  0.20800  0.15930  0.65080  1.0000 0.1199438507
H   H75       1.0  0.20800  0.84070  0.34920  1.0000 0.1199438507
H   H76       1.0  0.79200  0.15930  0.34920  1.0000 0.1199438507
H   H77       1.0  0.65080  0.79200  0.84070  1.0000 0.1199438507
H   H78       1.0  0.65080  0.20800  0.15930  1.0000 0.1199438507
H   H79       1.0  0.34920  0.20800  0.84070  1.0000 0.1199438507
H   H80       1.0  0.34920  0.79200  0.15930  1.0000 0.1199438507
H   H81       1.0  0.84070  0.65080  0.79200  1.0000 0.1199438507
H   H82       1.0  0.15930  0.65080  0.20800  1.0000 0.1199438507
H   H83       1.0  0.84070  0.34920  0.20800  1.0000 0.1199438507
H   H84       1.0  0.15930  0.34920  0.79200  1.0000 0.1199438507
H   H85       1.0  0.11200  0.24560  0.23890  1.0000 0.1295430136
H   H86       1.0  0.88800  0.75440  0.23890  1.0000 0.1295430136
H   H87       1.0  0.88800  0.24560  0.76110  1.0000 0.1295430136
H   H88       1.0  0.11200  0.75440  0.76110  1.0000 0.1295430136
H   H89       1.0  0.23890  0.11200  0.24560  1.0000 0.1295430136
H   H90       1.0  0.23890  0.88800  0.75440  1.0000 0.1295430136
H   H91       1.0  0.76110  0.88800  0.24560  1.0000 0.1295430136
H   H92       1.0  0.76110  0.11200  0.75440  1.0000 0.1295430136
H   H93       1.0  0.24560  0.23890  0.11200  1.0000 0.1295430136
H   H94       1.0  0.75440  0.23890  0.88800  1.0000 0.1295430136
H   H95       1.0  0.24560  0.76110  0.88800  1.0000 0.1295430136
H   H96       1.0  0.75440  0.76110  0.11200  1.0000 0.1295430136
H   H97       1.0  0.88800  0.75440  0.76110  1.0000 0.1295430136
H   H98       1.0  0.11200  0.24560  0.76110  1.0000 0.1295430136
H   H99       1.0  0.11200  0.75440  0.23890  1.0000 0.1295430136
H   H100      1.0  0.88800  0.24560  0.23890  1.0000 0.1295430136
H   H101      1.0  0.76110  0.88800  0.75440  1.0000 0.1295430136
H   H102      1.0  0.76110  0.11200  0.24560  1.0000 0.1295430136
H   H103      1.0  0.23890  0.11200  0.75440  1.0000 0.1295430136
H   H104      1.0  0.23890  0.88800  0.24560  1.0000 0.1295430136
H   H105      1.0  0.75440  0.76110  0.88800  1.0000 0.1295430136
H   H106      1.0  0.24560  0.76110  0.11200  1.0000 0.1295430136
H   H107      1.0  0.75440  0.23890  0.11200  1.0000 0.1295430136
H   H108      1.0  0.24560  0.23890  0.88800  1.0000 0.1295430136
H   H109      1.0  0.12210  0.29360  0.22080  1.0000 0.1199438507
H   H110      1.0  0.87790  0.70640  0.22080  1.0000 0.1199438507
H   H111      1.0  0.87790  0.29360  0.77920  1.0000 0.1199438507
H   H112      1.0  0.12210  0.70640  0.77920  1.0000 0.1199438507
H   H113      1.0  0.22080  0.12210  0.29360  1.0000 0.1199438507
H   H114      1.0  0.22080  0.87790  0.70640  1.0000 0.1199438507
H   H115      1.0  0.77920  0.87790  0.29360  1.0000 0.1199438507
H   H116      1.0  0.77920  0.12210  0.70640  1.0000 0.1199438507
H   H117      1.0  0.29360  0.22080  0.12210  1.0000 0.1199438507
H   H118      1.0  0.70640  0.22080  0.87790  1.0000 0.1199438507
H   H119      1.0  0.29360  0.77920  0.87790  1.0000 0.1199438507
H   H120      1.0  0.70640  0.77920  0.12210  1.0000 0.1199438507
H   H121      1.0  0.87790  0.70640  0.77920  1.0000 0.1199438507
H   H122      1.0  0.12210  0.29360  0.77920  1.0000 0.1199438507
H   H123      1.0  0.12210  0.70640  0.22080  1.0000 0.1199438507
H   H124      1.0  0.87790  0.29360  0.22080  1.0000 0.1199438507
H   H125      1.0  0.77920  0.87790  0.70640  1.0000 0.1199438507
H   H126      1.0  0.77920  0.12210  0.29360  1.0000 0.1199438507
H   H127      1.0  0.22080  0.12210  0.70640  1.0000 0.1199438507
H   H128      1.0  0.22080  0.87790  0.29360  1.0000 0.1199438507
H   H129      1.0  0.70640  0.77920  0.87790  1.0000 0.1199438507
H   H130      1.0  0.29360  0.77920  0.12210  1.0000 0.1199438507
H   H131      1.0  0.70640  0.22080  0.12210  1.0000 0.1199438507
H   H132      1.0  0.29360  0.22080  0.87790  1.0000 0.1199438507
H   H133      1.0  0.09180  0.28740  0.26300  1.0000 0.1199438507
H   H134      1.0  0.90820  0.71260  0.26300  1.0000 0.1199438507
H   H135      1.0  0.90820  0.28740  0.73700  1.0000 0.1199438507
H   H136      1.0  0.09180  0.71260  0.73700  1.0000 0.1199438507
H   H137      1.0  0.26300  0.09180  0.28740  1.0000 0.1199438507
H   H138      1.0  0.26300  0.90820  0.71260  1.0000 0.1199438507
H   H139      1.0  0.73700  0.90820  0.28740  1.0000 0.1199438507
H   H140      1.0  0.73700  0.09180  0.71260  1.0000 0.1199438507
H   H141      1.0  0.28740  0.26300  0.09180  1.0000 0.1199438507
H   H142      1.0  0.71260  0.26300  0.90820  1.0000 0.1199438507
H   H143      1.0  0.28740  0.73700  0.90820  1.0000 0.1199438507
H   H144      1.0  0.71260  0.73700  0.09180  1.0000 0.1199438507
H   H145      1.0  0.90820  0.71260  0.73700  1.0000 0.1199438507
H   H146      1.0  0.09180  0.28740  0.73700  1.0000 0.1199438507
H   H147      1.0  0.09180  0.71260  0.26300  1.0000 0.1199438507
H   H148      1.0  0.90820  0.28740  0.26300  1.0000 0.1199438507
H   H149      1.0  0.73700  0.90820  0.71260  1.0000 0.1199438507
H   H150      1.0  0.73700  0.09180  0.28740  1.0000 0.1199438507
H   H151      1.0  0.26300  0.09180  0.71260  1.0000 0.1199438507
H   H152      1.0  0.26300  0.90820  0.28740  1.0000 0.1199438507
H   H153      1.0  0.71260  0.73700  0.90820  1.0000 0.1199438507
H   H154      1.0  0.28740  0.73700  0.09180  1.0000 0.1199438507
H   H155      1.0  0.71260  0.26300  0.09180  1.0000 0.1199438507
H   H156      1.0  0.28740  0.26300  0.90820  1.0000 0.1199438507
H   H157      1.0  0.13970  0.33490  0.31220  1.0000 0.1199438507
H   H158      1.0  0.86030  0.66510  0.31220  1.0000 0.1199438507
H   H159      1.0  0.86030  0.33490  0.68780  1.0000 0.1199438507
H   H160      1.0  0.13970  0.66510  0.68780  1.0000 0.1199438507
H   H161      1.0  0.31220  0.13970  0.33490  1.0000 0.1199438507
H   H162      1.0  0.31220  0.86030  0.66510  1.0000 0.1199438507
H   H163      1.0  0.68780  0.86030  0.33490  1.0000 0.1199438507
H   H164      1.0  0.68780  0.13970  0.66510  1.0000 0.1199438507
H   H165      1.0  0.33490  0.31220  0.13970  1.0000 0.1199438507
H   H166      1.0  0.66510  0.31220  0.86030  1.0000 0.1199438507
H   H167      1.0  0.33490  0.68780  0.86030  1.0000 0.1199438507
H   H168      1.0  0.66510  0.68780  0.13970  1.0000 0.1199438507
H   H169      1.0  0.86030  0.66510  0.68780  1.0000 0.1199438507
H   H170      1.0  0.13970  0.33490  0.68780  1.0000 0.1199438507
H   H171      1.0  0.13970  0.66510  0.31220  1.0000 0.1199438507
H   H172      1.0  0.86030  0.33490  0.31220  1.0000 0.1199438507
H   H173      1.0  0.68780  0.86030  0.66510  1.0000 0.1199438507
H   H174      1.0  0.68780  0.13970  0.33490  1.0000 0.1199438507
H   H175      1.0  0.31220  0.13970  0.66510  1.0000 0.1199438507
H   H176      1.0  0.31220  0.86030  0.33490  1.0000 0.1199438507
H   H177      1.0  0.66510  0.68780  0.86030  1.0000 0.1199438507
H   H178      1.0  0.33490  0.68780  0.13970  1.0000 0.1199438507
H   H179      1.0  0.66510  0.31220  0.13970  1.0000 0.1199438507
H   H180      1.0  0.33490  0.31220  0.86030  1.0000 0.1199438507
H   H181      1.0  0.17370  0.34570  0.27380  1.0000 0.1199438507
H   H182      1.0  0.82630  0.65430  0.27380  1.0000 0.1199438507
H   H183      1.0  0.82630  0.34570  0.72620  1.0000 0.1199438507
H   H184      1.0  0.17370  0.65430  0.72620  1.0000 0.1199438507
H   H185      1.0  0.27380  0.17370  0.34570  1.0000 0.1199438507
H   H186      1.0  0.27380  0.82630  0.65430  1.0000 0.1199438507
H   H187      1.0  0.72620  0.82630  0.34570  1.0000 0.1199438507
H   H188      1.0  0.72620  0.17370  0.65430  1.0000 0.1199438507
H   H189      1.0  0.34570  0.27380  0.17370  1.0000 0.1199438507
H   H190      1.0  0.65430  0.27380  0.82630  1.0000 0.1199438507
H   H191      1.0  0.34570  0.72620  0.82630  1.0000 0.1199438507
H   H192      1.0  0.65430  0.72620  0.17370  1.0000 0.1199438507
H   H193      1.0  0.82630  0.65430  0.72620  1.0000 0.1199438507
H   H194      1.0  0.17370  0.34570  0.72620  1.0000 0.1199438507
H   H195      1.0  0.17370  0.65430  0.27380  1.0000 0.1199438507
H   H196      1.0  0.82630  0.34570  0.27380  1.0000 0.1199438507
H   H197      1.0  0.72620  0.82630  0.65430  1.0000 0.1199438507
H   H198      1.0  0.72620  0.17370  0.34570  1.0000 0.1199438507
H   H199      1.0  0.27380  0.17370  0.65430  1.0000 0.1199438507
H   H200      1.0  0.27380  0.82630  0.34570  1.0000 0.1199438507
H   H201      1.0  0.65430  0.72620  0.82630  1.0000 0.1199438507
H   H202      1.0  0.34570  0.72620  0.17370  1.0000 0.1199438507
H   H203      1.0  0.65430  0.27380  0.17370  1.0000 0.1199438507
H   H204      1.0  0.34570  0.27380  0.82630  1.0000 0.1199438507
H   H205      1.0  0.19050  0.32370  0.31820  1.0000 0.1295430136
H   H206      1.0  0.80950  0.67630  0.31820  1.0000 0.1295430136
H   H207      1.0  0.80950  0.32370  0.68180  1.0000 0.1295430136
H   H208      1.0  0.19050  0.67630  0.68180  1.0000 0.1295430136
H   H209      1.0  0.31820  0.19050  0.32370  1.0000 0.1295430136
H   H210      1.0  0.31820  0.80950  0.67630  1.0000 0.1295430136
H   H211      1.0  0.68180  0.80950  0.32370  1.0000 0.1295430136
H   H212      1.0  0.68180  0.19050  0.67630  1.0000 0.1295430136
H   H213      1.0  0.32370  0.31820  0.19050  1.0000 0.1295430136
H   H214      1.0  0.67630  0.31820  0.80950  1.0000 0.1295430136
H   H215      1.0  0.32370  0.68180  0.80950  1.0000 0.1295430136
H   H216      1.0  0.67630  0.68180  0.19050  1.0000 0.1295430136
H   H217      1.0  0.80950  0.67630  0.68180  1.0000 0.1295430136
H   H218      1.0  0.19050  0.32370  0.68180  1.0000 0.1295430136
H   H219      1.0  0.19050  0.67630  0.31820  1.0000 0.1295430136
H   H220      1.0  0.80950  0.32370  0.31820  1.0000 0.1295430136
H   H221      1.0  0.68180  0.80950  0.67630  1.0000 0.1295430136
H   H222      1.0  0.68180  0.19050  0.32370  1.0000 0.1295430136
H   H223      1.0  0.31820  0.19050  0.67630  1.0000 0.1295430136
H   H224      1.0  0.31820  0.80950  0.32370  1.0000 0.1295430136
H   H225      1.0  0.67630  0.68180  0.80950  1.0000 0.1295430136
H   H226      1.0  0.32370  0.68180  0.19050  1.0000 0.1295430136
H   H227      1.0  0.67630  0.31820  0.19050  1.0000 0.1295430136
H   H228      1.0  0.32370  0.31820  0.80950  1.0000 0.1295430136
H   H229      1.0  0.00000  0.39020  0.43470  1.0000 0.1295430136
H   H230      1.0  0.00000  0.60980  0.43470  1.0000 0.1295430136
H   H231      1.0  0.00000  0.39020  0.56530  1.0000 0.1295430136
H   H232      1.0  0.00000  0.60980  0.56530  1.0000 0.1295430136
H   H233      1.0  0.43470  0.00000  0.39020  1.0000 0.1295430136
H   H234      1.0  0.43470  0.00000  0.60980  1.0000 0.1295430136
H   H235      1.0  0.56530  0.00000  0.39020  1.0000 0.1295430136
H   H236      1.0  0.56530  0.00000  0.60980  1.0000 0.1295430136
H   H237      1.0  0.39020  0.43470  0.00000  1.0000 0.1295430136
H   H238      1.0  0.60980  0.43470  0.00000  1.0000 0.1295430136
H   H239      1.0  0.39020  0.56530  0.00000  1.0000 0.1295430136
H   H240      1.0  0.60980  0.56530  0.00000  1.0000 0.1295430136
H   H241      1.0  0.00000  0.46710  0.43500  1.0000 0.1199438507
H   H242      1.0  0.00000  0.53290  0.43500  1.0000 0.1199438507
H   H243      1.0  0.00000  0.46710  0.56500  1.0000 0.1199438507
H   H244      1.0  0.00000  0.53290  0.56500  1.0000 0.1199438507
H   H245      1.0  0.43500  0.00000  0.46710  1.0000 0.1199438507
H   H246      1.0  0.43500  0.00000  0.53290  1.0000 0.1199438507
H   H247      1.0  0.56500  0.00000  0.46710  1.0000 0.1199438507
H   H248      1.0  0.56500  0.00000  0.53290  1.0000 0.1199438507
H   H249      1.0  0.46710  0.43500  0.00000  1.0000 0.1199438507
H   H250      1.0  0.53290  0.43500  0.00000  1.0000 0.1199438507
H   H251      1.0  0.46710  0.56500  0.00000  1.0000 0.1199438507
H   H252      1.0  0.53290  0.56500  0.00000  1.0000 0.1199438507
C   C1        1.0  0.00000  0.09604  0.50000  1.0000 0.6094285571
C   C2        1.0  0.00000  0.90396  0.50000  1.0000 0.6094285571
C   C3        1.0  0.50000  0.00000  0.09604  1.0000 0.6094285571
C   C4        1.0  0.50000  0.00000  0.90396  1.0000 0.6094285571
C   C5        1.0  0.09604  0.50000  0.00000  1.0000 0.6094285571
C   C6        1.0  0.90396  0.50000  0.00000  1.0000 0.6094285571
C   C7        1.0  0.00000  0.33233  0.50000  1.0000 0.6094285571
C   C8        1.0  0.00000  0.66767  0.50000  1.0000 0.6094285571
C   C9        1.0  0.50000  0.00000  0.33233  1.0000 0.6094285571
C   C10       1.0  0.50000  0.00000  0.66767  1.0000 0.6094285571
C   C11       1.0  0.33233  0.50000  0.00000  1.0000 0.6094285571
C   C12       1.0  0.66767  0.50000  0.00000  1.0000 0.6094285571
C   C13       1.0  0.08455  0.21429  0.41567  1.0000 0.6022467861
C   C14       1.0  0.91545  0.78571  0.41567  1.0000 0.6022467861
C   C15       1.0  0.91545  0.21429  0.58433  1.0000 0.6022467861
C   C16       1.0  0.08455  0.78571  0.58433  1.0000 0.6022467861
C   C17       1.0  0.41567  0.08455  0.21429  1.0000 0.6022467861
C   C18       1.0  0.41567  0.91545  0.78571  1.0000 0.6022467861
C   C19       1.0  0.58433  0.91545  0.21429  1.0000 0.6022467861
C   C20       1.0  0.58433  0.08455  0.78571  1.0000 0.6022467861
C   C21       1.0  0.21429  0.41567  0.08455  1.0000 0.6022467861
C   C22       1.0  0.78571  0.41567  0.91545  1.0000 0.6022467861
C   C23       1.0  0.21429  0.58433  0.91545  1.0000 0.6022467861
C   C24       1.0  0.78571  0.58433  0.08455  1.0000 0.6022467861
C   C25       1.0  0.91545  0.78571  0.58433  1.0000 0.6022467861
C   C26       1.0  0.08455  0.21429  0.58433  1.0000 0.6022467861
C   C27       1.0  0.08455  0.78571  0.41567  1.0000 0.6022467861
C   C28       1.0  0.91545  0.21429  0.41567  1.0000 0.6022467861
C   C29       1.0  0.58433  0.91545  0.78571  1.0000 0.6022467861
C   C30       1.0  0.58433  0.08455  0.21429  1.0000 0.6022467861
C   C31       1.0  0.41567  0.08455  0.78571  1.0000 0.6022467861
C   C32       1.0  0.41567  0.91545  0.21429  1.0000 0.6022467861
C   C33       1.0  0.78571  0.58433  0.91545  1.0000 0.6022467861
C   C34       1.0  0.21429  0.58433  0.08455  1.0000 0.6022467861
C   C35       1.0  0.78571  0.41567  0.08455  1.0000 0.6022467861
C   C36       1.0  0.21429  0.41567  0.91545  1.0000 0.6022467861
C   C37       1.0  0.00000  0.04599  0.50000  1.0000 -0.0380552998
C   C38       1.0  0.00000  0.95401  0.50000  1.0000 -0.0380552998
C   C39       1.0  0.50000  0.00000  0.04599  1.0000 -0.0380552998
C   C40       1.0  0.50000  0.00000  0.95401  1.0000 -0.0380552998
C   C41       1.0  0.04599  0.50000  0.00000  1.0000 -0.0380552998
C   C42       1.0  0.95401  0.50000  0.00000  1.0000 -0.0380552998
C   C43       1.0  0.11982  0.24628  0.34721  1.0000 -0.1546992598
C   C44       1.0  0.88018  0.75372  0.34721  1.0000 -0.1546992598
C   C45       1.0  0.88018  0.24628  0.65279  1.0000 -0.1546992598
C   C46       1.0  0.11982  0.75372  0.65279  1.0000 -0.1546992598
C   C47       1.0  0.34721  0.11982  0.24628  1.0000 -0.1546992598
C   C48       1.0  0.34721  0.88018  0.75372  1.0000 -0.1546992598
C   C49       1.0  0.65279  0.88018  0.24628  1.0000 -0.1546992598
C   C50       1.0  0.65279  0.11982  0.75372  1.0000 -0.1546992598
C   C51       1.0  0.24628  0.34721  0.11982  1.0000 -0.1546992598
C   C52       1.0  0.75372  0.34721  0.88018  1.0000 -0.1546992598
C   C53       1.0  0.24628  0.65279  0.88018  1.0000 -0.1546992598
C   C54       1.0  0.75372  0.65279  0.11982  1.0000 -0.1546992598
C   C55       1.0  0.88018  0.75372  0.65279  1.0000 -0.1546992598
C   C56       1.0  0.11982  0.24628  0.65279  1.0000 -0.1546992598
C   C57       1.0  0.11982  0.75372  0.34721  1.0000 -0.1546992598
C   C58       1.0  0.88018  0.24628  0.34721  1.0000 -0.1546992598
C   C59       1.0  0.65279  0.88018  0.75372  1.0000 -0.1546992598
C   C60       1.0  0.65279  0.11982  0.24628  1.0000 -0.1546992598
C   C61       1.0  0.34721  0.11982  0.75372  1.0000 -0.1546992598
C   C62       1.0  0.34721  0.88018  0.24628  1.0000 -0.1546992598
C   C63       1.0  0.75372  0.65279  0.88018  1.0000 -0.1546992598
C   C64       1.0  0.24628  0.65279  0.11982  1.0000 -0.1546992598
C   C65       1.0  0.75372  0.34721  0.11982  1.0000 -0.1546992598
C   C66       1.0  0.24628  0.34721  0.88018  1.0000 -0.1546992598
C   C67       1.0  0.18649  0.21346  0.31527  1.0000 0.0315269052
C   C68       1.0  0.81351  0.78654  0.31527  1.0000 0.0315269052
C   C69       1.0  0.81351  0.21346  0.68473  1.0000 0.0315269052
C   C70       1.0  0.18649  0.78654  0.68473  1.0000 0.0315269052
C   C71       1.0  0.31527  0.18649  0.21346  1.0000 0.0315269052
C   C72       1.0  0.31527  0.81351  0.78654  1.0000 0.0315269052
C   C73       1.0  0.68473  0.81351  0.21346  1.0000 0.0315269052
C   C74       1.0  0.68473  0.18649  0.78654  1.0000 0.0315269052
C   C75       1.0  0.21346  0.31527  0.18649  1.0000 0.0315269052
C   C76       1.0  0.78654  0.31527  0.81351  1.0000 0.0315269052
C   C77       1.0  0.21346  0.68473  0.81351  1.0000 0.0315269052
C   C78       1.0  0.78654  0.68473  0.18649  1.0000 0.0315269052
C   C79       1.0  0.81351  0.78654  0.68473  1.0000 0.0315269052
C   C80       1.0  0.18649  0.21346  0.68473  1.0000 0.0315269052
C   C81       1.0  0.18649  0.78654  0.31527  1.0000 0.0315269052
C   C82       1.0  0.81351  0.21346  0.31527  1.0000 0.0315269052
C   C83       1.0  0.68473  0.81351  0.78654  1.0000 0.0315269052
C   C84       1.0  0.68473  0.18649  0.21346  1.0000 0.0315269052
C   C85       1.0  0.31527  0.18649  0.78654  1.0000 0.0315269052
C   C86       1.0  0.31527  0.81351  0.21346  1.0000 0.0315269052
C   C87       1.0  0.78654  0.68473  0.81351  1.0000 0.0315269052
C   C88       1.0  0.21346  0.68473  0.18649  1.0000 0.0315269052
C   C89       1.0  0.78654  0.31527  0.18649  1.0000 0.0315269052
C   C90       1.0  0.21346  0.31527  0.81351  1.0000 0.0315269052
C   C91       1.0  0.03933  0.02314  0.50000  1.0000 -0.0841115024
C   C92       1.0  0.96067  0.97686  0.50000  1.0000 -0.0841115024
C   C93       1.0  0.96067  0.02314  0.50000  1.0000 -0.0841115024
C   C94       1.0  0.03933  0.97686  0.50000  1.0000 -0.0841115024
C   C95       1.0  0.50000  0.03933  0.02314  1.0000 -0.0841115024
C   C96       1.0  0.50000  0.96067  0.97686  1.0000 -0.0841115024
C   C97       1.0  0.50000  0.96067  0.02314  1.0000 -0.0841115024
C   C98       1.0  0.50000  0.03933  0.97686  1.0000 -0.0841115024
C   C99       1.0  0.02314  0.50000  0.03933  1.0000 -0.0841115024
C   C100      1.0  0.97686  0.50000  0.96067  1.0000 -0.0841115024
C   C101      1.0  0.02314  0.50000  0.96067  1.0000 -0.0841115024
C   C102      1.0  0.97686  0.50000  0.03933  1.0000 -0.0841115024
C   C103      1.0  0.15306  0.24590  0.31511  1.0000 0.0315269052
C   C104      1.0  0.84694  0.75410  0.31511  1.0000 0.0315269052
C   C105      1.0  0.84694  0.24590  0.68489  1.0000 0.0315269052
C   C106      1.0  0.15306  0.75410  0.68489  1.0000 0.0315269052
C   C107      1.0  0.31511  0.15306  0.24590  1.0000 0.0315269052
C   C108      1.0  0.31511  0.84694  0.75410  1.0000 0.0315269052
C   C109      1.0  0.68489  0.84694  0.24590  1.0000 0.0315269052
C   C110      1.0  0.68489  0.15306  0.75410  1.0000 0.0315269052
C   C111      1.0  0.24590  0.31511  0.15306  1.0000 0.0315269052
C   C112      1.0  0.75410  0.31511  0.84694  1.0000 0.0315269052
C   C113      1.0  0.24590  0.68489  0.84694  1.0000 0.0315269052
C   C114      1.0  0.75410  0.68489  0.15306  1.0000 0.0315269052
C   C115      1.0  0.84694  0.75410  0.68489  1.0000 0.0315269052
C   C116      1.0  0.15306  0.24590  0.68489  1.0000 0.0315269052
C   C117      1.0  0.15306  0.75410  0.31511  1.0000 0.0315269052
C   C118      1.0  0.84694  0.24590  0.31511  1.0000 0.0315269052
C   C119      1.0  0.68489  0.84694  0.75410  1.0000 0.0315269052
C   C120      1.0  0.68489  0.15306  0.24590  1.0000 0.0315269052
C   C121      1.0  0.31511  0.15306  0.75410  1.0000 0.0315269052
C   C122      1.0  0.31511  0.84694  0.24590  1.0000 0.0315269052
C   C123      1.0  0.75410  0.68489  0.84694  1.0000 0.0315269052
C   C124      1.0  0.24590  0.68489  0.15306  1.0000 0.0315269052
C   C125      1.0  0.75410  0.31511  0.15306  1.0000 0.0315269052
C   C126      1.0  0.24590  0.31511  0.84694  1.0000 0.0315269052
C   C127      1.0  0.11991  0.21426  0.38049  1.0000 -0.0380552998
C   C128      1.0  0.88009  0.78574  0.38049  1.0000 -0.0380552998
C   C129      1.0  0.88009  0.21426  0.61951  1.0000 -0.0380552998
C   C130      1.0  0.11991  0.78574  0.61951  1.0000 -0.0380552998
C   C131      1.0  0.38049  0.11991  0.21426  1.0000 -0.0380552998
C   C132      1.0  0.38049  0.88009  0.78574  1.0000 -0.0380552998
C   C133      1.0  0.61951  0.88009  0.21426  1.0000 -0.0380552998
C   C134      1.0  0.61951  0.11991  0.78574  1.0000 -0.0380552998
C   C135      1.0  0.21426  0.38049  0.11991  1.0000 -0.0380552998
C   C136      1.0  0.78574  0.38049  0.88009  1.0000 -0.0380552998
C   C137      1.0  0.21426  0.61951  0.88009  1.0000 -0.0380552998
C   C138      1.0  0.78574  0.61951  0.11991  1.0000 -0.0380552998
C   C139      1.0  0.88009  0.78574  0.61951  1.0000 -0.0380552998
C   C140      1.0  0.11991  0.21426  0.61951  1.0000 -0.0380552998
C   C141      1.0  0.11991  0.78574  0.38049  1.0000 -0.0380552998
C   C142      1.0  0.88009  0.21426  0.38049  1.0000 -0.0380552998
C   C143      1.0  0.61951  0.88009  0.78574  1.0000 -0.0380552998
C   C144      1.0  0.61951  0.11991  0.21426  1.0000 -0.0380552998
C   C145      1.0  0.38049  0.11991  0.78574  1.0000 -0.0380552998
C   C146      1.0  0.38049  0.88009  0.21426  1.0000 -0.0380552998
C   C147      1.0  0.78574  0.61951  0.88009  1.0000 -0.0380552998
C   C148      1.0  0.21426  0.61951  0.11991  1.0000 -0.0380552998
C   C149      1.0  0.78574  0.38049  0.11991  1.0000 -0.0380552998
C   C150      1.0  0.21426  0.38049  0.88009  1.0000 -0.0380552998
C   C151      1.0  0.15313  0.18204  0.38100  1.0000 -0.1009422194
C   C152      1.0  0.84687  0.81796  0.38100  1.0000 -0.1009422194
C   C153      1.0  0.84687  0.18204  0.61900  1.0000 -0.1009422194
C   C154      1.0  0.15313  0.81796  0.61900  1.0000 -0.1009422194
C   C155      1.0  0.38100  0.15313  0.18204  1.0000 -0.1009422194
C   C156      1.0  0.38100  0.84687  0.81796  1.0000 -0.1009422194
C   C157      1.0  0.61900  0.84687  0.18204  1.0000 -0.1009422194
C   C158      1.0  0.61900  0.15313  0.81796  1.0000 -0.1009422194
C   C159      1.0  0.18204  0.38100  0.15313  1.0000 -0.1009422194
C   C160      1.0  0.81796  0.38100  0.84687  1.0000 -0.1009422194
C   C161      1.0  0.18204  0.61900  0.84687  1.0000 -0.1009422194
C   C162      1.0  0.81796  0.61900  0.15313  1.0000 -0.1009422194
C   C163      1.0  0.84687  0.81796  0.61900  1.0000 -0.1009422194
C   C164      1.0  0.15313  0.18204  0.61900  1.0000 -0.1009422194
C   C165      1.0  0.15313  0.81796  0.38100  1.0000 -0.1009422194
C   C166      1.0  0.84687  0.18204  0.38100  1.0000 -0.1009422194
C   C167      1.0  0.61900  0.84687  0.81796  1.0000 -0.1009422194
C   C168      1.0  0.61900  0.15313  0.18204  1.0000 -0.1009422194
C   C169      1.0  0.38100  0.15313  0.81796  1.0000 -0.1009422194
C   C170      1.0  0.38100  0.84687  0.18204  1.0000 -0.1009422194
C   C171      1.0  0.81796  0.61900  0.84687  1.0000 -0.1009422194
C   C172      1.0  0.18204  0.61900  0.15313  1.0000 -0.1009422194
C   C173      1.0  0.81796  0.38100  0.15313  1.0000 -0.1009422194
C   C174      1.0  0.18204  0.38100  0.84687  1.0000 -0.1009422194
C   C175      1.0  0.20046  0.26041  0.25438  1.0000 -0.0203736684
C   C176      1.0  0.79954  0.73959  0.25438  1.0000 -0.0203736684
C   C177      1.0  0.79954  0.26041  0.74562  1.0000 -0.0203736684
C   C178      1.0  0.20046  0.73959  0.74562  1.0000 -0.0203736684
C   C179      1.0  0.25438  0.20046  0.26041  1.0000 -0.0203736684
C   C180      1.0  0.25438  0.79954  0.73959  1.0000 -0.0203736684
C   C181      1.0  0.74562  0.79954  0.26041  1.0000 -0.0203736684
C   C182      1.0  0.74562  0.20046  0.73959  1.0000 -0.0203736684
C   C183      1.0  0.26041  0.25438  0.20046  1.0000 -0.0203736684
C   C184      1.0  0.73959  0.25438  0.79954  1.0000 -0.0203736684
C   C185      1.0  0.26041  0.74562  0.79954  1.0000 -0.0203736684
C   C186      1.0  0.73959  0.74562  0.20046  1.0000 -0.0203736684
C   C187      1.0  0.79954  0.73959  0.74562  1.0000 -0.0203736684
C   C188      1.0  0.20046  0.26041  0.74562  1.0000 -0.0203736684
C   C189      1.0  0.20046  0.73959  0.25438  1.0000 -0.0203736684
C   C190      1.0  0.79954  0.26041  0.25438  1.0000 -0.0203736684
C   C191      1.0  0.74562  0.79954  0.73959  1.0000 -0.0203736684
C   C192      1.0  0.74562  0.20046  0.26041  1.0000 -0.0203736684
C   C193      1.0  0.25438  0.20046  0.73959  1.0000 -0.0203736684
C   C194      1.0  0.25438  0.79954  0.26041  1.0000 -0.0203736684
C   C195      1.0  0.73959  0.74562  0.79954  1.0000 -0.0203736684
C   C196      1.0  0.26041  0.74562  0.20046  1.0000 -0.0203736684
C   C197      1.0  0.73959  0.25438  0.20046  1.0000 -0.0203736684
C   C198      1.0  0.26041  0.25438  0.79954  1.0000 -0.0203736684
C   C199      1.0  0.00000  0.38223  0.50000  1.0000 -0.0599079828
C   C200      1.0  0.00000  0.61777  0.50000  1.0000 -0.0599079828
C   C201      1.0  0.50000  0.00000  0.38223  1.0000 -0.0599079828
C   C202      1.0  0.50000  0.00000  0.61777  1.0000 -0.0599079828
C   C203      1.0  0.38223  0.50000  0.00000  1.0000 -0.0599079828
C   C204      1.0  0.61777  0.50000  0.00000  1.0000 -0.0599079828
C   C205      1.0  0.21652  0.22228  0.27642  1.0000 -0.0286185016
C   C206      1.0  0.78348  0.77772  0.27642  1.0000 -0.0286185016
C   C207      1.0  0.78348  0.22228  0.72358  1.0000 -0.0286185016
C   C208      1.0  0.21652  0.77772  0.72358  1.0000 -0.0286185016
C   C209      1.0  0.27642  0.21652  0.22228  1.0000 -0.0286185016
C   C210      1.0  0.27642  0.78348  0.77772  1.0000 -0.0286185016
C   C211      1.0  0.72358  0.78348  0.22228  1.0000 -0.0286185016
C   C212      1.0  0.72358  0.21652  0.77772  1.0000 -0.0286185016
C   C213      1.0  0.22228  0.27642  0.21652  1.0000 -0.0286185016
C   C214      1.0  0.77772  0.27642  0.78348  1.0000 -0.0286185016
C   C215      1.0  0.22228  0.72358  0.78348  1.0000 -0.0286185016
C   C216      1.0  0.77772  0.72358  0.21652  1.0000 -0.0286185016
C   C217      1.0  0.78348  0.77772  0.72358  1.0000 -0.0286185016
C   C218      1.0  0.21652  0.22228  0.72358  1.0000 -0.0286185016
C   C219      1.0  0.21652  0.77772  0.27642  1.0000 -0.0286185016
C   C220      1.0  0.78348  0.22228  0.27642  1.0000 -0.0286185016
C   C221      1.0  0.72358  0.78348  0.77772  1.0000 -0.0286185016
C   C222      1.0  0.72358  0.21652  0.22228  1.0000 -0.0286185016
C   C223      1.0  0.27642  0.21652  0.77772  1.0000 -0.0286185016
C   C224      1.0  0.27642  0.78348  0.22228  1.0000 -0.0286185016
C   C225      1.0  0.77772  0.72358  0.78348  1.0000 -0.0286185016
C   C226      1.0  0.22228  0.72358  0.21652  1.0000 -0.0286185016
C   C227      1.0  0.77772  0.27642  0.21652  1.0000 -0.0286185016
C   C228      1.0  0.22228  0.27642  0.78348  1.0000 -0.0286185016
C   C229      1.0  0.18609  0.18132  0.34861  1.0000 -0.1615347081
C   C230      1.0  0.81391  0.81868  0.34861  1.0000 -0.1615347081
C   C231      1.0  0.81391  0.18132  0.65139  1.0000 -0.1615347081
C   C232      1.0  0.18609  0.81868  0.65139  1.0000 -0.1615347081
C   C233      1.0  0.34861  0.18609  0.18132  1.0000 -0.1615347081
C   C234      1.0  0.34861  0.81391  0.81868  1.0000 -0.1615347081
C   C235      1.0  0.65139  0.81391  0.18132  1.0000 -0.1615347081
C   C236      1.0  0.65139  0.18609  0.81868  1.0000 -0.1615347081
C   C237      1.0  0.18132  0.34861  0.18609  1.0000 -0.1615347081
C   C238      1.0  0.81868  0.34861  0.81391  1.0000 -0.1615347081
C   C239      1.0  0.18132  0.65139  0.81391  1.0000 -0.1615347081
C   C240      1.0  0.81868  0.65139  0.18609  1.0000 -0.1615347081
C   C241      1.0  0.81391  0.81868  0.65139  1.0000 -0.1615347081
C   C242      1.0  0.18609  0.18132  0.65139  1.0000 -0.1615347081
C   C243      1.0  0.18609  0.81868  0.34861  1.0000 -0.1615347081
C   C244      1.0  0.81391  0.18132  0.34861  1.0000 -0.1615347081
C   C245      1.0  0.65139  0.81391  0.81868  1.0000 -0.1615347081
C   C246      1.0  0.65139  0.18609  0.18132  1.0000 -0.1615347081
C   C247      1.0  0.34861  0.18609  0.81868  1.0000 -0.1615347081
C   C248      1.0  0.34861  0.81391  0.18132  1.0000 -0.1615347081
C   C249      1.0  0.81868  0.65139  0.81391  1.0000 -0.1615347081
C   C250      1.0  0.18132  0.65139  0.18609  1.0000 -0.1615347081
C   C251      1.0  0.81868  0.34861  0.18609  1.0000 -0.1615347081
C   C252      1.0  0.18132  0.34861  0.81391  1.0000 -0.1615347081
C   C253      1.0  0.15846  0.27862  0.27712  1.0000 0.1969484245
C   C254      1.0  0.84154  0.72138  0.27712  1.0000 0.1969484245
C   C255      1.0  0.84154  0.27862  0.72288  1.0000 0.1969484245
C   C256      1.0  0.15846  0.72138  0.72288  1.0000 0.1969484245
C   C257      1.0  0.27712  0.15846  0.27862  1.0000 0.1969484245
C   C258      1.0  0.27712  0.84154  0.72138  1.0000 0.1969484245
C   C259      1.0  0.72288  0.84154  0.27862  1.0000 0.1969484245
C   C260      1.0  0.72288  0.15846  0.72138  1.0000 0.1969484245
C   C261      1.0  0.27862  0.27712  0.15846  1.0000 0.1969484245
C   C262      1.0  0.72138  0.27712  0.84154  1.0000 0.1969484245
C   C263      1.0  0.27862  0.72288  0.84154  1.0000 0.1969484245
C   C264      1.0  0.72138  0.72288  0.15846  1.0000 0.1969484245
C   C265      1.0  0.84154  0.72138  0.72288  1.0000 0.1969484245
C   C266      1.0  0.15846  0.27862  0.72288  1.0000 0.1969484245
C   C267      1.0  0.15846  0.72138  0.27712  1.0000 0.1969484245
C   C268      1.0  0.84154  0.27862  0.27712  1.0000 0.1969484245
C   C269      1.0  0.72288  0.84154  0.72138  1.0000 0.1969484245
C   C270      1.0  0.72288  0.15846  0.27862  1.0000 0.1969484245
C   C271      1.0  0.27712  0.15846  0.72138  1.0000 0.1969484245
C   C272      1.0  0.27712  0.84154  0.27862  1.0000 0.1969484245
C   C273      1.0  0.72138  0.72288  0.84154  1.0000 0.1969484245
C   C274      1.0  0.27862  0.72288  0.15846  1.0000 0.1969484245
C   C275      1.0  0.72138  0.27712  0.15846  1.0000 0.1969484245
C   C276      1.0  0.27862  0.27712  0.84154  1.0000 0.1969484245
C   C277      1.0  0.11727  0.27607  0.24719  1.0000 -0.4437442825
C   C278      1.0  0.88273  0.72393  0.24719  1.0000 -0.4437442825
C   C279      1.0  0.88273  0.27607  0.75281  1.0000 -0.4437442825
C   C280      1.0  0.11727  0.72393  0.75281  1.0000 -0.4451070553
C   C281      1.0  0.24719  0.11727  0.27607  1.0000 -0.4437442825
C   C282      1.0  0.24719  0.88273  0.72393  1.0000 -0.4451070553
C   C283      1.0  0.75281  0.88273  0.27607  1.0000 -0.4437442825
C   C284      1.0  0.75281  0.11727  0.72393  1.0000 -0.4437442825
C   C285      1.0  0.27607  0.24719  0.11727  1.0000 -0.4437442825
C   C286      1.0  0.72393  0.24719  0.88273  1.0000 -0.4437442825
C   C287      1.0  0.27607  0.75281  0.88273  1.0000 -0.4451070553
C   C288      1.0  0.72393  0.75281  0.11727  1.0000 -0.4437442825
C   C289      1.0  0.88273  0.72393  0.75281  1.0000 -0.4437442825
C   C290      1.0  0.11727  0.27607  0.75281  1.0000 -0.4437442825
C   C291      1.0  0.11727  0.72393  0.24719  1.0000 -0.4437442825
C   C292      1.0  0.88273  0.27607  0.24719  1.0000 -0.4437442825
C   C293      1.0  0.75281  0.88273  0.72393  1.0000 -0.4437442825
C   C294      1.0  0.75281  0.11727  0.27607  1.0000 -0.4437442825
C   C295      1.0  0.24719  0.11727  0.72393  1.0000 -0.4437442825
C   C296      1.0  0.24719  0.88273  0.27607  1.0000 -0.4451070553
C   C297      1.0  0.72393  0.75281  0.88273  1.0000 -0.4437442825
C   C298      1.0  0.27607  0.75281  0.11727  1.0000 -0.4437442825
C   C299      1.0  0.72393  0.24719  0.11727  1.0000 -0.4437442825
C   C300      1.0  0.27607  0.24719  0.88273  1.0000 -0.4437442825
C   C301      1.0  0.16633  0.32511  0.29719  1.0000 -0.4437442825
C   C302      1.0  0.83367  0.67489  0.29719  1.0000 -0.4437442825
C   C303      1.0  0.83367  0.32511  0.70281  1.0000 -0.4437442825
C   C304      1.0  0.16633  0.67489  0.70281  1.0000 -0.4437442825
C   C305      1.0  0.29719  0.16633  0.32511  1.0000 -0.4437442825
C   C306      1.0  0.29719  0.83367  0.67489  1.0000 -0.4437442825
C   C307      1.0  0.70281  0.83367  0.32511  1.0000 -0.4437442825
C   C308      1.0  0.70281  0.16633  0.67489  1.0000 -0.4437442825
C   C309      1.0  0.32511  0.29719  0.16633  1.0000 -0.4437442825
C   C310      1.0  0.67489  0.29719  0.83367  1.0000 -0.4437442825
C   C311      1.0  0.32511  0.70281  0.83367  1.0000 -0.4437442825
C   C312      1.0  0.67489  0.70281  0.16633  1.0000 -0.4437442825
C   C313      1.0  0.83367  0.67489  0.70281  1.0000 -0.4437442825
C   C314      1.0  0.16633  0.32511  0.70281  1.0000 -0.4437442825
C   C315      1.0  0.16633  0.67489  0.29719  1.0000 -0.4437442825
C   C316      1.0  0.83367  0.32511  0.29719  1.0000 -0.4437442825
C   C317      1.0  0.70281  0.83367  0.67489  1.0000 -0.4437442825
C   C318      1.0  0.70281  0.16633  0.32511  1.0000 -0.4437442825
C   C319      1.0  0.29719  0.16633  0.67489  1.0000 -0.4437442825
C   C320      1.0  0.29719  0.83367  0.32511  1.0000 -0.4437442825
C   C321      1.0  0.67489  0.70281  0.83367  1.0000 -0.4437442825
C   C322      1.0  0.32511  0.70281  0.16633  1.0000 -0.4437442825
C   C323      1.0  0.67489  0.29719  0.16633  1.0000 -0.4437442825
C   C324      1.0  0.32511  0.29719  0.83367  1.0000 -0.4437442825
C   C325      1.0  0.00000  0.47509  0.50000  1.0000 0.0814667368
C   C326      1.0  0.00000  0.52491  0.50000  1.0000 0.0814667368
C   C327      1.0  0.50000  0.00000  0.47509  1.0000 0.0814667368
C   C328      1.0  0.50000  0.00000  0.52491  1.0000 0.0814667368
C   C329      1.0  0.47509  0.50000  0.00000  1.0000 0.0814667368
C   C330      1.0  0.52491  0.50000  0.00000  1.0000 0.0814667368
C   C331      1.0  0.00000  0.40536  0.46180  1.0000 -0.0902128419
C   C332      1.0  0.00000  0.59464  0.46180  1.0000 -0.0902128419
C   C333      1.0  0.00000  0.40536  0.53820  1.0000 -0.0902128419
C   C334      1.0  0.00000  0.59464  0.53820  1.0000 -0.0902128419
C   C335      1.0  0.46180  0.00000  0.40536  1.0000 -0.0902128419
C   C336      1.0  0.46180  0.00000  0.59464  1.0000 -0.0902128419
C   C337      1.0  0.53820  0.00000  0.40536  1.0000 -0.0902128419
C   C338      1.0  0.53820  0.00000  0.59464  1.0000 -0.0902128419
C   C339      1.0  0.40536  0.46180  0.00000  1.0000 -0.0902128419
C   C340      1.0  0.59464  0.46180  0.00000  1.0000 -0.0902128419
C   C341      1.0  0.40536  0.53820  0.00000  1.0000 -0.0902128419
C   C342      1.0  0.59464  0.53820  0.00000  1.0000 -0.0902128419
C   C343      1.0  0.00000  0.45183  0.46201  1.0000 -0.1615347081
C   C344      1.0  0.00000  0.54817  0.46201  1.0000 -0.1615347081
C   C345      1.0  0.00000  0.45183  0.53799  1.0000 -0.1615347081
C   C346      1.0  0.00000  0.54817  0.53799  1.0000 -0.1615347081
C   C347      1.0  0.46201  0.00000  0.45183  1.0000 -0.1615347081
C   C348      1.0  0.46201  0.00000  0.54817  1.0000 -0.1615347081
C   C349      1.0  0.53799  0.00000  0.45183  1.0000 -0.1615347081
C   C350      1.0  0.53799  0.00000  0.54817  1.0000 -0.1615347081
C   C351      1.0  0.45183  0.46201  0.00000  1.0000 -0.1615347081
C   C352      1.0  0.54817  0.46201  0.00000  1.0000 -0.1615347081
C   C353      1.0  0.45183  0.53799  0.00000  1.0000 -0.1615347081
C   C354      1.0  0.54817  0.53799  0.00000  1.0000 -0.1615347081
O   O1        1.0  0.00000  0.21437  0.50000  1.0000 -1.0375513659
O   O2        1.0  0.00000  0.78563  0.50000  1.0000 -1.0375513659
O   O3        1.0  0.50000  0.00000  0.21437  1.0000 -1.0375513659
O   O4        1.0  0.50000  0.00000  0.78563  1.0000 -1.0375513659
O   O5        1.0  0.21437  0.50000  0.00000  1.0000 -1.0375513659
O   O6        1.0  0.78563  0.50000  0.00000  1.0000 -1.0375513659
O   O7        1.0  0.05275  0.24117  0.41086  1.0000 -0.5412015382
O   O8        1.0  0.94725  0.75883  0.41086  1.0000 -0.5412015382
O   O9        1.0  0.94725  0.24117  0.58914  1.0000 -0.5412015382
O   O10       1.0  0.05275  0.75883  0.58914  1.0000 -0.5412015382
O   O11       1.0  0.41086  0.05275  0.24117  1.0000 -0.5412015382
O   O12       1.0  0.41086  0.94725  0.75883  1.0000 -0.5412015382
O   O13       1.0  0.58914  0.94725  0.24117  1.0000 -0.5412015382
O   O14       1.0  0.58914  0.05275  0.75883  1.0000 -0.5412015382
O   O15       1.0  0.24117  0.41086  0.05275  1.0000 -0.5412015382
O   O16       1.0  0.75883  0.41086  0.94725  1.0000 -0.5412015382
O   O17       1.0  0.24117  0.58914  0.94725  1.0000 -0.5412015382
O   O18       1.0  0.75883  0.58914  0.05275  1.0000 -0.5412015382
O   O19       1.0  0.94725  0.75883  0.58914  1.0000 -0.5412015382
O   O20       1.0  0.05275  0.24117  0.58914  1.0000 -0.5412015382
O   O21       1.0  0.05275  0.75883  0.41086  1.0000 -0.5412015382
O   O22       1.0  0.94725  0.24117  0.41086  1.0000 -0.5412015382
O   O23       1.0  0.58914  0.94725  0.75883  1.0000 -0.5412015382
O   O24       1.0  0.58914  0.05275  0.24117  1.0000 -0.5412015382
O   O25       1.0  0.41086  0.05275  0.75883  1.0000 -0.5412015382
O   O26       1.0  0.41086  0.94725  0.24117  1.0000 -0.5412015382
O   O27       1.0  0.75883  0.58914  0.94725  1.0000 -0.5412015382
O   O28       1.0  0.24117  0.58914  0.05275  1.0000 -0.5412015382
O   O29       1.0  0.75883  0.41086  0.05275  1.0000 -0.5412015382
O   O30       1.0  0.24117  0.41086  0.94725  1.0000 -0.5412015382
O   O31       1.0  0.08913  0.18763  0.44736  1.0000 -0.5412015382
O   O32       1.0  0.91087  0.81237  0.44736  1.0000 -0.5412015382
O   O33       1.0  0.91087  0.18763  0.55264  1.0000 -0.5412015382
O   O34       1.0  0.08913  0.81237  0.55264  1.0000 -0.5412015382
O   O35       1.0  0.44736  0.08913  0.18763  1.0000 -0.5412015382
O   O36       1.0  0.44736  0.91087  0.81237  1.0000 -0.5412015382
O   O37       1.0  0.55264  0.91087  0.18763  1.0000 -0.5412015382
O   O38       1.0  0.55264  0.08913  0.81237  1.0000 -0.5412015382
O   O39       1.0  0.18763  0.44736  0.08913  1.0000 -0.5412015382
O   O40       1.0  0.81237  0.44736  0.91087  1.0000 -0.5412015382
O   O41       1.0  0.18763  0.55264  0.91087  1.0000 -0.5412015382
O   O42       1.0  0.81237  0.55264  0.08913  1.0000 -0.5412015382
O   O43       1.0  0.91087  0.81237  0.55264  1.0000 -0.5412015382
O   O44       1.0  0.08913  0.18763  0.55264  1.0000 -0.5412015382
O   O45       1.0  0.08913  0.81237  0.44736  1.0000 -0.5412015382
O   O46       1.0  0.91087  0.18763  0.44736  1.0000 -0.5412015382
O   O47       1.0  0.55264  0.91087  0.81237  1.0000 -0.5412015382
O   O48       1.0  0.55264  0.08913  0.18763  1.0000 -0.5412015382
O   O49       1.0  0.44736  0.08913  0.81237  1.0000 -0.5412015382
O   O50       1.0  0.44736  0.91087  0.18763  1.0000 -0.5412015382
O   O51       1.0  0.81237  0.55264  0.91087  1.0000 -0.5412015382
O   O52       1.0  0.18763  0.55264  0.08913  1.0000 -0.5412015382
O   O53       1.0  0.81237  0.44736  0.08913  1.0000 -0.5412015382
O   O54       1.0  0.18763  0.44736  0.91087  1.0000 -0.5412015382
O   O55       1.0  0.03709  0.11493  0.50000  1.0000 -0.5256849553
O   O56       1.0  0.96291  0.88507  0.50000  1.0000 -0.5256849553
O   O57       1.0  0.96291  0.11493  0.50000  1.0000 -0.5256849553
O   O58       1.0  0.03709  0.88507  0.50000  1.0000 -0.5256849553
O   O59       1.0  0.50000  0.03709  0.11493  1.0000 -0.5256849553
O   O60       1.0  0.50000  0.96291  0.88507  1.0000 -0.5256849553
O   O61       1.0  0.50000  0.96291  0.11493  1.0000 -0.5256849553
O   O62       1.0  0.50000  0.03709  0.88507  1.0000 -0.5256849553
O   O63       1.0  0.11493  0.50000  0.03709  1.0000 -0.5256849553
O   O64       1.0  0.88507  0.50000  0.96291  1.0000 -0.5256849553
O   O65       1.0  0.11493  0.50000  0.96291  1.0000 -0.5256849553
O   O66       1.0  0.88507  0.50000  0.03709  1.0000 -0.5256849553
O   O67       1.0  0.00000  0.31367  0.46293  1.0000 -0.5193272457
O   O68       1.0  0.00000  0.68633  0.46293  1.0000 -0.5193272457
O   O69       1.0  0.00000  0.31367  0.53707  1.0000 -0.5193272457
O   O70       1.0  0.00000  0.68633  0.53707  1.0000 -0.5193272457
O   O71       1.0  0.46293  0.00000  0.31367  1.0000 -0.5193272457
O   O72       1.0  0.46293  0.00000  0.68633  1.0000 -0.5193272457
O   O73       1.0  0.53707  0.00000  0.31367  1.0000 -0.5193272457
O   O74       1.0  0.53707  0.00000  0.68633  1.0000 -0.5193272457
O   O75       1.0  0.31367  0.46293  0.00000  1.0000 -0.5193272457
O   O76       1.0  0.68633  0.46293  0.00000  1.0000 -0.5193272457
O   O77       1.0  0.31367  0.53707  0.00000  1.0000 -0.5193272457
O   O78       1.0  0.68633  0.53707  0.00000  1.0000 -0.5193272457
