# DDEC6 charges by PACMAN v1.1 (https://github.com/mtap-research/PACMAN-charge/)
data_41557_2017_BFnchem2747_MOESM344_ESM_ASR_pacman
_symmetry_space_group_name_H-M   'P 1'
_cell_length_a   15.15100000
_cell_length_b   23.28200000
_cell_length_c   33.96100000
_cell_angle_alpha   90.00000000
_cell_angle_beta   90.00000000
_cell_angle_gamma   90.00000000
_symmetry_Int_Tables_number   1
_chemical_formula_structural   InH8C16(NO4)2
_chemical_formula_sum   'In16 H128.0 C256 N32.0 O128'
_cell_volume   11979.59271030
_cell_formula_units_Z   16
loop_
 _symmetry_equiv_pos_site_id
 _symmetry_equiv_pos_as_xyz
  1  'x, y, z'
loop_
 _atom_site_type_symbol
 _atom_site_label
 _atom_site_symmetry_multiplicity
 _atom_site_fract_x
 _atom_site_fract_y
 _atom_site_fract_z
 _atom_site_occupancy
 _atom_site_charge
In  In1  1  0.37500000  0.37500000  0.67793000  1.0 1.2592875134
In  In2  1  0.37500000  0.87500000  0.17793000  1.0 1.2592875134
In  In3  1  0.87500000  0.37500000  0.17793000  1.0 1.2592875134
In  In4  1  0.87500000  0.87500000  0.67793000  1.0 1.2592875134
In  In5  1  0.62500000  0.62500000  0.92793000  1.0 1.2592875134
In  In6  1  0.62500000  0.12500000  0.42793000  1.0 1.2592875134
In  In7  1  0.12500000  0.62500000  0.42793000  1.0 1.2592875134
In  In8  1  0.12500000  0.12500000  0.92793000  1.0 1.2592875134
In  In9  1  0.37500000  0.37500000  0.07207000  1.0 1.2592875134
In  In10  1  0.37500000  0.87500000  0.57207000  1.0 1.2592875134
In  In11  1  0.87500000  0.37500000  0.57207000  1.0 1.2592875134
In  In12  1  0.87500000  0.87500000  0.07207000  1.0 1.2592875134
In  In13  1  0.62500000  0.62500000  0.32207000  1.0 1.2592875134
In  In14  1  0.62500000  0.12500000  0.82207000  1.0 1.2592875134
In  In15  1  0.12500000  0.62500000  0.82207000  1.0 1.2592875134
In  In16  1  0.12500000  0.12500000  0.32207000  1.0 1.2592875134
H  H1  1  0.42290000  0.56570000  0.52180000  0.2 0.3053605478
H  H2  1  0.35670000  0.58330000  0.49030000  0.2 0.3197435872
H  H3  1  0.42290000  0.06570000  0.02180000  0.2 0.3046597462
H  H4  1  0.35670000  0.08330000  0.99030000  0.2 0.3197435872
H  H5  1  0.92290000  0.56570000  0.02180000  0.2 0.3046597462
H  H6  1  0.85670000  0.58330000  0.99030000  0.2 0.3197435872
H  H7  1  0.92290000  0.06570000  0.52180000  0.2 0.3053605478
H  H8  1  0.85670000  0.08330000  0.49030000  0.2 0.3197435872
H  H9  1  0.32710000  0.18430000  0.52180000  0.2 0.3053605478
H  H10  1  0.39330000  0.16670000  0.49030000  0.2 0.3197435872
H  H11  1  0.32710000  0.68430000  0.02180000  0.2 0.3046597462
H  H12  1  0.39330000  0.66666667  0.99030000  0.2 0.3197435872
H  H13  1  0.82710000  0.18430000  0.02180000  0.2 0.3046597462
H  H14  1  0.89330000  0.16670000  0.99030000  0.2 0.3197435872
H  H15  1  0.82710000  0.68430000  0.52180000  0.2 0.3053605478
H  H16  1  0.89330000  0.66666667  0.49030000  0.2 0.3197435872
H  H17  1  0.67290000  0.43430000  0.77180000  0.2 0.3046597462
H  H18  1  0.60670000  0.41670000  0.74030000  0.2 0.3197435872
H  H19  1  0.67290000  0.93430000  0.27180000  0.2 0.3053605478
H  H20  1  0.60670000  0.91670000  0.24030000  0.2 0.3197435872
H  H21  1  0.17290000  0.43430000  0.27180000  0.2 0.3053605478
H  H22  1  0.10670000  0.41670000  0.24030000  0.2 0.3197435872
H  H23  1  0.17290000  0.93430000  0.77180000  0.2 0.3046597462
H  H24  1  0.10670000  0.91670000  0.74030000  0.2 0.3197435872
H  H25  1  0.57710000  0.81570000  0.77180000  0.2 0.3046597462
H  H26  1  0.64330000  0.83330000  0.74030000  0.2 0.3197435872
H  H27  1  0.57710000  0.31570000  0.27180000  0.2 0.3053605478
H  H28  1  0.64330000  0.33333333  0.24030000  0.2 0.3197435872
H  H29  1  0.07710000  0.81570000  0.27180000  0.2 0.3053605478
H  H30  1  0.14330000  0.83330000  0.24030000  0.2 0.3197435872
H  H31  1  0.07710000  0.31570000  0.77180000  0.2 0.3046597462
H  H32  1  0.14330000  0.33333333  0.74030000  0.2 0.3197435872
H  H161  1  0.32710000  0.56570000  0.22820000  0.2 0.3046597462
H  H162  1  0.39330000  0.58330000  0.25970000  0.2 0.3197435872
H  H163  1  0.32710000  0.06570000  0.72820000  0.2 0.3046597462
H  H164  1  0.39330000  0.08330000  0.75970000  0.2 0.3197435872
H  H165  1  0.82710000  0.56570000  0.72820000  0.2 0.3046597462
H  H166  1  0.89330000  0.58330000  0.75970000  0.2 0.3197435872
H  H167  1  0.82710000  0.06570000  0.22820000  0.2 0.3046597462
H  H168  1  0.89330000  0.08330000  0.25970000  0.2 0.3197435872
H  H169  1  0.42290000  0.18430000  0.22820000  0.2 0.3046597462
H  H170  1  0.35670000  0.16670000  0.25970000  0.2 0.3197435872
H  H171  1  0.42290000  0.68430000  0.72820000  0.2 0.3046597462
H  H172  1  0.35670000  0.66666667  0.75970000  0.2 0.3197435872
H  H173  1  0.92290000  0.18430000  0.72820000  0.2 0.3046597462
H  H174  1  0.85670000  0.16670000  0.75970000  0.2 0.3197435872
H  H175  1  0.92290000  0.68430000  0.22820000  0.2 0.3046597462
H  H176  1  0.85670000  0.66666667  0.25970000  0.2 0.3197435872
H  H177  1  0.57710000  0.43430000  0.47820000  0.2 0.3053605478
H  H178  1  0.64330000  0.41670000  0.50970000  0.2 0.3197435872
H  H179  1  0.57710000  0.93430000  0.97820000  0.2 0.3053605478
H  H180  1  0.64330000  0.91670000  0.00970000  0.2 0.3197435872
H  H181  1  0.07710000  0.43430000  0.97820000  0.2 0.3053605478
H  H182  1  0.14330000  0.41670000  0.00970000  0.2 0.3197435872
H  H183  1  0.07710000  0.93430000  0.47820000  0.2 0.3046597462
H  H184  1  0.14330000  0.91670000  0.50970000  0.2 0.3197435872
H  H185  1  0.67290000  0.81570000  0.47820000  0.2 0.3053605478
H  H186  1  0.60670000  0.83330000  0.50970000  0.2 0.3197435872
H  H187  1  0.67290000  0.31570000  0.97820000  0.2 0.3053605478
H  H188  1  0.60670000  0.33333333  0.00970000  0.2 0.3197435872
H  H189  1  0.17290000  0.81570000  0.97820000  0.2 0.3053605478
H  H190  1  0.10670000  0.83330000  0.00970000  0.2 0.3197435872
H  H191  1  0.17290000  0.31570000  0.47820000  0.2 0.3053605478
H  H192  1  0.10670000  0.33333333  0.50970000  0.2 0.3197435872
H  H33  1  0.04110000  0.47350000  0.55580000  0.4 0.1415309282
H  H34  1  0.04500000  0.50980000  0.51840000  0.4 0.1261220029
H  H35  1  0.05840000  0.43430000  0.53770000  0.4 0.1261220029
H  H36  1  0.06320000  0.47480000  0.50250000  0.4 0.1212477114
H  H37  1  0.04110000  0.97350000  0.05580000  0.4 0.1415309282
H  H38  1  0.04500000  0.00980000  0.01840000  0.4 0.1261220029
H  H39  1  0.05840000  0.93430000  0.03770000  0.4 0.1212477114
H  H40  1  0.06320000  0.97480000  0.00250000  0.4 0.1212477114
H  H41  1  0.54110000  0.47350000  0.05580000  0.4 0.1415309282
H  H42  1  0.54500000  0.50980000  0.01840000  0.4 0.1261220029
H  H43  1  0.55840000  0.43430000  0.03770000  0.4 0.1212477114
H  H44  1  0.56320000  0.47480000  0.00250000  0.4 0.1212477114
H  H45  1  0.54110000  0.97350000  0.55580000  0.4 0.1415309282
H  H46  1  0.54500000  0.00980000  0.51840000  0.4 0.1261220029
H  H47  1  0.55840000  0.93430000  0.53770000  0.4 0.1261220029
H  H48  1  0.56320000  0.97480000  0.50250000  0.4 0.1212477114
H  H49  1  0.70890000  0.27650000  0.55580000  0.4 0.1415309282
H  H50  1  0.70500000  0.24020000  0.51840000  0.4 0.1261220029
H  H51  1  0.69160000  0.31570000  0.53770000  0.4 0.1261220029
H  H52  1  0.68680000  0.27520000  0.50250000  0.4 0.1212477114
H  H53  1  0.70890000  0.77650000  0.05580000  0.4 0.1415309282
H  H54  1  0.70500000  0.74020000  0.01840000  0.4 0.1261220029
H  H55  1  0.69160000  0.81570000  0.03770000  0.4 0.1212477114
H  H56  1  0.68680000  0.77520000  0.00250000  0.4 0.1212477114
H  H57  1  0.20890000  0.27650000  0.05580000  0.4 0.1415309282
H  H58  1  0.20500000  0.24020000  0.01840000  0.4 0.1261220029
H  H59  1  0.19160000  0.31570000  0.03770000  0.4 0.1212477114
H  H60  1  0.18680000  0.27520000  0.00250000  0.4 0.1212477114
H  H61  1  0.20890000  0.77650000  0.55580000  0.4 0.1415309282
H  H62  1  0.20500000  0.74020000  0.51840000  0.4 0.1261220029
H  H63  1  0.19160000  0.81570000  0.53770000  0.4 0.1261220029
H  H64  1  0.18680000  0.77520000  0.50250000  0.4 0.1212477114
H  H65  1  0.29110000  0.52650000  0.80580000  0.4 0.1415309282
H  H66  1  0.29500000  0.49020000  0.76840000  0.4 0.1261220029
H  H67  1  0.30840000  0.56570000  0.78770000  0.4 0.1261220029
H  H68  1  0.31320000  0.52520000  0.75250000  0.4 0.1212477114
H  H69  1  0.29110000  0.02650000  0.30580000  0.4 0.1415309282
H  H70  1  0.29500000  0.99020000  0.26840000  0.4 0.1261220029
H  H71  1  0.30840000  0.06570000  0.28770000  0.4 0.1261220029
H  H72  1  0.31320000  0.02520000  0.25250000  0.4 0.1212477114
H  H73  1  0.79110000  0.52650000  0.30580000  0.4 0.1415309282
H  H74  1  0.79500000  0.49020000  0.26840000  0.4 0.1261220029
H  H75  1  0.80840000  0.56570000  0.28770000  0.4 0.1212477114
H  H76  1  0.81320000  0.52520000  0.25250000  0.4 0.1212477114
H  H77  1  0.79110000  0.02650000  0.80580000  0.4 0.1415309282
H  H78  1  0.79500000  0.99020000  0.76840000  0.4 0.1261220029
H  H79  1  0.80840000  0.06570000  0.78770000  0.4 0.1212477114
H  H80  1  0.81320000  0.02520000  0.75250000  0.4 0.1212477114
H  H81  1  0.95890000  0.72350000  0.80580000  0.4 0.1415309282
H  H82  1  0.95500000  0.75980000  0.76840000  0.4 0.1261220029
H  H83  1  0.94160000  0.68430000  0.78770000  0.4 0.1212477114
H  H84  1  0.93680000  0.72480000  0.75250000  0.4 0.1212477114
H  H85  1  0.95890000  0.22350000  0.30580000  0.4 0.1415309282
H  H86  1  0.95500000  0.25980000  0.26840000  0.4 0.1261220029
H  H87  1  0.94160000  0.18430000  0.28770000  0.4 0.1212477114
H  H88  1  0.93680000  0.22480000  0.25250000  0.4 0.1212477114
H  H89  1  0.45890000  0.72350000  0.30580000  0.4 0.1415309282
H  H90  1  0.45500000  0.75980000  0.26840000  0.4 0.1261220029
H  H91  1  0.44160000  0.68430000  0.28770000  0.4 0.1261220029
H  H92  1  0.43680000  0.72480000  0.25250000  0.4 0.1212477114
H  H93  1  0.45890000  0.22350000  0.80580000  0.4 0.1415309282
H  H94  1  0.45500000  0.25980000  0.76840000  0.4 0.1261220029
H  H95  1  0.44160000  0.18430000  0.78770000  0.4 0.1212477114
H  H96  1  0.43680000  0.22480000  0.75250000  0.4 0.1212477114
H  H193  1  0.70890000  0.47350000  0.19420000  0.4 0.1415309282
H  H194  1  0.70500000  0.50980000  0.23160000  0.4 0.1261220029
H  H195  1  0.69160000  0.43430000  0.21230000  0.4 0.1212477114
H  H196  1  0.68680000  0.47480000  0.24750000  0.4 0.1212477114
H  H197  1  0.70890000  0.97350000  0.69420000  0.4 0.1415309282
H  H198  1  0.70500000  0.00980000  0.73160000  0.4 0.1261220029
H  H199  1  0.69160000  0.93430000  0.71230000  0.4 0.1212477114
H  H200  1  0.68680000  0.97480000  0.74750000  0.4 0.1212477114
H  H201  1  0.20890000  0.47350000  0.69420000  0.4 0.1415309282
H  H202  1  0.20500000  0.50980000  0.73160000  0.4 0.1261220029
H  H203  1  0.19160000  0.43430000  0.71230000  0.4 0.1261220029
H  H204  1  0.18680000  0.47480000  0.74750000  0.4 0.1212477114
H  H205  1  0.20890000  0.97350000  0.19420000  0.4 0.1415309282
H  H206  1  0.20500000  0.00980000  0.23160000  0.4 0.1261220029
H  H207  1  0.19160000  0.93430000  0.21230000  0.4 0.1212477114
H  H208  1  0.18680000  0.97480000  0.24750000  0.4 0.1212477114
H  H209  1  0.04110000  0.27650000  0.19420000  0.4 0.1415309282
H  H210  1  0.04500000  0.24020000  0.23160000  0.4 0.1261220029
H  H211  1  0.05840000  0.31570000  0.21230000  0.4 0.1212477114
H  H212  1  0.06320000  0.27520000  0.24750000  0.4 0.1212477114
H  H213  1  0.04110000  0.77650000  0.69420000  0.4 0.1415309282
H  H214  1  0.04500000  0.74020000  0.73160000  0.4 0.1261220029
H  H215  1  0.05840000  0.81570000  0.71230000  0.4 0.1261220029
H  H216  1  0.06320000  0.77520000  0.74750000  0.4 0.1212477114
H  H217  1  0.54110000  0.27650000  0.69420000  0.4 0.1415309282
H  H218  1  0.54500000  0.24020000  0.73160000  0.4 0.1261220029
H  H219  1  0.55840000  0.31570000  0.71230000  0.4 0.1212477114
H  H220  1  0.56320000  0.27520000  0.74750000  0.4 0.1212477114
H  H221  1  0.54110000  0.77650000  0.19420000  0.4 0.1415309282
H  H222  1  0.54500000  0.74020000  0.23160000  0.4 0.1261220029
H  H223  1  0.55840000  0.81570000  0.21230000  0.4 0.1212477114
H  H224  1  0.56320000  0.77520000  0.24750000  0.4 0.1212477114
H  H225  1  0.95890000  0.52650000  0.44420000  0.4 0.1415309282
H  H226  1  0.95500000  0.49020000  0.48160000  0.4 0.1212477114
H  H227  1  0.94160000  0.56570000  0.46230000  0.4 0.1212477114
H  H228  1  0.93680000  0.52520000  0.49750000  0.4 0.1212477114
H  H229  1  0.95890000  0.02650000  0.94420000  0.4 0.1415309282
H  H230  1  0.95500000  0.99020000  0.98160000  0.4 0.1261220029
H  H231  1  0.94160000  0.06570000  0.96230000  0.4 0.1212477114
H  H232  1  0.93680000  0.02520000  0.99750000  0.4 0.1212477114
H  H233  1  0.45890000  0.52650000  0.94420000  0.4 0.1415309282
H  H234  1  0.45500000  0.49020000  0.98160000  0.4 0.1261220029
H  H235  1  0.44160000  0.56570000  0.96230000  0.4 0.1261220029
H  H236  1  0.43680000  0.52520000  0.99750000  0.4 0.1212477114
H  H237  1  0.45890000  0.02650000  0.44420000  0.4 0.1415309282
H  H238  1  0.45500000  0.99020000  0.48160000  0.4 0.1261220029
H  H239  1  0.44160000  0.06570000  0.46230000  0.4 0.1212477114
H  H240  1  0.43680000  0.02520000  0.49750000  0.4 0.1212477114
H  H241  1  0.29110000  0.72350000  0.44420000  0.4 0.1415309282
H  H242  1  0.29500000  0.75980000  0.48160000  0.4 0.1261220029
H  H243  1  0.30840000  0.68430000  0.46230000  0.4 0.1212477114
H  H244  1  0.31320000  0.72480000  0.49750000  0.4 0.1212477114
H  H245  1  0.29110000  0.22350000  0.94420000  0.4 0.1415309282
H  H246  1  0.29500000  0.25980000  0.98160000  0.4 0.1261220029
H  H247  1  0.30840000  0.18430000  0.96230000  0.4 0.1261220029
H  H248  1  0.31320000  0.22480000  0.99750000  0.4 0.1212477114
H  H249  1  0.79110000  0.72350000  0.94420000  0.4 0.1415309282
H  H250  1  0.79500000  0.75980000  0.98160000  0.4 0.1261220029
H  H251  1  0.80840000  0.68430000  0.96230000  0.4 0.1261220029
H  H252  1  0.81320000  0.72480000  0.99750000  0.4 0.1212477114
H  H253  1  0.79110000  0.22350000  0.44420000  0.4 0.1415309282
H  H254  1  0.79500000  0.25980000  0.48160000  0.4 0.1261220029
H  H255  1  0.80840000  0.18430000  0.46230000  0.4 0.1212477114
H  H256  1  0.81320000  0.22480000  0.49750000  0.4 0.1212477114
H  H97  1  0.40040000  0.50890000  0.57020000  0.5 0.1415309282
H  H98  1  0.39750000  0.51440000  0.57290000  0.5 0.1415309282
H  H99  1  0.15310000  0.45550000  0.59500000  0.5 0.1030138946
H  H100  1  0.16310000  0.43430000  0.58700000  0.5 0.1030138946
H  H101  1  0.40040000  0.00890000  0.07020000  0.5 0.1415309282
H  H102  1  0.39750000  0.01440000  0.07290000  0.5 0.1415309282
H  H103  1  0.15310000  0.95550000  0.09500000  0.5 0.1030138946
H  H104  1  0.16310000  0.93430000  0.08700000  0.5 0.1030138946
H  H105  1  0.90040000  0.50890000  0.07020000  0.5 0.1415309282
H  H106  1  0.89750000  0.51440000  0.07290000  0.5 0.1415309282
H  H107  1  0.65310000  0.45550000  0.09500000  0.5 0.1030138946
H  H108  1  0.66310000  0.43430000  0.08700000  0.5 0.1030138946
H  H109  1  0.90040000  0.00890000  0.57020000  0.5 0.1415309282
H  H110  1  0.89750000  0.01440000  0.57290000  0.5 0.1415309282
H  H111  1  0.65310000  0.95550000  0.59500000  0.5 0.1030138946
H  H112  1  0.66310000  0.93430000  0.58700000  0.5 0.1030138946
H  H113  1  0.34960000  0.24110000  0.57020000  0.5 0.1415309282
H  H114  1  0.35250000  0.23560000  0.57290000  0.5 0.1415309282
H  H115  1  0.59690000  0.29450000  0.59500000  0.5 0.1030138946
H  H116  1  0.58690000  0.31570000  0.58700000  0.5 0.1030138946
H  H117  1  0.34960000  0.74110000  0.07020000  0.5 0.1415309282
H  H118  1  0.35250000  0.73560000  0.07290000  0.5 0.1415309282
H  H119  1  0.59690000  0.79450000  0.09500000  0.5 0.1030138946
H  H120  1  0.58690000  0.81570000  0.08700000  0.5 0.1030138946
H  H121  1  0.84960000  0.24110000  0.07020000  0.5 0.1415309282
H  H122  1  0.85250000  0.23560000  0.07290000  0.5 0.1415309282
H  H123  1  0.09690000  0.29450000  0.09500000  0.5 0.1030138946
H  H124  1  0.08690000  0.31570000  0.08700000  0.5 0.1030138946
H  H125  1  0.84960000  0.74110000  0.57020000  0.5 0.1415309282
H  H126  1  0.85250000  0.73560000  0.57290000  0.5 0.1415309282
H  H127  1  0.09690000  0.79450000  0.59500000  0.5 0.1030138946
H  H128  1  0.08690000  0.81570000  0.58700000  0.5 0.1030138946
H  H129  1  0.65040000  0.49110000  0.82020000  0.5 0.1415309282
H  H130  1  0.64750000  0.48560000  0.82290000  0.5 0.1415309282
H  H131  1  0.40310000  0.54450000  0.84500000  0.5 0.1030138946
H  H132  1  0.41310000  0.56570000  0.83700000  0.5 0.1030138946
H  H133  1  0.65040000  0.99110000  0.32020000  0.5 0.1415309282
H  H134  1  0.64750000  0.98560000  0.32290000  0.5 0.1415309282
H  H135  1  0.40310000  0.04450000  0.34500000  0.5 0.1030138946
H  H136  1  0.41310000  0.06570000  0.33700000  0.5 0.1030138946
H  H137  1  0.15040000  0.49110000  0.32020000  0.5 0.1415309282
H  H138  1  0.14750000  0.48560000  0.32290000  0.5 0.1415309282
H  H139  1  0.90310000  0.54450000  0.34500000  0.5 0.1030138946
H  H140  1  0.91310000  0.56570000  0.33700000  0.5 0.1030138946
H  H141  1  0.15040000  0.99110000  0.82020000  0.5 0.1415309282
H  H142  1  0.14750000  0.98560000  0.82290000  0.5 0.1415309282
H  H143  1  0.90310000  0.04450000  0.84500000  0.5 0.1030138946
H  H144  1  0.91310000  0.06570000  0.83700000  0.5 0.1030138946
H  H145  1  0.59960000  0.75890000  0.82020000  0.5 0.1415309282
H  H146  1  0.60250000  0.76440000  0.82290000  0.5 0.1415309282
H  H147  1  0.84690000  0.70550000  0.84500000  0.5 0.1030138946
H  H148  1  0.83690000  0.68430000  0.83700000  0.5 0.1030138946
H  H149  1  0.59960000  0.25890000  0.32020000  0.5 0.1415309282
H  H150  1  0.60250000  0.26440000  0.32290000  0.5 0.1415309282
H  H151  1  0.84690000  0.20550000  0.34500000  0.5 0.1030138946
H  H152  1  0.83690000  0.18430000  0.33700000  0.5 0.1030138946
H  H153  1  0.09960000  0.75890000  0.32020000  0.5 0.1415309282
H  H154  1  0.10250000  0.76440000  0.32290000  0.5 0.1415309282
H  H155  1  0.34690000  0.70550000  0.34500000  0.5 0.1030138946
H  H156  1  0.33690000  0.68430000  0.33700000  0.5 0.1030138946
H  H157  1  0.09960000  0.25890000  0.82020000  0.5 0.1415309282
H  H158  1  0.10250000  0.26440000  0.82290000  0.5 0.1415309282
H  H159  1  0.34690000  0.20550000  0.84500000  0.5 0.1030138946
H  H160  1  0.33690000  0.18430000  0.83700000  0.5 0.1030138946
H  H257  1  0.34960000  0.50890000  0.17980000  0.5 0.1415309282
H  H258  1  0.35250000  0.51440000  0.17710000  0.5 0.1415309282
H  H259  1  0.59690000  0.45550000  0.15500000  0.5 0.1030138946
H  H260  1  0.58690000  0.43430000  0.16300000  0.5 0.1030138946
H  H261  1  0.34960000  0.00890000  0.67980000  0.5 0.1415309282
H  H262  1  0.35250000  0.01440000  0.67710000  0.5 0.1415309282
H  H263  1  0.59690000  0.95550000  0.65500000  0.5 0.1030138946
H  H264  1  0.58690000  0.93430000  0.66300000  0.5 0.1030138946
H  H265  1  0.84960000  0.50890000  0.67980000  0.5 0.1415309282
H  H266  1  0.85250000  0.51440000  0.67710000  0.5 0.1415309282
H  H267  1  0.09690000  0.45550000  0.65500000  0.5 0.1030138946
H  H268  1  0.08690000  0.43430000  0.66300000  0.5 0.1030138946
H  H269  1  0.84960000  0.00890000  0.17980000  0.5 0.1415309282
H  H270  1  0.85250000  0.01440000  0.17710000  0.5 0.1415309282
H  H271  1  0.09690000  0.95550000  0.15500000  0.5 0.1030138946
H  H272  1  0.08690000  0.93430000  0.16300000  0.5 0.1030138946
H  H273  1  0.40040000  0.24110000  0.17980000  0.5 0.1415309282
H  H274  1  0.39750000  0.23560000  0.17710000  0.5 0.1415309282
H  H275  1  0.15310000  0.29450000  0.15500000  0.5 0.1030138946
H  H276  1  0.16310000  0.31570000  0.16300000  0.5 0.1030138946
H  H277  1  0.40040000  0.74110000  0.67980000  0.5 0.1415309282
H  H278  1  0.39750000  0.73560000  0.67710000  0.5 0.1415309282
H  H279  1  0.15310000  0.79450000  0.65500000  0.5 0.1030138946
H  H280  1  0.16310000  0.81570000  0.66300000  0.5 0.1030138946
H  H281  1  0.90040000  0.24110000  0.67980000  0.5 0.1415309282
H  H282  1  0.89750000  0.23560000  0.67710000  0.5 0.1415309282
H  H283  1  0.65310000  0.29450000  0.65500000  0.5 0.1030138946
H  H284  1  0.66310000  0.31570000  0.66300000  0.5 0.1030138946
H  H285  1  0.90040000  0.74110000  0.17980000  0.5 0.1415309282
H  H286  1  0.89750000  0.73560000  0.17710000  0.5 0.1415309282
H  H287  1  0.65310000  0.79450000  0.15500000  0.5 0.1030138946
H  H288  1  0.66310000  0.81570000  0.16300000  0.5 0.1030138946
H  H289  1  0.59960000  0.49110000  0.42980000  0.5 0.1415309282
H  H290  1  0.60250000  0.48560000  0.42710000  0.5 0.1415309282
H  H291  1  0.84690000  0.54450000  0.40500000  0.5 0.1030138946
H  H292  1  0.83690000  0.56570000  0.41300000  0.5 0.1030138946
H  H293  1  0.59960000  0.99110000  0.92980000  0.5 0.1415309282
H  H294  1  0.60250000  0.98560000  0.92710000  0.5 0.1415309282
H  H295  1  0.84690000  0.04450000  0.90500000  0.5 0.1030138946
H  H296  1  0.83690000  0.06570000  0.91300000  0.5 0.1030138946
H  H297  1  0.09960000  0.49110000  0.92980000  0.5 0.1415309282
H  H298  1  0.10250000  0.48560000  0.92710000  0.5 0.1415309282
H  H299  1  0.34690000  0.54450000  0.90500000  0.5 0.1030138946
H  H300  1  0.33690000  0.56570000  0.91300000  0.5 0.1030138946
H  H301  1  0.09960000  0.99110000  0.42980000  0.5 0.1415309282
H  H302  1  0.10250000  0.98560000  0.42710000  0.5 0.1415309282
H  H303  1  0.34690000  0.04450000  0.40500000  0.5 0.1030138946
H  H304  1  0.33690000  0.06570000  0.41300000  0.5 0.1030138946
H  H305  1  0.65040000  0.75890000  0.42980000  0.5 0.1415309282
H  H306  1  0.64750000  0.76440000  0.42710000  0.5 0.1415309282
H  H307  1  0.40310000  0.70550000  0.40500000  0.5 0.1030138946
H  H308  1  0.41310000  0.68430000  0.41300000  0.5 0.1030138946
H  H309  1  0.65040000  0.25890000  0.92980000  0.5 0.1415309282
H  H310  1  0.64750000  0.26440000  0.92710000  0.5 0.1415309282
H  H311  1  0.40310000  0.20550000  0.90500000  0.5 0.1030138946
H  H312  1  0.41310000  0.18430000  0.91300000  0.5 0.1030138946
H  H313  1  0.15040000  0.75890000  0.92980000  0.5 0.1415309282
H  H314  1  0.14750000  0.76440000  0.92710000  0.5 0.1415309282
H  H315  1  0.90310000  0.70550000  0.90500000  0.5 0.1030138946
H  H316  1  0.91310000  0.68430000  0.91300000  0.5 0.1030138946
H  H317  1  0.15040000  0.25890000  0.42980000  0.5 0.1415309282
H  H318  1  0.14750000  0.26440000  0.42710000  0.5 0.1415309282
H  H319  1  0.90310000  0.20550000  0.40500000  0.5 0.1030138946
H  H320  1  0.91310000  0.18430000  0.41300000  0.5 0.1030138946
C  C1  1  0.31520000  0.44310000  0.62240000  1.0 0.4060305242
C  C2  1  0.30720000  0.53370000  0.52990000  1.0 0.2177006189
C  C3  1  0.33950000  0.50680000  0.56380000  1.0 -0.2270582187
C  C4  1  0.18860000  0.55720000  0.48310000  1.0 0.4210476304
C  C5  1  0.31520000  0.94310000  0.12240000  1.0 0.4060305242
C  C6  1  0.30720000  0.03370000  0.02990000  1.0 0.2177006189
C  C7  1  0.33950000  0.00680000  0.06380000  1.0 -0.2270582187
C  C8  1  0.18860000  0.05720000  0.98310000  1.0 0.4210476304
C  C9  1  0.81520000  0.44310000  0.12240000  1.0 0.4060305242
C  C10  1  0.80720000  0.53370000  0.02990000  1.0 0.2177006189
C  C11  1  0.83950000  0.50680000  0.06380000  1.0 -0.2270582187
C  C12  1  0.68860000  0.55720000  0.98310000  1.0 0.4210476304
C  C13  1  0.81520000  0.94310000  0.62240000  1.0 0.4060305242
C  C14  1  0.80720000  0.03370000  0.52990000  1.0 0.2177006189
C  C15  1  0.83950000  0.00680000  0.56380000  1.0 -0.2270582187
C  C16  1  0.68860000  0.05720000  0.48310000  1.0 0.4210476304
C  C17  1  0.43480000  0.30690000  0.62240000  1.0 0.4060305242
C  C18  1  0.44280000  0.21630000  0.52990000  1.0 0.2177006189
C  C19  1  0.41050000  0.24320000  0.56380000  1.0 -0.2270582187
C  C20  1  0.56140000  0.19280000  0.48310000  1.0 0.4210476304
C  C21  1  0.43480000  0.80690000  0.12240000  1.0 0.4060305242
C  C22  1  0.44280000  0.71630000  0.02990000  1.0 0.2177006189
C  C23  1  0.41050000  0.74320000  0.06380000  1.0 -0.2270582187
C  C24  1  0.56140000  0.69280000  0.98310000  1.0 0.4210476304
C  C25  1  0.93480000  0.30690000  0.12240000  1.0 0.4060305242
C  C26  1  0.94280000  0.21630000  0.02990000  1.0 0.2177006189
C  C27  1  0.91050000  0.24320000  0.06380000  1.0 -0.2270582187
C  C28  1  0.06140000  0.19280000  0.98310000  1.0 0.4210476304
C  C29  1  0.93480000  0.80690000  0.62240000  1.0 0.4060305242
C  C30  1  0.94280000  0.71630000  0.52990000  1.0 0.2177006189
C  C31  1  0.91050000  0.74320000  0.56380000  1.0 -0.2270582187
C  C32  1  0.06140000  0.69280000  0.48310000  1.0 0.4210476304
C  C33  1  0.56520000  0.55690000  0.87240000  1.0 0.4060305242
C  C34  1  0.55720000  0.46630000  0.77990000  1.0 0.2177006189
C  C35  1  0.58950000  0.49320000  0.81380000  1.0 -0.2270582187
C  C36  1  0.43860000  0.44280000  0.73310000  1.0 0.4210476304
C  C37  1  0.56520000  0.05690000  0.37240000  1.0 0.4060305242
C  C38  1  0.55720000  0.96630000  0.27990000  1.0 0.2177006189
C  C39  1  0.58950000  0.99320000  0.31380000  1.0 -0.2270582187
C  C40  1  0.43860000  0.94280000  0.23310000  1.0 0.4210476304
C  C41  1  0.06520000  0.55690000  0.37240000  1.0 0.4060305242
C  C42  1  0.05720000  0.46630000  0.27990000  1.0 0.2177006189
C  C43  1  0.08950000  0.49320000  0.31380000  1.0 -0.2270582187
C  C44  1  0.93860000  0.44280000  0.23310000  1.0 0.4210476304
C  C45  1  0.06520000  0.05690000  0.87240000  1.0 0.4060305242
C  C46  1  0.05720000  0.96630000  0.77990000  1.0 0.2177006189
C  C47  1  0.08950000  0.99320000  0.81380000  1.0 -0.2270582187
C  C48  1  0.93860000  0.94280000  0.73310000  1.0 0.4210476304
C  C49  1  0.68480000  0.69310000  0.87240000  1.0 0.4060305242
C  C50  1  0.69280000  0.78370000  0.77990000  1.0 0.2177006189
C  C51  1  0.66050000  0.75680000  0.81380000  1.0 -0.2270582187
C  C52  1  0.81140000  0.80720000  0.73310000  1.0 0.4210476304
C  C53  1  0.68480000  0.19310000  0.37240000  1.0 0.4060305242
C  C54  1  0.69280000  0.28370000  0.27990000  1.0 0.2177006189
C  C55  1  0.66050000  0.25680000  0.31380000  1.0 -0.2270582187
C  C56  1  0.81140000  0.30720000  0.23310000  1.0 0.4210476304
C  C57  1  0.18480000  0.69310000  0.37240000  1.0 0.4060305242
C  C58  1  0.19280000  0.78370000  0.27990000  1.0 0.2177006189
C  C59  1  0.16050000  0.75680000  0.31380000  1.0 -0.2270582187
C  C60  1  0.31140000  0.80720000  0.23310000  1.0 0.4210476304
C  C61  1  0.18480000  0.19310000  0.87240000  1.0 0.4060305242
C  C62  1  0.19280000  0.28370000  0.77990000  1.0 0.2177006189
C  C63  1  0.16050000  0.25680000  0.81380000  1.0 -0.2270582187
C  C64  1  0.31140000  0.30720000  0.73310000  1.0 0.4210476304
C  C193  1  0.43480000  0.44310000  0.12760000  1.0 0.4060305242
C  C194  1  0.44280000  0.53370000  0.22010000  1.0 0.2177006189
C  C195  1  0.41050000  0.50680000  0.18620000  1.0 -0.2270582187
C  C196  1  0.56140000  0.55720000  0.26690000  1.0 0.4210476304
C  C197  1  0.43480000  0.94310000  0.62760000  1.0 0.4060305242
C  C198  1  0.44280000  0.03370000  0.72010000  1.0 0.2177006189
C  C199  1  0.41050000  0.00680000  0.68620000  1.0 -0.2270582187
C  C200  1  0.56140000  0.05720000  0.76690000  1.0 0.4210476304
C  C201  1  0.93480000  0.44310000  0.62760000  1.0 0.4060305242
C  C202  1  0.94280000  0.53370000  0.72010000  1.0 0.2177006189
C  C203  1  0.91050000  0.50680000  0.68620000  1.0 -0.2270582187
C  C204  1  0.06140000  0.55720000  0.76690000  1.0 0.4210476304
C  C205  1  0.93480000  0.94310000  0.12760000  1.0 0.4060305242
C  C206  1  0.94280000  0.03370000  0.22010000  1.0 0.2177006189
C  C207  1  0.91050000  0.00680000  0.18620000  1.0 -0.2270582187
C  C208  1  0.06140000  0.05720000  0.26690000  1.0 0.4210476304
C  C209  1  0.31520000  0.30690000  0.12760000  1.0 0.4060305242
C  C210  1  0.30720000  0.21630000  0.22010000  1.0 0.2177006189
C  C211  1  0.33950000  0.24320000  0.18620000  1.0 -0.2270582187
C  C212  1  0.18860000  0.19280000  0.26690000  1.0 0.4210476304
C  C213  1  0.31520000  0.80690000  0.62760000  1.0 0.4060305242
C  C214  1  0.30720000  0.71630000  0.72010000  1.0 0.2177006189
C  C215  1  0.33950000  0.74320000  0.68620000  1.0 -0.2270582187
C  C216  1  0.18860000  0.69280000  0.76690000  1.0 0.4210476304
C  C217  1  0.81520000  0.30690000  0.62760000  1.0 0.4060305242
C  C218  1  0.80720000  0.21630000  0.72010000  1.0 0.2177006189
C  C219  1  0.83950000  0.24320000  0.68620000  1.0 -0.2270582187
C  C220  1  0.68860000  0.19280000  0.76690000  1.0 0.4210476304
C  C221  1  0.81520000  0.80690000  0.12760000  1.0 0.4060305242
C  C222  1  0.80720000  0.71630000  0.22010000  1.0 0.2177006189
C  C223  1  0.83950000  0.74320000  0.18620000  1.0 -0.2270582187
C  C224  1  0.68860000  0.69280000  0.26690000  1.0 0.4210476304
C  C225  1  0.68480000  0.55690000  0.37760000  1.0 0.4060305242
C  C226  1  0.69280000  0.46630000  0.47010000  1.0 0.2177006189
C  C227  1  0.66050000  0.49320000  0.43620000  1.0 -0.2270582187
C  C228  1  0.81140000  0.44280000  0.51690000  1.0 0.4210476304
C  C229  1  0.68480000  0.05690000  0.87760000  1.0 0.4060305242
C  C230  1  0.69280000  0.96630000  0.97010000  1.0 0.2177006189
C  C231  1  0.66050000  0.99320000  0.93620000  1.0 -0.2270582187
C  C232  1  0.81140000  0.94280000  0.01690000  1.0 0.4210476304
C  C233  1  0.18480000  0.55690000  0.87760000  1.0 0.4060305242
C  C234  1  0.19280000  0.46630000  0.97010000  1.0 0.2177006189
C  C235  1  0.16050000  0.49320000  0.93620000  1.0 -0.2270582187
C  C236  1  0.31140000  0.44280000  0.01690000  1.0 0.4210476304
C  C237  1  0.18480000  0.05690000  0.37760000  1.0 0.4060305242
C  C238  1  0.19280000  0.96630000  0.47010000  1.0 0.2177006189
C  C239  1  0.16050000  0.99320000  0.43620000  1.0 -0.2270582187
C  C240  1  0.31140000  0.94280000  0.51690000  1.0 0.4210476304
C  C241  1  0.56520000  0.69310000  0.37760000  1.0 0.4060305242
C  C242  1  0.55720000  0.78370000  0.47010000  1.0 0.2177006189
C  C243  1  0.58950000  0.75680000  0.43620000  1.0 -0.2270582187
C  C244  1  0.43860000  0.80720000  0.51690000  1.0 0.4210476304
C  C245  1  0.56520000  0.19310000  0.87760000  1.0 0.4060305242
C  C246  1  0.55720000  0.28370000  0.97010000  1.0 0.2177006189
C  C247  1  0.58950000  0.25680000  0.93620000  1.0 -0.2270582187
C  C248  1  0.43860000  0.30720000  0.01690000  1.0 0.4210476304
C  C249  1  0.06520000  0.69310000  0.87760000  1.0 0.4060305242
C  C250  1  0.05720000  0.78370000  0.97010000  1.0 0.2177006189
C  C251  1  0.08950000  0.75680000  0.93620000  1.0 -0.2270582187
C  C252  1  0.93860000  0.80720000  0.01690000  1.0 0.4210476304
C  C253  1  0.06520000  0.19310000  0.37760000  1.0 0.4060305242
C  C254  1  0.05720000  0.28370000  0.47010000  1.0 0.2177006189
C  C255  1  0.08950000  0.25680000  0.43620000  1.0 -0.2270582187
C  C256  1  0.93860000  0.30720000  0.51690000  1.0 0.4210476304
C  C65  1  0.28330000  0.47770000  0.58740000  0.5 -0.0029774512
C  C66  1  0.19250000  0.47560000  0.57820000  0.5 -0.0942756776
C  C67  1  0.16000000  0.50260000  0.54460000  0.5 0.1212477114
C  C68  1  0.21880000  0.53370000  0.52020000  0.5 -0.157231415
C  C69  1  0.28220000  0.46650000  0.58500000  0.5 -0.0210924138
C  C70  1  0.20130000  0.45810000  0.57200000  0.5 -0.0951824415
C  C71  1  0.16950000  0.48180000  0.53780000  0.5 0.1261220029
C  C72  1  0.22210000  0.51990000  0.51690000  0.5 -0.1423499499
C  C73  1  0.28330000  0.97770000  0.08740000  0.5 -0.0029774512
C  C74  1  0.19250000  0.97560000  0.07820000  0.5 -0.0942756776
C  C75  1  0.16000000  0.00260000  0.04460000  0.5 0.1212477114
C  C76  1  0.21880000  0.03370000  0.02020000  0.5 -0.157231415
C  C77  1  0.28220000  0.96650000  0.08500000  0.5 -0.0210924138
C  C78  1  0.20130000  0.95810000  0.07200000  0.5 -0.0942756776
C  C79  1  0.16950000  0.98180000  0.03780000  0.5 0.1261220029
C  C80  1  0.22210000  0.01990000  0.01690000  0.5 -0.1423499499
C  C81  1  0.78330000  0.47770000  0.08740000  0.5 -0.0029774512
C  C82  1  0.69250000  0.47560000  0.07820000  0.5 -0.0942756776
C  C83  1  0.66000000  0.50260000  0.04460000  0.5 0.1212477114
C  C84  1  0.71880000  0.53370000  0.02020000  0.5 -0.157231415
C  C85  1  0.78220000  0.46650000  0.08500000  0.5 -0.0210924138
C  C86  1  0.70130000  0.45810000  0.07200000  0.5 -0.0942756776
C  C87  1  0.66950000  0.48180000  0.03780000  0.5 0.1261220029
C  C88  1  0.72210000  0.51990000  0.01690000  0.5 -0.1423499499
C  C89  1  0.78330000  0.97770000  0.58740000  0.5 -0.0029774512
C  C90  1  0.69250000  0.97560000  0.57820000  0.5 -0.0942756776
C  C91  1  0.66000000  0.00260000  0.54460000  0.5 0.1212477114
C  C92  1  0.71880000  0.03370000  0.52020000  0.5 -0.157231415
C  C93  1  0.78220000  0.96650000  0.58500000  0.5 -0.0210924138
C  C94  1  0.70130000  0.95810000  0.57200000  0.5 -0.0942756776
C  C95  1  0.66950000  0.98180000  0.53780000  0.5 0.1261220029
C  C96  1  0.72210000  0.01990000  0.51690000  0.5 -0.1423499499
C  C97  1  0.46670000  0.27230000  0.58740000  0.5 -0.0029774512
C  C98  1  0.55750000  0.27440000  0.57820000  0.5 -0.0942756776
C  C99  1  0.59000000  0.24740000  0.54460000  0.5 0.1212477114
C  C100  1  0.53120000  0.21630000  0.52020000  0.5 -0.157231415
C  C101  1  0.46780000  0.28350000  0.58500000  0.5 -0.0210924138
C  C102  1  0.54870000  0.29190000  0.57200000  0.5 -0.0951824415
C  C103  1  0.58050000  0.26820000  0.53780000  0.5 0.1261220029
C  C104  1  0.52790000  0.23010000  0.51690000  0.5 -0.1423499499
C  C105  1  0.46670000  0.77230000  0.08740000  0.5 -0.0029774512
C  C106  1  0.55750000  0.77440000  0.07820000  0.5 -0.0942756776
C  C107  1  0.59000000  0.74740000  0.04460000  0.5 0.1212477114
C  C108  1  0.53120000  0.71630000  0.02020000  0.5 -0.157231415
C  C109  1  0.46780000  0.78350000  0.08500000  0.5 -0.0210924138
C  C110  1  0.54870000  0.79190000  0.07200000  0.5 -0.0942756776
C  C111  1  0.58050000  0.76820000  0.03780000  0.5 0.1261220029
C  C112  1  0.52790000  0.73010000  0.01690000  0.5 -0.1423499499
C  C113  1  0.96670000  0.27230000  0.08740000  0.5 -0.0029774512
C  C114  1  0.05750000  0.27440000  0.07820000  0.5 -0.0942756776
C  C115  1  0.09000000  0.24740000  0.04460000  0.5 0.1212477114
C  C116  1  0.03120000  0.21630000  0.02020000  0.5 -0.157231415
C  C117  1  0.96780000  0.28350000  0.08500000  0.5 -0.0210924138
C  C118  1  0.04870000  0.29190000  0.07200000  0.5 -0.0951824415
C  C119  1  0.08050000  0.26820000  0.03780000  0.5 0.1261220029
C  C120  1  0.02790000  0.23010000  0.01690000  0.5 -0.1423499499
C  C121  1  0.96670000  0.77230000  0.58740000  0.5 -0.0029774512
C  C122  1  0.05750000  0.77440000  0.57820000  0.5 -0.0942756776
C  C123  1  0.09000000  0.74740000  0.54460000  0.5 0.1212477114
C  C124  1  0.03120000  0.71630000  0.52020000  0.5 -0.157231415
C  C125  1  0.96780000  0.78350000  0.58500000  0.5 -0.0210924138
C  C126  1  0.04870000  0.79190000  0.57200000  0.5 -0.0942756776
C  C127  1  0.08050000  0.76820000  0.53780000  0.5 0.1261220029
C  C128  1  0.02790000  0.73010000  0.51690000  0.5 -0.1423499499
C  C129  1  0.53330000  0.52230000  0.83740000  0.5 -0.0029774512
C  C130  1  0.44250000  0.52440000  0.82820000  0.5 -0.0942756776
C  C131  1  0.41000000  0.49740000  0.79460000  0.5 0.1212477114
C  C132  1  0.46880000  0.46630000  0.77020000  0.5 -0.157231415
C  C133  1  0.53220000  0.53350000  0.83500000  0.5 -0.0210924138
C  C134  1  0.45130000  0.54190000  0.82200000  0.5 -0.0942756776
C  C135  1  0.41950000  0.51820000  0.78780000  0.5 0.1261220029
C  C136  1  0.47210000  0.48010000  0.76690000  0.5 -0.1423499499
C  C137  1  0.53330000  0.02230000  0.33740000  0.5 -0.0029774512
C  C138  1  0.44250000  0.02440000  0.32820000  0.5 -0.0942756776
C  C139  1  0.41000000  0.99740000  0.29460000  0.5 0.1212477114
C  C140  1  0.46880000  0.96630000  0.27020000  0.5 -0.157231415
C  C141  1  0.53220000  0.03350000  0.33500000  0.5 -0.0210924138
C  C142  1  0.45130000  0.04190000  0.32200000  0.5 -0.0942756776
C  C143  1  0.41950000  0.01820000  0.28780000  0.5 0.1261220029
C  C144  1  0.47210000  0.98010000  0.26690000  0.5 -0.1423499499
C  C145  1  0.03330000  0.52230000  0.33740000  0.5 -0.0029774512
C  C146  1  0.94250000  0.52440000  0.32820000  0.5 -0.0942756776
C  C147  1  0.91000000  0.49740000  0.29460000  0.5 0.1212477114
C  C148  1  0.96880000  0.46630000  0.27020000  0.5 -0.157231415
C  C149  1  0.03220000  0.53350000  0.33500000  0.5 -0.0210924138
C  C150  1  0.95130000  0.54190000  0.32200000  0.5 -0.0942756776
C  C151  1  0.91950000  0.51820000  0.28780000  0.5 0.1261220029
C  C152  1  0.97210000  0.48010000  0.26690000  0.5 -0.1423499499
C  C153  1  0.03330000  0.02230000  0.83740000  0.5 -0.0029774512
C  C154  1  0.94250000  0.02440000  0.82820000  0.5 -0.0942756776
C  C155  1  0.91000000  0.99740000  0.79460000  0.5 0.1261220029
C  C156  1  0.96880000  0.96630000  0.77020000  0.5 -0.157231415
C  C157  1  0.03220000  0.03350000  0.83500000  0.5 -0.0210924138
C  C158  1  0.95130000  0.04190000  0.82200000  0.5 -0.0942756776
C  C159  1  0.91950000  0.01820000  0.78780000  0.5 0.1261220029
C  C160  1  0.97210000  0.98010000  0.76690000  0.5 -0.1423499499
C  C161  1  0.71670000  0.72770000  0.83740000  0.5 -0.0029774512
C  C162  1  0.80750000  0.72560000  0.82820000  0.5 -0.0942756776
C  C163  1  0.84000000  0.75260000  0.79460000  0.5 0.1212477114
C  C164  1  0.78120000  0.78370000  0.77020000  0.5 -0.157231415
C  C165  1  0.71780000  0.71650000  0.83500000  0.5 -0.0210924138
C  C166  1  0.79870000  0.70810000  0.82200000  0.5 -0.0942756776
C  C167  1  0.83050000  0.73180000  0.78780000  0.5 0.1261220029
C  C168  1  0.77790000  0.76990000  0.76690000  0.5 -0.1423499499
C  C169  1  0.71670000  0.22770000  0.33740000  0.5 -0.0029774512
C  C170  1  0.80750000  0.22560000  0.32820000  0.5 -0.0942756776
C  C171  1  0.84000000  0.25260000  0.29460000  0.5 0.1212477114
C  C172  1  0.78120000  0.28370000  0.27020000  0.5 -0.157231415
C  C173  1  0.71780000  0.21650000  0.33500000  0.5 -0.0210924138
C  C174  1  0.79870000  0.20810000  0.32200000  0.5 -0.0942756776
C  C175  1  0.83050000  0.23180000  0.28780000  0.5 0.1261220029
C  C176  1  0.77790000  0.26990000  0.26690000  0.5 -0.1423499499
C  C177  1  0.21670000  0.72770000  0.33740000  0.5 -0.0029774512
C  C178  1  0.30750000  0.72560000  0.32820000  0.5 -0.0942756776
C  C179  1  0.34000000  0.75260000  0.29460000  0.5 0.1212477114
C  C180  1  0.28120000  0.78370000  0.27020000  0.5 -0.157231415
C  C181  1  0.21780000  0.71650000  0.33500000  0.5 -0.0210924138
C  C182  1  0.29870000  0.70810000  0.32200000  0.5 -0.0942756776
C  C183  1  0.33050000  0.73180000  0.28780000  0.5 0.1261220029
C  C184  1  0.27790000  0.76990000  0.26690000  0.5 -0.1423499499
C  C185  1  0.21670000  0.22770000  0.83740000  0.5 -0.0029774512
C  C186  1  0.30750000  0.22560000  0.82820000  0.5 -0.0942756776
C  C187  1  0.34000000  0.25260000  0.79460000  0.5 0.1212477114
C  C188  1  0.28120000  0.28370000  0.77020000  0.5 -0.157231415
C  C189  1  0.21780000  0.21650000  0.83500000  0.5 -0.0210924138
C  C190  1  0.29870000  0.20810000  0.82200000  0.5 -0.0951824415
C  C191  1  0.33050000  0.23180000  0.78780000  0.5 0.1261220029
C  C192  1  0.27790000  0.26990000  0.76690000  0.5 -0.1423499499
C  C257  1  0.46670000  0.47770000  0.16260000  0.5 -0.0029774512
C  C258  1  0.55750000  0.47560000  0.17180000  0.5 -0.0942756776
C  C259  1  0.59000000  0.50260000  0.20540000  0.5 0.1212477114
C  C260  1  0.53120000  0.53370000  0.22980000  0.5 -0.157231415
C  C261  1  0.46780000  0.46650000  0.16500000  0.5 -0.0210924138
C  C262  1  0.54870000  0.45810000  0.17800000  0.5 -0.0942756776
C  C263  1  0.58050000  0.48180000  0.21220000  0.5 0.1261220029
C  C264  1  0.52790000  0.51990000  0.23310000  0.5 -0.1423499499
C  C265  1  0.46670000  0.97770000  0.66260000  0.5 -0.0029774512
C  C266  1  0.55750000  0.97560000  0.67180000  0.5 -0.0942756776
C  C267  1  0.59000000  0.00260000  0.70540000  0.5 0.1212477114
C  C268  1  0.53120000  0.03370000  0.72980000  0.5 -0.157231415
C  C269  1  0.46780000  0.96650000  0.66500000  0.5 -0.0210924138
C  C270  1  0.54870000  0.95810000  0.67800000  0.5 -0.0942756776
C  C271  1  0.58050000  0.98180000  0.71220000  0.5 0.1261220029
C  C272  1  0.52790000  0.01990000  0.73310000  0.5 -0.1423499499
C  C273  1  0.96670000  0.47770000  0.66260000  0.5 -0.0029774512
C  C274  1  0.05750000  0.47560000  0.67180000  0.5 -0.0942756776
C  C275  1  0.09000000  0.50260000  0.70540000  0.5 0.1212477114
C  C276  1  0.03120000  0.53370000  0.72980000  0.5 -0.157231415
C  C277  1  0.96780000  0.46650000  0.66500000  0.5 -0.0210924138
C  C278  1  0.04870000  0.45810000  0.67800000  0.5 -0.0942756776
C  C279  1  0.08050000  0.48180000  0.71220000  0.5 0.1261220029
C  C280  1  0.02790000  0.51990000  0.73310000  0.5 -0.1423499499
C  C281  1  0.96670000  0.97770000  0.16260000  0.5 -0.0029774512
C  C282  1  0.05750000  0.97560000  0.17180000  0.5 -0.0942756776
C  C283  1  0.09000000  0.00260000  0.20540000  0.5 0.1212477114
C  C284  1  0.03120000  0.03370000  0.22980000  0.5 -0.157231415
C  C285  1  0.96780000  0.96650000  0.16500000  0.5 -0.0210924138
C  C286  1  0.04870000  0.95810000  0.17800000  0.5 -0.0942756776
C  C287  1  0.08050000  0.98180000  0.21220000  0.5 0.1261220029
C  C288  1  0.02790000  0.01990000  0.23310000  0.5 -0.1423499499
C  C289  1  0.28330000  0.27230000  0.16260000  0.5 -0.0029774512
C  C290  1  0.19250000  0.27440000  0.17180000  0.5 -0.0942756776
C  C291  1  0.16000000  0.24740000  0.20540000  0.5 0.1212477114
C  C292  1  0.21880000  0.21630000  0.22980000  0.5 -0.157231415
C  C293  1  0.28220000  0.28350000  0.16500000  0.5 -0.0210924138
C  C294  1  0.20130000  0.29190000  0.17800000  0.5 -0.0942756776
C  C295  1  0.16950000  0.26820000  0.21220000  0.5 0.1261220029
C  C296  1  0.22210000  0.23010000  0.23310000  0.5 -0.1423499499
C  C297  1  0.28330000  0.77230000  0.66260000  0.5 -0.0029774512
C  C298  1  0.19250000  0.77440000  0.67180000  0.5 -0.0942756776
C  C299  1  0.16000000  0.74740000  0.70540000  0.5 0.1212477114
C  C300  1  0.21880000  0.71630000  0.72980000  0.5 -0.157231415
C  C301  1  0.28220000  0.78350000  0.66500000  0.5 -0.0210924138
C  C302  1  0.20130000  0.79190000  0.67800000  0.5 -0.0942756776
C  C303  1  0.16950000  0.76820000  0.71220000  0.5 0.1261220029
C  C304  1  0.22210000  0.73010000  0.73310000  0.5 -0.1423499499
C  C305  1  0.78330000  0.27230000  0.66260000  0.5 -0.0029774512
C  C306  1  0.69250000  0.27440000  0.67180000  0.5 -0.0942756776
C  C307  1  0.66000000  0.24740000  0.70540000  0.5 0.1212477114
C  C308  1  0.71880000  0.21630000  0.72980000  0.5 -0.157231415
C  C309  1  0.78220000  0.28350000  0.66500000  0.5 -0.0210924138
C  C310  1  0.70130000  0.29190000  0.67800000  0.5 -0.0942756776
C  C311  1  0.66950000  0.26820000  0.71220000  0.5 0.1261220029
C  C312  1  0.72210000  0.23010000  0.73310000  0.5 -0.1423499499
C  C313  1  0.78330000  0.77230000  0.16260000  0.5 -0.0029774512
C  C314  1  0.69250000  0.77440000  0.17180000  0.5 -0.0942756776
C  C315  1  0.66000000  0.74740000  0.20540000  0.5 0.1212477114
C  C316  1  0.71880000  0.71630000  0.22980000  0.5 -0.157231415
C  C317  1  0.78220000  0.78350000  0.16500000  0.5 -0.0210924138
C  C318  1  0.70130000  0.79190000  0.17800000  0.5 -0.0942756776
C  C319  1  0.66950000  0.76820000  0.21220000  0.5 0.1261220029
C  C320  1  0.72210000  0.73010000  0.23310000  0.5 -0.1423499499
C  C321  1  0.71670000  0.52230000  0.41260000  0.5 -0.0029774512
C  C322  1  0.80750000  0.52440000  0.42180000  0.5 -0.0942756776
C  C323  1  0.84000000  0.49740000  0.45540000  0.5 0.1212477114
C  C324  1  0.78120000  0.46630000  0.47980000  0.5 -0.157231415
C  C325  1  0.71780000  0.53350000  0.41500000  0.5 -0.0210924138
C  C326  1  0.79870000  0.54190000  0.42800000  0.5 -0.0942756776
C  C327  1  0.83050000  0.51820000  0.46220000  0.5 0.1261220029
C  C328  1  0.77790000  0.48010000  0.48310000  0.5 -0.1423499499
C  C329  1  0.71670000  0.02230000  0.91260000  0.5 -0.0029774512
C  C330  1  0.80750000  0.02440000  0.92180000  0.5 -0.0942756776
C  C331  1  0.84000000  0.99740000  0.95540000  0.5 0.1261220029
C  C332  1  0.78120000  0.96630000  0.97980000  0.5 -0.157231415
C  C333  1  0.71780000  0.03350000  0.91500000  0.5 -0.0210924138
C  C334  1  0.79870000  0.04190000  0.92800000  0.5 -0.0942756776
C  C335  1  0.83050000  0.01820000  0.96220000  0.5 0.1261220029
C  C336  1  0.77790000  0.98010000  0.98310000  0.5 -0.1423499499
C  C337  1  0.21670000  0.52230000  0.91260000  0.5 -0.0029774512
C  C338  1  0.30750000  0.52440000  0.92180000  0.5 -0.0942756776
C  C339  1  0.34000000  0.49740000  0.95540000  0.5 0.1212477114
C  C340  1  0.28120000  0.46630000  0.97980000  0.5 -0.157231415
C  C341  1  0.21780000  0.53350000  0.91500000  0.5 -0.0210924138
C  C342  1  0.29870000  0.54190000  0.92800000  0.5 -0.0942756776
C  C343  1  0.33050000  0.51820000  0.96220000  0.5 0.1261220029
C  C344  1  0.27790000  0.48010000  0.98310000  0.5 -0.1423499499
C  C345  1  0.21670000  0.02230000  0.41260000  0.5 -0.0029774512
C  C346  1  0.30750000  0.02440000  0.42180000  0.5 -0.0942756776
C  C347  1  0.34000000  0.99740000  0.45540000  0.5 0.1261220029
C  C348  1  0.28120000  0.96630000  0.47980000  0.5 -0.157231415
C  C349  1  0.21780000  0.03350000  0.41500000  0.5 -0.0210924138
C  C350  1  0.29870000  0.04190000  0.42800000  0.5 -0.0942756776
C  C351  1  0.33050000  0.01820000  0.46220000  0.5 0.1261220029
C  C352  1  0.27790000  0.98010000  0.48310000  0.5 -0.1423499499
C  C353  1  0.53330000  0.72770000  0.41260000  0.5 -0.0029774512
C  C354  1  0.44250000  0.72560000  0.42180000  0.5 -0.0942756776
C  C355  1  0.41000000  0.75260000  0.45540000  0.5 0.1261220029
C  C356  1  0.46880000  0.78370000  0.47980000  0.5 -0.157231415
C  C357  1  0.53220000  0.71650000  0.41500000  0.5 -0.0210924138
C  C358  1  0.45130000  0.70810000  0.42800000  0.5 -0.0942756776
C  C359  1  0.41950000  0.73180000  0.46220000  0.5 0.1261220029
C  C360  1  0.47210000  0.76990000  0.48310000  0.5 -0.1423499499
C  C361  1  0.53330000  0.22770000  0.91260000  0.5 -0.0029774512
C  C362  1  0.44250000  0.22560000  0.92180000  0.5 -0.0942756776
C  C363  1  0.41000000  0.25260000  0.95540000  0.5 0.1212477114
C  C364  1  0.46880000  0.28370000  0.97980000  0.5 -0.157231415
C  C365  1  0.53220000  0.21650000  0.91500000  0.5 -0.0210924138
C  C366  1  0.45130000  0.20810000  0.92800000  0.5 -0.0942756776
C  C367  1  0.41950000  0.23180000  0.96220000  0.5 0.1261220029
C  C368  1  0.47210000  0.26990000  0.98310000  0.5 -0.1423499499
C  C369  1  0.03330000  0.72770000  0.91260000  0.5 -0.0029774512
C  C370  1  0.94250000  0.72560000  0.92180000  0.5 -0.0942756776
C  C371  1  0.91000000  0.75260000  0.95540000  0.5 0.1212477114
C  C372  1  0.96880000  0.78370000  0.97980000  0.5 -0.157231415
C  C373  1  0.03220000  0.71650000  0.91500000  0.5 -0.0210924138
C  C374  1  0.95130000  0.70810000  0.92800000  0.5 -0.0942756776
C  C375  1  0.91950000  0.73180000  0.96220000  0.5 0.1261220029
C  C376  1  0.97210000  0.76990000  0.98310000  0.5 -0.1423499499
C  C377  1  0.03330000  0.22770000  0.41260000  0.5 -0.0029774512
C  C378  1  0.94250000  0.22560000  0.42180000  0.5 -0.0942756776
C  C379  1  0.91000000  0.25260000  0.45540000  0.5 0.1212477114
C  C380  1  0.96880000  0.28370000  0.47980000  0.5 -0.157231415
C  C381  1  0.03220000  0.21650000  0.41500000  0.5 -0.0210924138
C  C382  1  0.95130000  0.20810000  0.42800000  0.5 -0.0942756776
C  C383  1  0.91950000  0.23180000  0.46220000  0.5 0.1261220029
C  C384  1  0.97210000  0.26990000  0.48310000  0.5 -0.1423499499
N  N1  1  0.36900000  0.56400000  0.51200000  0.2 -0.5180026054
N  N2  1  0.36900000  0.06400000  0.01200000  0.2 -0.5180026054
N  N3  1  0.86900000  0.56400000  0.01200000  0.2 -0.5180026054
N  N4  1  0.86900000  0.06400000  0.51200000  0.2 -0.5180026054
N  N5  1  0.38100000  0.18600000  0.51200000  0.2 -0.5180026054
N  N6  1  0.38100000  0.68600000  0.01200000  0.2 -0.5180026054
N  N7  1  0.88100000  0.18600000  0.01200000  0.2 -0.5180026054
N  N8  1  0.88100000  0.68600000  0.51200000  0.2 -0.5180026054
N  N9  1  0.61900000  0.43600000  0.76200000  0.2 -0.5180026054
N  N10  1  0.61900000  0.93600000  0.26200000  0.2 -0.5180026054
N  N11  1  0.11900000  0.43600000  0.26200000  0.2 -0.5180026054
N  N12  1  0.11900000  0.93600000  0.76200000  0.2 -0.5180026054
N  N13  1  0.63100000  0.81400000  0.76200000  0.2 -0.5180026054
N  N14  1  0.63100000  0.31400000  0.26200000  0.2 -0.5180026054
N  N15  1  0.13100000  0.81400000  0.26200000  0.2 -0.5180026054
N  N16  1  0.13100000  0.31400000  0.76200000  0.2 -0.5180026054
N  N49  1  0.38100000  0.56400000  0.23800000  0.2 -0.5180026054
N  N50  1  0.38100000  0.06400000  0.73800000  0.2 -0.5180026054
N  N51  1  0.88100000  0.56400000  0.73800000  0.2 -0.5180026054
N  N52  1  0.88100000  0.06400000  0.23800000  0.2 -0.5180026054
N  N53  1  0.36900000  0.18600000  0.23800000  0.2 -0.5180026054
N  N54  1  0.36900000  0.68600000  0.73800000  0.2 -0.5180026054
N  N55  1  0.86900000  0.18600000  0.73800000  0.2 -0.5180026054
N  N56  1  0.86900000  0.68600000  0.23800000  0.2 -0.5180026054
N  N57  1  0.63100000  0.43600000  0.48800000  0.2 -0.5180026054
N  N58  1  0.63100000  0.93600000  0.98800000  0.2 -0.5180026054
N  N59  1  0.13100000  0.43600000  0.98800000  0.2 -0.5180026054
N  N60  1  0.13100000  0.93600000  0.48800000  0.2 -0.5180026054
N  N61  1  0.61900000  0.81400000  0.48800000  0.2 -0.5180026054
N  N62  1  0.61900000  0.31400000  0.98800000  0.2 -0.5180026054
N  N63  1  0.11900000  0.81400000  0.98800000  0.2 -0.5180026054
N  N64  1  0.11900000  0.31400000  0.48800000  0.2 -0.5180026054
N  N17  1  0.07150000  0.49430000  0.53890000  0.4 -0.1931874756
N  N18  1  0.08640000  0.46100000  0.52420000  0.4 -0.1516450224
N  N19  1  0.07150000  0.99430000  0.03890000  0.4 -0.196207153
N  N20  1  0.08640000  0.96100000  0.02420000  0.4 -0.1516450224
N  N21  1  0.57150000  0.49430000  0.03890000  0.4 -0.196207153
N  N22  1  0.58640000  0.46100000  0.02420000  0.4 -0.1516450224
N  N23  1  0.57150000  0.99430000  0.53890000  0.4 -0.1931874756
N  N24  1  0.58640000  0.96100000  0.52420000  0.4 -0.1516450224
N  N25  1  0.67850000  0.25570000  0.53890000  0.4 -0.1931874756
N  N26  1  0.66360000  0.28900000  0.52420000  0.4 -0.1516450224
N  N27  1  0.67850000  0.75570000  0.03890000  0.4 -0.196207153
N  N28  1  0.66360000  0.78900000  0.02420000  0.4 -0.1516450224
N  N29  1  0.17850000  0.25570000  0.03890000  0.4 -0.196207153
N  N30  1  0.16360000  0.28900000  0.02420000  0.4 -0.1516450224
N  N31  1  0.17850000  0.75570000  0.53890000  0.4 -0.1931874756
N  N32  1  0.16360000  0.78900000  0.52420000  0.4 -0.1516450224
N  N33  1  0.32150000  0.50570000  0.78890000  0.4 -0.196207153
N  N34  1  0.33640000  0.53900000  0.77420000  0.4 -0.1516450224
N  N35  1  0.32150000  0.00570000  0.28890000  0.4 -0.196207153
N  N36  1  0.33640000  0.03900000  0.27420000  0.4 -0.1516450224
N  N37  1  0.82150000  0.50570000  0.28890000  0.4 -0.196207153
N  N38  1  0.83640000  0.53900000  0.27420000  0.4 -0.1516450224
N  N39  1  0.82150000  0.00570000  0.78890000  0.4 -0.196207153
N  N40  1  0.83640000  0.03900000  0.77420000  0.4 -0.1516450224
N  N41  1  0.92850000  0.74430000  0.78890000  0.4 -0.196207153
N  N42  1  0.91360000  0.71100000  0.77420000  0.4 -0.1516450224
N  N43  1  0.92850000  0.24430000  0.28890000  0.4 -0.196207153
N  N44  1  0.91360000  0.21100000  0.27420000  0.4 -0.1516450224
N  N45  1  0.42850000  0.74430000  0.28890000  0.4 -0.196207153
N  N46  1  0.41360000  0.71100000  0.27420000  0.4 -0.1516450224
N  N47  1  0.42850000  0.24430000  0.78890000  0.4 -0.196207153
N  N48  1  0.41360000  0.21100000  0.77420000  0.4 -0.1516450224
N  N65  1  0.67850000  0.49430000  0.21110000  0.4 -0.196207153
N  N66  1  0.66360000  0.46100000  0.22580000  0.4 -0.1516450224
N  N67  1  0.67850000  0.99430000  0.71110000  0.4 -0.196207153
N  N68  1  0.66360000  0.96100000  0.72580000  0.4 -0.1516450224
N  N69  1  0.17850000  0.49430000  0.71110000  0.4 -0.196207153
N  N70  1  0.16360000  0.46100000  0.72580000  0.4 -0.1516450224
N  N71  1  0.17850000  0.99430000  0.21110000  0.4 -0.196207153
N  N72  1  0.16360000  0.96100000  0.22580000  0.4 -0.1516450224
N  N73  1  0.07150000  0.25570000  0.21110000  0.4 -0.196207153
N  N74  1  0.08640000  0.28900000  0.22580000  0.4 -0.1516450224
N  N75  1  0.07150000  0.75570000  0.71110000  0.4 -0.196207153
N  N76  1  0.08640000  0.78900000  0.72580000  0.4 -0.1516450224
N  N77  1  0.57150000  0.25570000  0.71110000  0.4 -0.196207153
N  N78  1  0.58640000  0.28900000  0.72580000  0.4 -0.1516450224
N  N79  1  0.57150000  0.75570000  0.21110000  0.4 -0.196207153
N  N80  1  0.58640000  0.78900000  0.22580000  0.4 -0.1516450224
N  N81  1  0.92850000  0.50570000  0.46110000  0.4 -0.196207153
N  N82  1  0.91360000  0.53900000  0.47580000  0.4 -0.1516450224
N  N83  1  0.92850000  0.00570000  0.96110000  0.4 -0.1931874756
N  N84  1  0.91360000  0.03900000  0.97580000  0.4 -0.1516450224
N  N85  1  0.42850000  0.50570000  0.96110000  0.4 -0.1931874756
N  N86  1  0.41360000  0.53900000  0.97580000  0.4 -0.1516450224
N  N87  1  0.42850000  0.00570000  0.46110000  0.4 -0.196207153
N  N88  1  0.41360000  0.03900000  0.47580000  0.4 -0.1516450224
N  N89  1  0.32150000  0.74430000  0.46110000  0.4 -0.196207153
N  N90  1  0.33640000  0.71100000  0.47580000  0.4 -0.1516450224
N  N91  1  0.32150000  0.24430000  0.96110000  0.4 -0.1931874756
N  N92  1  0.33640000  0.21100000  0.97580000  0.4 -0.1516450224
N  N93  1  0.82150000  0.74430000  0.96110000  0.4 -0.1931874756
N  N94  1  0.83640000  0.71100000  0.97580000  0.4 -0.1516450224
N  N95  1  0.82150000  0.24430000  0.46110000  0.4 -0.196207153
N  N96  1  0.83640000  0.21100000  0.47580000  0.4 -0.1516450224
O  O1  1  0.26130000  0.41760000  0.64479000  1.0 -0.5297949858
O  O2  1  0.39650000  0.44040000  0.62948000  1.0 -0.4537272716
O  O3  1  0.39330000  0.30800000  0.72446000  1.0 -0.5060539324
O  O4  1  0.49120000  0.41490000  0.71143000  1.0 -0.4537272716
O  O5  1  0.26130000  0.91760000  0.14479000  1.0 -0.5297949858
O  O6  1  0.39650000  0.94040000  0.12948000  1.0 -0.4537272716
O  O7  1  0.39330000  0.80800000  0.22446000  1.0 -0.5060539324
O  O8  1  0.49120000  0.91490000  0.21143000  1.0 -0.4537272716
O  O9  1  0.76130000  0.41760000  0.14479000  1.0 -0.5297949858
O  O10  1  0.89650000  0.44040000  0.12948000  1.0 -0.4537272716
O  O11  1  0.89330000  0.30800000  0.22446000  1.0 -0.5060539324
O  O12  1  0.99120000  0.41490000  0.21143000  1.0 -0.4537272716
O  O13  1  0.76130000  0.91760000  0.64479000  1.0 -0.5297949858
O  O14  1  0.89650000  0.94040000  0.62948000  1.0 -0.4551642317
O  O15  1  0.89330000  0.80800000  0.72446000  1.0 -0.5060539324
O  O16  1  0.99120000  0.91490000  0.71143000  1.0 -0.4537272716
O  O17  1  0.48870000  0.33240000  0.64479000  1.0 -0.5297949858
O  O18  1  0.35350000  0.30960000  0.62948000  1.0 -0.4551642317
O  O19  1  0.35670000  0.44200000  0.72446000  1.0 -0.5060539324
O  O20  1  0.25880000  0.33510000  0.71143000  1.0 -0.4537272716
O  O21  1  0.48870000  0.83240000  0.14479000  1.0 -0.5297949858
O  O22  1  0.35350000  0.80960000  0.12948000  1.0 -0.4537272716
O  O23  1  0.35670000  0.94200000  0.22446000  1.0 -0.5060539324
O  O24  1  0.25880000  0.83510000  0.21143000  1.0 -0.4537272716
O  O25  1  0.98870000  0.33240000  0.14479000  1.0 -0.5297949858
O  O26  1  0.85350000  0.30960000  0.12948000  1.0 -0.4537272716
O  O27  1  0.85670000  0.44200000  0.22446000  1.0 -0.5060539324
O  O28  1  0.75880000  0.33510000  0.21143000  1.0 -0.4537272716
O  O29  1  0.98870000  0.83240000  0.64479000  1.0 -0.5297949858
O  O30  1  0.85350000  0.80960000  0.62948000  1.0 -0.4537272716
O  O31  1  0.85670000  0.94200000  0.72446000  1.0 -0.5060539324
O  O32  1  0.75880000  0.83510000  0.71143000  1.0 -0.4537272716
O  O33  1  0.51130000  0.58240000  0.89479000  1.0 -0.5297949858
O  O34  1  0.64650000  0.55960000  0.87948000  1.0 -0.4537272716
O  O35  1  0.64330000  0.69200000  0.97446000  1.0 -0.5060539324
O  O36  1  0.74120000  0.58510000  0.96143000  1.0 -0.4537272716
O  O37  1  0.51130000  0.08240000  0.39479000  1.0 -0.5297949858
O  O38  1  0.64650000  0.05960000  0.37948000  1.0 -0.4537272716
O  O39  1  0.64330000  0.19200000  0.47446000  1.0 -0.5060539324
O  O40  1  0.74120000  0.08510000  0.46143000  1.0 -0.4537272716
O  O41  1  0.01130000  0.58240000  0.39479000  1.0 -0.5297949858
O  O42  1  0.14650000  0.55960000  0.37948000  1.0 -0.4537272716
O  O43  1  0.14330000  0.69200000  0.47446000  1.0 -0.5060539324
O  O44  1  0.24120000  0.58510000  0.46143000  1.0 -0.4537272716
O  O45  1  0.01130000  0.08240000  0.89479000  1.0 -0.5297949858
O  O46  1  0.14650000  0.05960000  0.87948000  1.0 -0.4537272716
O  O47  1  0.14330000  0.19200000  0.97446000  1.0 -0.5060539324
O  O48  1  0.24120000  0.08510000  0.96143000  1.0 -0.4537272716
O  O49  1  0.73870000  0.66760000  0.89479000  1.0 -0.5297949858
O  O50  1  0.60350000  0.69040000  0.87948000  1.0 -0.4537272716
O  O51  1  0.60670000  0.55800000  0.97446000  1.0 -0.5060539324
O  O52  1  0.50880000  0.66490000  0.96143000  1.0 -0.4537272716
O  O53  1  0.73870000  0.16760000  0.39479000  1.0 -0.5297949858
O  O54  1  0.60350000  0.19040000  0.37948000  1.0 -0.4551642317
O  O55  1  0.60670000  0.05800000  0.47446000  1.0 -0.5060539324
O  O56  1  0.50880000  0.16490000  0.46143000  1.0 -0.4537272716
O  O57  1  0.23870000  0.66760000  0.39479000  1.0 -0.5297949858
O  O58  1  0.10350000  0.69040000  0.37948000  1.0 -0.4537272716
O  O59  1  0.10670000  0.55800000  0.47446000  1.0 -0.5060539324
O  O60  1  0.00880000  0.66490000  0.46143000  1.0 -0.4537272716
O  O61  1  0.23870000  0.16760000  0.89479000  1.0 -0.5297949858
O  O62  1  0.10350000  0.19040000  0.87948000  1.0 -0.4537272716
O  O63  1  0.10670000  0.05800000  0.97446000  1.0 -0.5060539324
O  O64  1  0.00880000  0.16490000  0.96143000  1.0 -0.4537272716
O  O65  1  0.48870000  0.41760000  0.10521000  1.0 -0.5297949858
O  O66  1  0.35350000  0.44040000  0.12052000  1.0 -0.4537272716
O  O67  1  0.35670000  0.30800000  0.02554000  1.0 -0.5060539324
O  O68  1  0.25880000  0.41490000  0.03857000  1.0 -0.4537272716
O  O69  1  0.48870000  0.91760000  0.60521000  1.0 -0.5297949858
O  O70  1  0.35350000  0.94040000  0.62052000  1.0 -0.4551642317
O  O71  1  0.35670000  0.80800000  0.52554000  1.0 -0.5060539324
O  O72  1  0.25880000  0.91490000  0.53857000  1.0 -0.4537272716
O  O73  1  0.98870000  0.41760000  0.60521000  1.0 -0.5297949858
O  O74  1  0.85350000  0.44040000  0.62052000  1.0 -0.4551642317
O  O75  1  0.85670000  0.30800000  0.52554000  1.0 -0.5060539324
O  O76  1  0.75880000  0.41490000  0.53857000  1.0 -0.4537272716
O  O77  1  0.98870000  0.91760000  0.10521000  1.0 -0.5297949858
O  O78  1  0.85350000  0.94040000  0.12052000  1.0 -0.4537272716
O  O79  1  0.85670000  0.80800000  0.02554000  1.0 -0.5060539324
O  O80  1  0.75880000  0.91490000  0.03857000  1.0 -0.4537272716
O  O81  1  0.26130000  0.33240000  0.10521000  1.0 -0.5297949858
O  O82  1  0.39650000  0.30960000  0.12052000  1.0 -0.4537272716
O  O83  1  0.39330000  0.44200000  0.02554000  1.0 -0.5060539324
O  O84  1  0.49120000  0.33510000  0.03857000  1.0 -0.4537272716
O  O85  1  0.26130000  0.83240000  0.60521000  1.0 -0.5297949858
O  O86  1  0.39650000  0.80960000  0.62052000  1.0 -0.4537272716
O  O87  1  0.39330000  0.94200000  0.52554000  1.0 -0.5060539324
O  O88  1  0.49120000  0.83510000  0.53857000  1.0 -0.4537272716
O  O89  1  0.76130000  0.33240000  0.60521000  1.0 -0.5297949858
O  O90  1  0.89650000  0.30960000  0.62052000  1.0 -0.4551642317
O  O91  1  0.89330000  0.44200000  0.52554000  1.0 -0.5060539324
O  O92  1  0.99120000  0.33510000  0.53857000  1.0 -0.4537272716
O  O93  1  0.76130000  0.83240000  0.10521000  1.0 -0.5297949858
O  O94  1  0.89650000  0.80960000  0.12052000  1.0 -0.4537272716
O  O95  1  0.89330000  0.94200000  0.02554000  1.0 -0.5060539324
O  O96  1  0.99120000  0.83510000  0.03857000  1.0 -0.4537272716
O  O97  1  0.73870000  0.58240000  0.35521000  1.0 -0.5297949858
O  O98  1  0.60350000  0.55960000  0.37052000  1.0 -0.4537272716
O  O99  1  0.60670000  0.69200000  0.27554000  1.0 -0.5060539324
O  O100  1  0.50880000  0.58510000  0.28857000  1.0 -0.4537272716
O  O101  1  0.73870000  0.08240000  0.85521000  1.0 -0.5297949858
O  O102  1  0.60350000  0.05960000  0.87052000  1.0 -0.4537272716
O  O103  1  0.60670000  0.19200000  0.77554000  1.0 -0.5060539324
O  O104  1  0.50880000  0.08510000  0.78857000  1.0 -0.4537272716
O  O105  1  0.23870000  0.58240000  0.85521000  1.0 -0.5297949858
O  O106  1  0.10350000  0.55960000  0.87052000  1.0 -0.4537272716
O  O107  1  0.10670000  0.69200000  0.77554000  1.0 -0.5060539324
O  O108  1  0.00880000  0.58510000  0.78857000  1.0 -0.4537272716
O  O109  1  0.23870000  0.08240000  0.35521000  1.0 -0.5297949858
O  O110  1  0.10350000  0.05960000  0.37052000  1.0 -0.4537272716
O  O111  1  0.10670000  0.19200000  0.27554000  1.0 -0.5060539324
O  O112  1  0.00880000  0.08510000  0.28857000  1.0 -0.4537272716
O  O113  1  0.51130000  0.66760000  0.35521000  1.0 -0.5297949858
O  O114  1  0.64650000  0.69040000  0.37052000  1.0 -0.4537272716
O  O115  1  0.64330000  0.55800000  0.27554000  1.0 -0.5060539324
O  O116  1  0.74120000  0.66490000  0.28857000  1.0 -0.4537272716
O  O117  1  0.51130000  0.16760000  0.85521000  1.0 -0.5297949858
O  O118  1  0.64650000  0.19040000  0.87052000  1.0 -0.4537272716
O  O119  1  0.64330000  0.05800000  0.77554000  1.0 -0.5060539324
O  O120  1  0.74120000  0.16490000  0.78857000  1.0 -0.4537272716
O  O121  1  0.01130000  0.66760000  0.85521000  1.0 -0.5297949858
O  O122  1  0.14650000  0.69040000  0.87052000  1.0 -0.4537272716
O  O123  1  0.14330000  0.55800000  0.77554000  1.0 -0.5060539324
O  O124  1  0.24120000  0.66490000  0.78857000  1.0 -0.4537272716
O  O125  1  0.01130000  0.16760000  0.35521000  1.0 -0.5297949858
O  O126  1  0.14650000  0.19040000  0.37052000  1.0 -0.4537272716
O  O127  1  0.14330000  0.05800000  0.27554000  1.0 -0.5060539324
O  O128  1  0.24120000  0.16490000  0.28857000  1.0 -0.4537272716
