# DDEC6 charges by PACMAN v1.1 (https://github.com/mtap-research/PACMAN-charge/)
data_d0dt02504f2_ASR_pacman
_symmetry_space_group_name_H-M   'P 1'
_cell_length_a   22.23400000
_cell_length_b   28.09600000
_cell_length_c   28.40800000
_cell_angle_alpha   90.00000000
_cell_angle_beta   90.00000000
_cell_angle_gamma   90.00000000
_symmetry_Int_Tables_number   1
_chemical_formula_structural   Fe3P3H24C42N3O19
_chemical_formula_sum   'Fe24 P24 H192 C336 N24 O152'
_cell_volume   17746.09306931
_cell_formula_units_Z   8
loop_
 _symmetry_equiv_pos_site_id
 _symmetry_equiv_pos_as_xyz
  1  'x, y, z'
loop_
 _atom_site_type_symbol
 _atom_site_label
 _atom_site_symmetry_multiplicity
 _atom_site_fract_x
 _atom_site_fract_y
 _atom_site_fract_z
 _atom_site_occupancy
 _atom_site_charge
Fe  Fe1  1  0.31394000  0.65725000  0.00000000  1.0 1.1503450049
Fe  Fe2  1  0.41517000  0.57026000  0.00000000  1.0 1.1503450049
Fe  Fe3  1  0.46223000  0.68052000  0.00000000  1.0 1.1959922684
Fe  Fe4  1  0.68606000  0.34275000  0.00000000  1.0 1.1503450049
Fe  Fe5  1  0.58483000  0.42974000  0.00000000  1.0 1.1503450049
Fe  Fe6  1  0.53777000  0.31948000  0.00000000  1.0 1.1959922684
Fe  Fe7  1  0.18606000  0.15725000  0.00000000  1.0 1.1503450049
Fe  Fe8  1  0.08483000  0.07026000  0.00000000  1.0 1.1503450049
Fe  Fe9  1  0.03777000  0.18052000  0.00000000  1.0 1.1959922684
Fe  Fe10  1  0.81394000  0.84275000  0.00000000  1.0 1.1503450049
Fe  Fe11  1  0.91517000  0.92974000  0.00000000  1.0 1.1503450049
Fe  Fe12  1  0.96223000  0.81948000  0.00000000  1.0 1.1959922684
Fe  Fe13  1  0.56166000  0.37433000  0.50000000  1.0 1.1959922684
Fe  Fe14  1  0.52543000  0.26018000  0.50000000  1.0 1.2223378791
Fe  Fe15  1  0.67015000  0.29288000  0.50000000  1.0 1.2134645356
Fe  Fe16  1  0.43834000  0.62567000  0.50000000  1.0 1.1959922684
Fe  Fe17  1  0.47457000  0.73982000  0.50000000  1.0 1.2223378791
Fe  Fe18  1  0.32985000  0.70712000  0.50000000  1.0 1.2134645356
Fe  Fe19  1  0.93834000  0.87433000  0.50000000  1.0 1.1959922684
Fe  Fe20  1  0.97457000  0.76018000  0.50000000  1.0 1.2223378791
Fe  Fe21  1  0.82985000  0.79288000  0.50000000  1.0 1.2134645356
Fe  Fe22  1  0.06166000  0.12567000  0.50000000  1.0 1.1959922684
Fe  Fe23  1  0.02543000  0.23982000  0.50000000  1.0 1.2223378791
Fe  Fe24  1  0.17015000  0.20712000  0.50000000  1.0 1.2134645356
P  P1  1  0.20948000  0.46181000  0.29313000  1.0 1.3118215872
P  P2  1  0.29832000  0.40733000  0.25244000  1.0 1.2970540596
P  P3  1  0.18502000  0.41004000  0.21232000  1.0 1.3118215872
P  P4  1  0.79052000  0.53819000  0.29313000  1.0 1.3118215872
P  P5  1  0.70168000  0.59267000  0.25244000  1.0 1.2970540596
P  P6  1  0.81498000  0.58996000  0.21232000  1.0 1.3118215872
P  P7  1  0.29052000  0.96181000  0.70687000  1.0 1.3118215872
P  P8  1  0.20168000  0.90733000  0.74756000  1.0 1.2970540596
P  P9  1  0.31498000  0.91004000  0.78768000  1.0 1.3118215872
P  P10  1  0.70948000  0.03819000  0.70687000  1.0 1.3118215872
P  P11  1  0.79832000  0.09267000  0.74756000  1.0 1.2970540596
P  P12  1  0.68502000  0.08996000  0.78768000  1.0 1.3118215872
P  P13  1  0.79052000  0.53819000  0.70687000  1.0 1.3118215872
P  P14  1  0.70168000  0.59267000  0.74756000  1.0 1.2970540596
P  P15  1  0.81498000  0.58996000  0.78768000  1.0 1.3118215872
P  P16  1  0.20948000  0.46181000  0.70687000  1.0 1.3118215872
P  P17  1  0.29832000  0.40733000  0.74756000  1.0 1.2970540596
P  P18  1  0.18502000  0.41004000  0.78768000  1.0 1.3118215872
P  P19  1  0.70948000  0.03819000  0.29313000  1.0 1.3118215872
P  P20  1  0.79832000  0.09267000  0.25244000  1.0 1.2970540596
P  P21  1  0.68502000  0.08996000  0.21232000  1.0 1.3118215872
P  P22  1  0.29052000  0.96181000  0.29313000  1.0 1.3118215872
P  P23  1  0.20168000  0.90733000  0.25244000  1.0 1.2970540596
P  P24  1  0.31498000  0.91004000  0.21232000  1.0 1.3118215872
H  H1  1  0.32070000  0.47573000  0.07390000  1.0 0.1213200788
H  H2  1  0.26350000  0.41964000  0.11640000  1.0 0.1380235049
H  H3  1  0.14920000  0.52197000  0.15510000  1.0 0.1380235049
H  H4  1  0.20790000  0.57820000  0.11650000  1.0 0.1213200788
H  H5  1  0.04300000  0.28450000  0.10540000  1.0 0.1213200788
H  H6  1  0.04890000  0.33880000  0.16830000  1.0 0.1380235049
H  H7  1  0.22620000  0.31340000  0.17600000  1.0 0.1380235049
H  H8  1  0.21630000  0.25480000  0.11750000  1.0 0.1289314402
H  H9  1  0.22550000  0.31980000  0.41300000  1.0 0.1213200788
H  H10  1  0.25130000  0.39230000  0.37600000  1.0 0.1380235049
H  H11  1  0.07670000  0.42020000  0.35670000  1.0 0.1380235049
H  H12  1  0.05090000  0.35050000  0.39840000  1.0 0.1213200788
H  H13  1  0.43160000  0.33660000  0.12370000  1.0 0.1213200788
H  H14  1  0.37850000  0.35227000  0.19400000  1.0 0.1380235049
H  H15  1  0.40320000  0.49060000  0.17555000  1.0 0.1380235049
H  H16  1  0.46170000  0.47513000  0.10890000  1.0 0.1213200788
H  H17  1  0.22020000  0.62510000  0.40430000  1.0 0.1213200788
H  H18  1  0.16890000  0.57940000  0.34710000  1.0 0.1289314402
H  H19  1  0.32640000  0.51930000  0.31100000  1.0 0.1380235049
H  H20  1  0.37420000  0.56270000  0.37210000  1.0 0.1213200788
H  H21  1  0.45750000  0.40840000  0.37990000  1.0 0.1213200788
H  H22  1  0.40160000  0.41980000  0.31150000  1.0 0.1380235049
H  H23  1  0.33150000  0.28800000  0.32450000  1.0 0.1380235049
H  H24  1  0.39230000  0.27490000  0.38960000  1.0 0.1213200788
H  H25  1  0.67930000  0.52427000  0.07390000  1.0 0.1213200788
H  H26  1  0.73650000  0.58036000  0.11640000  1.0 0.1380235049
H  H27  1  0.85080000  0.47803000  0.15510000  1.0 0.1380235049
H  H28  1  0.79210000  0.42180000  0.11650000  1.0 0.1213200788
H  H29  1  0.95700000  0.71550000  0.10540000  1.0 0.1213200788
H  H30  1  0.95110000  0.66120000  0.16830000  1.0 0.1380235049
H  H31  1  0.77380000  0.68660000  0.17600000  1.0 0.1380235049
H  H32  1  0.78370000  0.74520000  0.11750000  1.0 0.1289314402
H  H33  1  0.77450000  0.68020000  0.41300000  1.0 0.1213200788
H  H34  1  0.74870000  0.60770000  0.37600000  1.0 0.1380235049
H  H35  1  0.92330000  0.57980000  0.35670000  1.0 0.1380235049
H  H36  1  0.94910000  0.64950000  0.39840000  1.0 0.1213200788
H  H37  1  0.56840000  0.66340000  0.12370000  1.0 0.1213200788
H  H38  1  0.62150000  0.64773000  0.19400000  1.0 0.1380235049
H  H39  1  0.59680000  0.50940000  0.17555000  1.0 0.1380235049
H  H40  1  0.53830000  0.52487000  0.10890000  1.0 0.1213200788
H  H41  1  0.77980000  0.37490000  0.40430000  1.0 0.1213200788
H  H42  1  0.83110000  0.42060000  0.34710000  1.0 0.1289314402
H  H43  1  0.67360000  0.48070000  0.31100000  1.0 0.1380235049
H  H44  1  0.62580000  0.43730000  0.37210000  1.0 0.1213200788
H  H45  1  0.54250000  0.59160000  0.37990000  1.0 0.1213200788
H  H46  1  0.59840000  0.58020000  0.31150000  1.0 0.1380235049
H  H47  1  0.66850000  0.71200000  0.32450000  1.0 0.1380235049
H  H48  1  0.60770000  0.72510000  0.38960000  1.0 0.1213200788
H  H49  1  0.17930000  0.97573000  0.92610000  1.0 0.1213200788
H  H50  1  0.23650000  0.91964000  0.88360000  1.0 0.1380235049
H  H51  1  0.35080000  0.02197000  0.84490000  1.0 0.1380235049
H  H52  1  0.29210000  0.07820000  0.88350000  1.0 0.1213200788
H  H53  1  0.45700000  0.78450000  0.89460000  1.0 0.1213200788
H  H54  1  0.45110000  0.83880000  0.83170000  1.0 0.1380235049
H  H55  1  0.27380000  0.81340000  0.82400000  1.0 0.1380235049
H  H56  1  0.28370000  0.75480000  0.88250000  1.0 0.1289314402
H  H57  1  0.27450000  0.81980000  0.58700000  1.0 0.1213200788
H  H58  1  0.24870000  0.89230000  0.62400000  1.0 0.1380235049
H  H59  1  0.42330000  0.92020000  0.64330000  1.0 0.1380235049
H  H60  1  0.44910000  0.85050000  0.60160000  1.0 0.1213200788
H  H61  1  0.06840000  0.83660000  0.87630000  1.0 0.1213200788
H  H62  1  0.12150000  0.85227000  0.80600000  1.0 0.1380235049
H  H63  1  0.09680000  0.99060000  0.82445000  1.0 0.1380235049
H  H64  1  0.03830000  0.97513000  0.89110000  1.0 0.1213200788
H  H65  1  0.27980000  0.12510000  0.59570000  1.0 0.1213200788
H  H66  1  0.33110000  0.07940000  0.65290000  1.0 0.1380235049
H  H67  1  0.17360000  0.01930000  0.68900000  1.0 0.1380235049
H  H68  1  0.12580000  0.06270000  0.62790000  1.0 0.1213200788
H  H69  1  0.04250000  0.90840000  0.62010000  1.0 0.1213200788
H  H70  1  0.09840000  0.91980000  0.68850000  1.0 0.1380235049
H  H71  1  0.16850000  0.78800000  0.67550000  1.0 0.1380235049
H  H72  1  0.10770000  0.77490000  0.61040000  1.0 0.1213200788
H  H73  1  0.82070000  0.02427000  0.92610000  1.0 0.1213200788
H  H74  1  0.76350000  0.08036000  0.88360000  1.0 0.1380235049
H  H75  1  0.64920000  0.97803000  0.84490000  1.0 0.1380235049
H  H76  1  0.70790000  0.92180000  0.88350000  1.0 0.1213200788
H  H77  1  0.54300000  0.21550000  0.89460000  1.0 0.1213200788
H  H78  1  0.54890000  0.16120000  0.83170000  1.0 0.1380235049
H  H79  1  0.72620000  0.18660000  0.82400000  1.0 0.1380235049
H  H80  1  0.71630000  0.24520000  0.88250000  1.0 0.1289314402
H  H81  1  0.72550000  0.18020000  0.58700000  1.0 0.1213200788
H  H82  1  0.75130000  0.10770000  0.62400000  1.0 0.1380235049
H  H83  1  0.57670000  0.07980000  0.64330000  1.0 0.1380235049
H  H84  1  0.55090000  0.14950000  0.60160000  1.0 0.1213200788
H  H85  1  0.93160000  0.16340000  0.87630000  1.0 0.1213200788
H  H86  1  0.87850000  0.14773000  0.80600000  1.0 0.1380235049
H  H87  1  0.90320000  0.00940000  0.82445000  1.0 0.1380235049
H  H88  1  0.96170000  0.02487000  0.89110000  1.0 0.1213200788
H  H89  1  0.72020000  0.87490000  0.59570000  1.0 0.1213200788
H  H90  1  0.66890000  0.92060000  0.65290000  1.0 0.1380235049
H  H91  1  0.82640000  0.98070000  0.68900000  1.0 0.1380235049
H  H92  1  0.87420000  0.93730000  0.62790000  1.0 0.1213200788
H  H93  1  0.95750000  0.09160000  0.62010000  1.0 0.1213200788
H  H94  1  0.90160000  0.08020000  0.68850000  1.0 0.1380235049
H  H95  1  0.83150000  0.21200000  0.67550000  1.0 0.1380235049
H  H96  1  0.89230000  0.22510000  0.61040000  1.0 0.1213200788
H  H97  1  0.67930000  0.52427000  0.92610000  1.0 0.1213200788
H  H98  1  0.73650000  0.58036000  0.88360000  1.0 0.1380235049
H  H99  1  0.85080000  0.47803000  0.84490000  1.0 0.1380235049
H  H100  1  0.79210000  0.42180000  0.88350000  1.0 0.1213200788
H  H101  1  0.95700000  0.71550000  0.89460000  1.0 0.1213200788
H  H102  1  0.95110000  0.66120000  0.83170000  1.0 0.1380235049
H  H103  1  0.77380000  0.68660000  0.82400000  1.0 0.1380235049
H  H104  1  0.78370000  0.74520000  0.88250000  1.0 0.1289314402
H  H105  1  0.77450000  0.68020000  0.58700000  1.0 0.1213200788
H  H106  1  0.74870000  0.60770000  0.62400000  1.0 0.1380235049
H  H107  1  0.92330000  0.57980000  0.64330000  1.0 0.1380235049
H  H108  1  0.94910000  0.64950000  0.60160000  1.0 0.1213200788
H  H109  1  0.56840000  0.66340000  0.87630000  1.0 0.1213200788
H  H110  1  0.62150000  0.64773000  0.80600000  1.0 0.1380235049
H  H111  1  0.59680000  0.50940000  0.82445000  1.0 0.1380235049
H  H112  1  0.53830000  0.52487000  0.89110000  1.0 0.1213200788
H  H113  1  0.77980000  0.37490000  0.59570000  1.0 0.1213200788
H  H114  1  0.83110000  0.42060000  0.65290000  1.0 0.1380235049
H  H115  1  0.67360000  0.48070000  0.68900000  1.0 0.1380235049
H  H116  1  0.62580000  0.43730000  0.62790000  1.0 0.1213200788
H  H117  1  0.54250000  0.59160000  0.62010000  1.0 0.1213200788
H  H118  1  0.59840000  0.58020000  0.68850000  1.0 0.1380235049
H  H119  1  0.66850000  0.71200000  0.67550000  1.0 0.1380235049
H  H120  1  0.60770000  0.72510000  0.61040000  1.0 0.1213200788
H  H121  1  0.32070000  0.47573000  0.92610000  1.0 0.1213200788
H  H122  1  0.26350000  0.41964000  0.88360000  1.0 0.1380235049
H  H123  1  0.14920000  0.52197000  0.84490000  1.0 0.1380235049
H  H124  1  0.20790000  0.57820000  0.88350000  1.0 0.1213200788
H  H125  1  0.04300000  0.28450000  0.89460000  1.0 0.1213200788
H  H126  1  0.04890000  0.33880000  0.83170000  1.0 0.1380235049
H  H127  1  0.22620000  0.31340000  0.82400000  1.0 0.1380235049
H  H128  1  0.21630000  0.25480000  0.88250000  1.0 0.1289314402
H  H129  1  0.22550000  0.31980000  0.58700000  1.0 0.1213200788
H  H130  1  0.25130000  0.39230000  0.62400000  1.0 0.1380235049
H  H131  1  0.07670000  0.42020000  0.64330000  1.0 0.1380235049
H  H132  1  0.05090000  0.35050000  0.60160000  1.0 0.1213200788
H  H133  1  0.43160000  0.33660000  0.87630000  1.0 0.1213200788
H  H134  1  0.37850000  0.35227000  0.80600000  1.0 0.1380235049
H  H135  1  0.40320000  0.49060000  0.82445000  1.0 0.1380235049
H  H136  1  0.46170000  0.47513000  0.89110000  1.0 0.1213200788
H  H137  1  0.22020000  0.62510000  0.59570000  1.0 0.1213200788
H  H138  1  0.16890000  0.57940000  0.65290000  1.0 0.1380235049
H  H139  1  0.32640000  0.51930000  0.68900000  1.0 0.1380235049
H  H140  1  0.37420000  0.56270000  0.62790000  1.0 0.1213200788
H  H141  1  0.45750000  0.40840000  0.62010000  1.0 0.1213200788
H  H142  1  0.40160000  0.41980000  0.68850000  1.0 0.1380235049
H  H143  1  0.33150000  0.28800000  0.67550000  1.0 0.1380235049
H  H144  1  0.39230000  0.27490000  0.61040000  1.0 0.1213200788
H  H145  1  0.82070000  0.02427000  0.07390000  1.0 0.1213200788
H  H146  1  0.76350000  0.08036000  0.11640000  1.0 0.1380235049
H  H147  1  0.64920000  0.97803000  0.15510000  1.0 0.1380235049
H  H148  1  0.70790000  0.92180000  0.11650000  1.0 0.1213200788
H  H149  1  0.54300000  0.21550000  0.10540000  1.0 0.1213200788
H  H150  1  0.54890000  0.16120000  0.16830000  1.0 0.1380235049
H  H151  1  0.72620000  0.18660000  0.17600000  1.0 0.1380235049
H  H152  1  0.71630000  0.24520000  0.11750000  1.0 0.1289314402
H  H153  1  0.72550000  0.18020000  0.41300000  1.0 0.1213200788
H  H154  1  0.75130000  0.10770000  0.37600000  1.0 0.1380235049
H  H155  1  0.57670000  0.07980000  0.35670000  1.0 0.1380235049
H  H156  1  0.55090000  0.14950000  0.39840000  1.0 0.1213200788
H  H157  1  0.93160000  0.16340000  0.12370000  1.0 0.1213200788
H  H158  1  0.87850000  0.14773000  0.19400000  1.0 0.1380235049
H  H159  1  0.90320000  0.00940000  0.17555000  1.0 0.1380235049
H  H160  1  0.96170000  0.02487000  0.10890000  1.0 0.1213200788
H  H161  1  0.72020000  0.87490000  0.40430000  1.0 0.1213200788
H  H162  1  0.66890000  0.92060000  0.34710000  1.0 0.1289314402
H  H163  1  0.82640000  0.98070000  0.31100000  1.0 0.1380235049
H  H164  1  0.87420000  0.93730000  0.37210000  1.0 0.1213200788
H  H165  1  0.95750000  0.09160000  0.37990000  1.0 0.1213200788
H  H166  1  0.90160000  0.08020000  0.31150000  1.0 0.1380235049
H  H167  1  0.83150000  0.21200000  0.32450000  1.0 0.1380235049
H  H168  1  0.89230000  0.22510000  0.38960000  1.0 0.1213200788
H  H169  1  0.17930000  0.97573000  0.07390000  1.0 0.1213200788
H  H170  1  0.23650000  0.91964000  0.11640000  1.0 0.1380235049
H  H171  1  0.35080000  0.02197000  0.15510000  1.0 0.1380235049
H  H172  1  0.29210000  0.07820000  0.11650000  1.0 0.1213200788
H  H173  1  0.45700000  0.78450000  0.10540000  1.0 0.1213200788
H  H174  1  0.45110000  0.83880000  0.16830000  1.0 0.1380235049
H  H175  1  0.27380000  0.81340000  0.17600000  1.0 0.1380235049
H  H176  1  0.28370000  0.75480000  0.11750000  1.0 0.1289314402
H  H177  1  0.27450000  0.81980000  0.41300000  1.0 0.1213200788
H  H178  1  0.24870000  0.89230000  0.37600000  1.0 0.1380235049
H  H179  1  0.42330000  0.92020000  0.35670000  1.0 0.1380235049
H  H180  1  0.44910000  0.85050000  0.39840000  1.0 0.1213200788
H  H181  1  0.06840000  0.83660000  0.12370000  1.0 0.1213200788
H  H182  1  0.12150000  0.85227000  0.19400000  1.0 0.1380235049
H  H183  1  0.09680000  0.99060000  0.17555000  1.0 0.1380235049
H  H184  1  0.03830000  0.97513000  0.10890000  1.0 0.1213200788
H  H185  1  0.27980000  0.12510000  0.40430000  1.0 0.1213200788
H  H186  1  0.33110000  0.07940000  0.34710000  1.0 0.1289314402
H  H187  1  0.17360000  0.01930000  0.31100000  1.0 0.1380235049
H  H188  1  0.12580000  0.06270000  0.37210000  1.0 0.1213200788
H  H189  1  0.04250000  0.90840000  0.37990000  1.0 0.1213200788
H  H190  1  0.09840000  0.91980000  0.31150000  1.0 0.1380235049
H  H191  1  0.16850000  0.78800000  0.32450000  1.0 0.1380235049
H  H192  1  0.10770000  0.77490000  0.38960000  1.0 0.1213200788
C  C1  1  0.30650000  0.56692000  0.06120000  1.0 0.6034245266
C  C2  1  0.26890000  0.53238000  0.09011000  1.0 -0.038141872
C  C3  1  0.28590000  0.48563000  0.09060000  1.0 -0.0784215907
C  C4  1  0.25170000  0.45214000  0.11600000  1.0 -0.1893994729
C  C5  1  0.20310000  0.46573000  0.13947000  1.0 0.2626187278
C  C6  1  0.18480000  0.51258000  0.13920000  1.0 -0.169280184
C  C7  1  0.21900000  0.54560000  0.11540000  1.0 -0.0784215907
C  C8  1  0.12420000  0.22871000  0.06686000  1.0 0.6104516609
C  C9  1  0.12890000  0.26461000  0.10582000  1.0 -0.0491261554
C  C10  1  0.08060000  0.28960000  0.12050000  1.0 -0.0784215907
C  C11  1  0.08400000  0.32300000  0.15740000  1.0 -0.1977755239
C  C12  1  0.13740000  0.33196000  0.17676000  1.0 0.2771233492
C  C13  1  0.18810000  0.30710000  0.16220000  1.0 -0.1893994729
C  C14  1  0.18210000  0.27270000  0.12680000  1.0 -0.0784215907
C  C15  1  0.12110000  0.28586000  0.43867000  1.0 0.6104516609
C  C16  1  0.13610000  0.32910000  0.41087000  1.0 -0.0590692076
C  C17  1  0.19460000  0.34080000  0.40290000  1.0 -0.069250622
C  C18  1  0.21040000  0.38360000  0.38000000  1.0 -0.1893994729
C  C19  1  0.16610000  0.41175000  0.36382000  1.0 0.269366939
C  C20  1  0.10720000  0.40030000  0.36930000  1.0 -0.169280184
C  C21  1  0.09200000  0.35840000  0.39370000  1.0 -0.0784215907
C  C22  1  0.48970000  0.39525000  0.06692000  1.0 0.6104516609
C  C23  1  0.45230000  0.40449000  0.10997000  1.0 -0.038141872
C  C24  1  0.42720000  0.36840000  0.13450000  1.0 -0.0784215907
C  C25  1  0.39470000  0.37778000  0.17610000  1.0 -0.1977755239
C  C26  1  0.38660000  0.42284000  0.19010000  1.0 0.269366939
C  C27  1  0.40980000  0.45870000  0.16571000  1.0 -0.1893994729
C  C28  1  0.44390000  0.44938000  0.12560000  1.0 -0.0889563041
C  C29  1  0.33220000  0.62313000  0.43409000  1.0 0.6104516609
C  C30  1  0.30150000  0.59649000  0.39543000  1.0 -0.0590692076
C  C31  1  0.24190000  0.60220000  0.38650000  1.0 -0.0784215907
C  C32  1  0.21090000  0.57560000  0.35210000  1.0 -0.1893994729
C  C33  1  0.24460000  0.54396000  0.32621000  1.0 0.269366939
C  C34  1  0.30380000  0.53960000  0.33110000  1.0 -0.1893994729
C  C35  1  0.33210000  0.56630000  0.36740000  1.0 -0.069250622
C  C36  1  0.47190000  0.33102000  0.43262000  1.0 0.6034245266
C  C37  1  0.43350000  0.33938000  0.39065000  1.0 -0.0590692076
C  C38  1  0.43360000  0.38310000  0.36790000  1.0 -0.069250622
C  C39  1  0.39940000  0.39040000  0.32800000  1.0 -0.1893994729
C  C40  1  0.36210000  0.35489000  0.31238000  1.0 0.2771233492
C  C41  1  0.35830000  0.31200000  0.33520000  1.0 -0.1893994729
C  C42  1  0.39420000  0.30470000  0.37380000  1.0 -0.0784215907
C  C43  1  0.69350000  0.43308000  0.06120000  1.0 0.6034245266
C  C44  1  0.73110000  0.46762000  0.09011000  1.0 -0.038141872
C  C45  1  0.71410000  0.51437000  0.09060000  1.0 -0.0784215907
C  C46  1  0.74830000  0.54786000  0.11600000  1.0 -0.1893994729
C  C47  1  0.79690000  0.53427000  0.13947000  1.0 0.2626187278
C  C48  1  0.81520000  0.48742000  0.13920000  1.0 -0.169280184
C  C49  1  0.78100000  0.45440000  0.11540000  1.0 -0.0784215907
C  C50  1  0.87580000  0.77129000  0.06686000  1.0 0.6104516609
C  C51  1  0.87110000  0.73539000  0.10582000  1.0 -0.0491261554
C  C52  1  0.91940000  0.71040000  0.12050000  1.0 -0.0784215907
C  C53  1  0.91600000  0.67700000  0.15740000  1.0 -0.1893994729
C  C54  1  0.86260000  0.66804000  0.17676000  1.0 0.2771233492
C  C55  1  0.81190000  0.69290000  0.16220000  1.0 -0.1893994729
C  C56  1  0.81790000  0.72730000  0.12680000  1.0 -0.0784215907
C  C57  1  0.87890000  0.71414000  0.43867000  1.0 0.6104516609
C  C58  1  0.86390000  0.67090000  0.41087000  1.0 -0.0590692076
C  C59  1  0.80540000  0.65920000  0.40290000  1.0 -0.069250622
C  C60  1  0.78960000  0.61640000  0.38000000  1.0 -0.1893994729
C  C61  1  0.83390000  0.58825000  0.36382000  1.0 0.269366939
C  C62  1  0.89280000  0.59970000  0.36930000  1.0 -0.169280184
C  C63  1  0.90800000  0.64160000  0.39370000  1.0 -0.0784215907
C  C64  1  0.51030000  0.60475000  0.06692000  1.0 0.6104516609
C  C65  1  0.54770000  0.59551000  0.10997000  1.0 -0.038141872
C  C66  1  0.57280000  0.63160000  0.13450000  1.0 -0.0784215907
C  C67  1  0.60530000  0.62222000  0.17610000  1.0 -0.1977755239
C  C68  1  0.61340000  0.57716000  0.19010000  1.0 0.269366939
C  C69  1  0.59020000  0.54130000  0.16571000  1.0 -0.1893994729
C  C70  1  0.55610000  0.55062000  0.12560000  1.0 -0.0889563041
C  C71  1  0.66780000  0.37687000  0.43409000  1.0 0.6104516609
C  C72  1  0.69850000  0.40351000  0.39543000  1.0 -0.0590692076
C  C73  1  0.75810000  0.39780000  0.38650000  1.0 -0.0784215907
C  C74  1  0.78910000  0.42440000  0.35210000  1.0 -0.1776798057
C  C75  1  0.75540000  0.45604000  0.32621000  1.0 0.269366939
C  C76  1  0.69620000  0.46040000  0.33110000  1.0 -0.1893994729
C  C77  1  0.66790000  0.43370000  0.36740000  1.0 -0.069250622
C  C78  1  0.52810000  0.66898000  0.43262000  1.0 0.6034245266
C  C79  1  0.56650000  0.66062000  0.39065000  1.0 -0.0590692076
C  C80  1  0.56640000  0.61690000  0.36790000  1.0 -0.069250622
C  C81  1  0.60060000  0.60960000  0.32800000  1.0 -0.1893994729
C  C82  1  0.63790000  0.64511000  0.31238000  1.0 0.2771233492
C  C83  1  0.64170000  0.68800000  0.33520000  1.0 -0.1893994729
C  C84  1  0.60580000  0.69530000  0.37380000  1.0 -0.0784215907
C  C85  1  0.19350000  0.06692000  0.93880000  1.0 0.6034245266
C  C86  1  0.23110000  0.03238000  0.90989000  1.0 -0.038141872
C  C87  1  0.21410000  0.98563000  0.90940000  1.0 -0.0784215907
C  C88  1  0.24830000  0.95214000  0.88400000  1.0 -0.1893994729
C  C89  1  0.29690000  0.96573000  0.86053000  1.0 0.2626187278
C  C90  1  0.31520000  0.01258000  0.86080000  1.0 -0.169280184
C  C91  1  0.28100000  0.04560000  0.88460000  1.0 -0.0784215907
C  C92  1  0.37580000  0.72871000  0.93314000  1.0 0.6104516609
C  C93  1  0.37110000  0.76461000  0.89418000  1.0 -0.0491261554
C  C94  1  0.41940000  0.78960000  0.87950000  1.0 -0.0784215907
C  C95  1  0.41600000  0.82300000  0.84260000  1.0 -0.1893994729
C  C96  1  0.36260000  0.83196000  0.82324000  1.0 0.269366939
C  C97  1  0.31190000  0.80710000  0.83780000  1.0 -0.1893994729
C  C98  1  0.31790000  0.77270000  0.87320000  1.0 -0.0784215907
C  C99  1  0.37890000  0.78586000  0.56133000  1.0 0.6104516609
C  C100  1  0.36390000  0.82910000  0.58913000  1.0 -0.0590692076
C  C101  1  0.30540000  0.84080000  0.59710000  1.0 -0.069250622
C  C102  1  0.28960000  0.88360000  0.62000000  1.0 -0.1893994729
C  C103  1  0.33390000  0.91175000  0.63618000  1.0 0.269366939
C  C104  1  0.39280000  0.90030000  0.63070000  1.0 -0.1776798057
C  C105  1  0.40800000  0.85840000  0.60630000  1.0 -0.0784215907
C  C106  1  0.01030000  0.89525000  0.93308000  1.0 0.6104516609
C  C107  1  0.04770000  0.90449000  0.89003000  1.0 -0.038141872
C  C108  1  0.07280000  0.86840000  0.86550000  1.0 -0.0784215907
C  C109  1  0.10530000  0.87778000  0.82390000  1.0 -0.1977755239
C  C110  1  0.11340000  0.92284000  0.80990000  1.0 0.269366939
C  C111  1  0.09020000  0.95870000  0.83429000  1.0 -0.1893994729
C  C112  1  0.05610000  0.94938000  0.87440000  1.0 -0.0889563041
C  C113  1  0.16780000  0.12313000  0.56591000  1.0 0.6104516609
C  C114  1  0.19850000  0.09649000  0.60457000  1.0 -0.0590692076
C  C115  1  0.25810000  0.10220000  0.61350000  1.0 -0.0784215907
C  C116  1  0.28910000  0.07560000  0.64790000  1.0 -0.1893994729
C  C117  1  0.25540000  0.04396000  0.67379000  1.0 0.269366939
C  C118  1  0.19620000  0.03960000  0.66890000  1.0 -0.1893994729
C  C119  1  0.16790000  0.06630000  0.63260000  1.0 -0.069250622
C  C120  1  0.02810000  0.83102000  0.56738000  1.0 0.6034245266
C  C121  1  0.06650000  0.83938000  0.60935000  1.0 -0.0590692076
C  C122  1  0.06640000  0.88310000  0.63210000  1.0 -0.069250622
C  C123  1  0.10060000  0.89040000  0.67200000  1.0 -0.1893994729
C  C124  1  0.13790000  0.85489000  0.68762000  1.0 0.2771233492
C  C125  1  0.14170000  0.81200000  0.66480000  1.0 -0.1893994729
C  C126  1  0.10580000  0.80470000  0.62620000  1.0 -0.0784215907
C  C127  1  0.80650000  0.93308000  0.93880000  1.0 0.6034245266
C  C128  1  0.76890000  0.96762000  0.90989000  1.0 -0.038141872
C  C129  1  0.78590000  0.01437000  0.90940000  1.0 -0.0784215907
C  C130  1  0.75170000  0.04786000  0.88400000  1.0 -0.1893994729
C  C131  1  0.70310000  0.03427000  0.86053000  1.0 0.2626187278
C  C132  1  0.68480000  0.98742000  0.86080000  1.0 -0.169280184
C  C133  1  0.71900000  0.95440000  0.88460000  1.0 -0.0784215907
C  C134  1  0.62420000  0.27129000  0.93314000  1.0 0.6104516609
C  C135  1  0.62890000  0.23539000  0.89418000  1.0 -0.0491261554
C  C136  1  0.58060000  0.21040000  0.87950000  1.0 -0.0784215907
C  C137  1  0.58400000  0.17700000  0.84260000  1.0 -0.1893994729
C  C138  1  0.63740000  0.16804000  0.82324000  1.0 0.269366939
C  C139  1  0.68810000  0.19290000  0.83780000  1.0 -0.1893994729
C  C140  1  0.68210000  0.22730000  0.87320000  1.0 -0.0784215907
C  C141  1  0.62110000  0.21414000  0.56133000  1.0 0.6104516609
C  C142  1  0.63610000  0.17090000  0.58913000  1.0 -0.0590692076
C  C143  1  0.69460000  0.15920000  0.59710000  1.0 -0.069250622
C  C144  1  0.71040000  0.11640000  0.62000000  1.0 -0.1893994729
C  C145  1  0.66610000  0.08825000  0.63618000  1.0 0.269366939
C  C146  1  0.60720000  0.09970000  0.63070000  1.0 -0.1776798057
C  C147  1  0.59200000  0.14160000  0.60630000  1.0 -0.069250622
C  C148  1  0.98970000  0.10475000  0.93308000  1.0 0.6104516609
C  C149  1  0.95230000  0.09551000  0.89003000  1.0 -0.038141872
C  C150  1  0.92720000  0.13160000  0.86550000  1.0 -0.0784215907
C  C151  1  0.89470000  0.12222000  0.82390000  1.0 -0.1977755239
C  C152  1  0.88660000  0.07716000  0.80990000  1.0 0.269366939
C  C153  1  0.90980000  0.04130000  0.83429000  1.0 -0.1893994729
C  C154  1  0.94390000  0.05062000  0.87440000  1.0 -0.0889563041
C  C155  1  0.83220000  0.87687000  0.56591000  1.0 0.6104516609
C  C156  1  0.80150000  0.90351000  0.60457000  1.0 -0.0590692076
C  C157  1  0.74190000  0.89780000  0.61350000  1.0 -0.0784215907
C  C158  1  0.71090000  0.92440000  0.64790000  1.0 -0.1893994729
C  C159  1  0.74460000  0.95604000  0.67379000  1.0 0.269366939
C  C160  1  0.80380000  0.96040000  0.66890000  1.0 -0.1893994729
C  C161  1  0.83210000  0.93370000  0.63260000  1.0 -0.069250622
C  C162  1  0.97190000  0.16898000  0.56738000  1.0 0.6034245266
C  C163  1  0.93350000  0.16062000  0.60935000  1.0 -0.0590692076
C  C164  1  0.93360000  0.11690000  0.63210000  1.0 -0.069250622
C  C165  1  0.89940000  0.10960000  0.67200000  1.0 -0.1893994729
C  C166  1  0.86210000  0.14511000  0.68762000  1.0 0.2771233492
C  C167  1  0.85830000  0.18800000  0.66480000  1.0 -0.1893994729
C  C168  1  0.89420000  0.19530000  0.62620000  1.0 -0.0784215907
C  C169  1  0.69350000  0.43308000  0.93880000  1.0 0.6034245266
C  C170  1  0.73110000  0.46762000  0.90989000  1.0 -0.038141872
C  C171  1  0.71410000  0.51437000  0.90940000  1.0 -0.0784215907
C  C172  1  0.74830000  0.54786000  0.88400000  1.0 -0.1893994729
C  C173  1  0.79690000  0.53427000  0.86053000  1.0 0.2626187278
C  C174  1  0.81520000  0.48742000  0.86080000  1.0 -0.169280184
C  C175  1  0.78100000  0.45440000  0.88460000  1.0 -0.0784215907
C  C176  1  0.87580000  0.77129000  0.93314000  1.0 0.6104516609
C  C177  1  0.87110000  0.73539000  0.89418000  1.0 -0.0491261554
C  C178  1  0.91940000  0.71040000  0.87950000  1.0 -0.0784215907
C  C179  1  0.91600000  0.67700000  0.84260000  1.0 -0.1893994729
C  C180  1  0.86260000  0.66804000  0.82324000  1.0 0.269366939
C  C181  1  0.81190000  0.69290000  0.83780000  1.0 -0.1893994729
C  C182  1  0.81790000  0.72730000  0.87320000  1.0 -0.0784215907
C  C183  1  0.87890000  0.71414000  0.56133000  1.0 0.6104516609
C  C184  1  0.86390000  0.67090000  0.58913000  1.0 -0.0590692076
C  C185  1  0.80540000  0.65920000  0.59710000  1.0 -0.069250622
C  C186  1  0.78960000  0.61640000  0.62000000  1.0 -0.1893994729
C  C187  1  0.83390000  0.58825000  0.63618000  1.0 0.269366939
C  C188  1  0.89280000  0.59970000  0.63070000  1.0 -0.1776798057
C  C189  1  0.90800000  0.64160000  0.60630000  1.0 -0.069250622
C  C190  1  0.51030000  0.60475000  0.93308000  1.0 0.6104516609
C  C191  1  0.54770000  0.59551000  0.89003000  1.0 -0.038141872
C  C192  1  0.57280000  0.63160000  0.86550000  1.0 -0.0784215907
C  C193  1  0.60530000  0.62222000  0.82390000  1.0 -0.1977755239
C  C194  1  0.61340000  0.57716000  0.80990000  1.0 0.269366939
C  C195  1  0.59020000  0.54130000  0.83429000  1.0 -0.1893994729
C  C196  1  0.55610000  0.55062000  0.87440000  1.0 -0.0889563041
C  C197  1  0.66780000  0.37687000  0.56591000  1.0 0.6104516609
C  C198  1  0.69850000  0.40351000  0.60457000  1.0 -0.0590692076
C  C199  1  0.75810000  0.39780000  0.61350000  1.0 -0.0784215907
C  C200  1  0.78910000  0.42440000  0.64790000  1.0 -0.1893994729
C  C201  1  0.75540000  0.45604000  0.67379000  1.0 0.269366939
C  C202  1  0.69620000  0.46040000  0.66890000  1.0 -0.1893994729
C  C203  1  0.66790000  0.43370000  0.63260000  1.0 -0.069250622
C  C204  1  0.52810000  0.66898000  0.56738000  1.0 0.6034245266
C  C205  1  0.56650000  0.66062000  0.60935000  1.0 -0.0590692076
C  C206  1  0.56640000  0.61690000  0.63210000  1.0 -0.069250622
C  C207  1  0.60060000  0.60960000  0.67200000  1.0 -0.1893994729
C  C208  1  0.63790000  0.64511000  0.68762000  1.0 0.2771233492
C  C209  1  0.64170000  0.68800000  0.66480000  1.0 -0.1893994729
C  C210  1  0.60580000  0.69530000  0.62620000  1.0 -0.0784215907
C  C211  1  0.30650000  0.56692000  0.93880000  1.0 0.6034245266
C  C212  1  0.26890000  0.53238000  0.90989000  1.0 -0.038141872
C  C213  1  0.28590000  0.48563000  0.90940000  1.0 -0.0784215907
C  C214  1  0.25170000  0.45214000  0.88400000  1.0 -0.1893994729
C  C215  1  0.20310000  0.46573000  0.86053000  1.0 0.2626187278
C  C216  1  0.18480000  0.51258000  0.86080000  1.0 -0.169280184
C  C217  1  0.21900000  0.54560000  0.88460000  1.0 -0.0784215907
C  C218  1  0.12420000  0.22871000  0.93314000  1.0 0.6104516609
C  C219  1  0.12890000  0.26461000  0.89418000  1.0 -0.0491261554
C  C220  1  0.08060000  0.28960000  0.87950000  1.0 -0.0784215907
C  C221  1  0.08400000  0.32300000  0.84260000  1.0 -0.1893994729
C  C222  1  0.13740000  0.33196000  0.82324000  1.0 0.269366939
C  C223  1  0.18810000  0.30710000  0.83780000  1.0 -0.1893994729
C  C224  1  0.18210000  0.27270000  0.87320000  1.0 -0.0784215907
C  C225  1  0.12110000  0.28586000  0.56133000  1.0 0.6104516609
C  C226  1  0.13610000  0.32910000  0.58913000  1.0 -0.0590692076
C  C227  1  0.19460000  0.34080000  0.59710000  1.0 -0.069250622
C  C228  1  0.21040000  0.38360000  0.62000000  1.0 -0.1893994729
C  C229  1  0.16610000  0.41175000  0.63618000  1.0 0.269366939
C  C230  1  0.10720000  0.40030000  0.63070000  1.0 -0.1776798057
C  C231  1  0.09200000  0.35840000  0.60630000  1.0 -0.0784215907
C  C232  1  0.48970000  0.39525000  0.93308000  1.0 0.6104516609
C  C233  1  0.45230000  0.40449000  0.89003000  1.0 -0.038141872
C  C234  1  0.42720000  0.36840000  0.86550000  1.0 -0.0784215907
C  C235  1  0.39470000  0.37778000  0.82390000  1.0 -0.1977755239
C  C236  1  0.38660000  0.42284000  0.80990000  1.0 0.269366939
C  C237  1  0.40980000  0.45870000  0.83429000  1.0 -0.1893994729
C  C238  1  0.44390000  0.44938000  0.87440000  1.0 -0.0889563041
C  C239  1  0.33220000  0.62313000  0.56591000  1.0 0.6104516609
C  C240  1  0.30150000  0.59649000  0.60457000  1.0 -0.0590692076
C  C241  1  0.24190000  0.60220000  0.61350000  1.0 -0.0784215907
C  C242  1  0.21090000  0.57560000  0.64790000  1.0 -0.1893994729
C  C243  1  0.24460000  0.54396000  0.67379000  1.0 0.269366939
C  C244  1  0.30380000  0.53960000  0.66890000  1.0 -0.1893994729
C  C245  1  0.33210000  0.56630000  0.63260000  1.0 -0.069250622
C  C246  1  0.47190000  0.33102000  0.56738000  1.0 0.6034245266
C  C247  1  0.43350000  0.33938000  0.60935000  1.0 -0.0590692076
C  C248  1  0.43360000  0.38310000  0.63210000  1.0 -0.069250622
C  C249  1  0.39940000  0.39040000  0.67200000  1.0 -0.1893994729
C  C250  1  0.36210000  0.35489000  0.68762000  1.0 0.2771233492
C  C251  1  0.35830000  0.31200000  0.66480000  1.0 -0.1893994729
C  C252  1  0.39420000  0.30470000  0.62620000  1.0 -0.0784215907
C  C253  1  0.80650000  0.93308000  0.06120000  1.0 0.6034245266
C  C254  1  0.76890000  0.96762000  0.09011000  1.0 -0.038141872
C  C255  1  0.78590000  0.01437000  0.09060000  1.0 -0.0784215907
C  C256  1  0.75170000  0.04786000  0.11600000  1.0 -0.1893994729
C  C257  1  0.70310000  0.03427000  0.13947000  1.0 0.2626187278
C  C258  1  0.68480000  0.98742000  0.13920000  1.0 -0.169280184
C  C259  1  0.71900000  0.95440000  0.11540000  1.0 -0.0784215907
C  C260  1  0.62420000  0.27129000  0.06686000  1.0 0.6104516609
C  C261  1  0.62890000  0.23539000  0.10582000  1.0 -0.0491261554
C  C262  1  0.58060000  0.21040000  0.12050000  1.0 -0.0784215907
C  C263  1  0.58400000  0.17700000  0.15740000  1.0 -0.1893994729
C  C264  1  0.63740000  0.16804000  0.17676000  1.0 0.2771233492
C  C265  1  0.68810000  0.19290000  0.16220000  1.0 -0.1893994729
C  C266  1  0.68210000  0.22730000  0.12680000  1.0 -0.0784215907
C  C267  1  0.62110000  0.21414000  0.43867000  1.0 0.6104516609
C  C268  1  0.63610000  0.17090000  0.41087000  1.0 -0.0590692076
C  C269  1  0.69460000  0.15920000  0.40290000  1.0 -0.069250622
C  C270  1  0.71040000  0.11640000  0.38000000  1.0 -0.1893994729
C  C271  1  0.66610000  0.08825000  0.36382000  1.0 0.269366939
C  C272  1  0.60720000  0.09970000  0.36930000  1.0 -0.169280184
C  C273  1  0.59200000  0.14160000  0.39370000  1.0 -0.0784215907
C  C274  1  0.98970000  0.10475000  0.06692000  1.0 0.6104516609
C  C275  1  0.95230000  0.09551000  0.10997000  1.0 -0.038141872
C  C276  1  0.92720000  0.13160000  0.13450000  1.0 -0.0784215907
C  C277  1  0.89470000  0.12222000  0.17610000  1.0 -0.1977755239
C  C278  1  0.88660000  0.07716000  0.19010000  1.0 0.269366939
C  C279  1  0.90980000  0.04130000  0.16571000  1.0 -0.1893994729
C  C280  1  0.94390000  0.05062000  0.12560000  1.0 -0.0889563041
C  C281  1  0.83220000  0.87687000  0.43409000  1.0 0.6104516609
C  C282  1  0.80150000  0.90351000  0.39543000  1.0 -0.0590692076
C  C283  1  0.74190000  0.89780000  0.38650000  1.0 -0.0784215907
C  C284  1  0.71090000  0.92440000  0.35210000  1.0 -0.1893994729
C  C285  1  0.74460000  0.95604000  0.32621000  1.0 0.269366939
C  C286  1  0.80380000  0.96040000  0.33110000  1.0 -0.1893994729
C  C287  1  0.83210000  0.93370000  0.36740000  1.0 -0.069250622
C  C288  1  0.97190000  0.16898000  0.43262000  1.0 0.6034245266
C  C289  1  0.93350000  0.16062000  0.39065000  1.0 -0.0590692076
C  C290  1  0.93360000  0.11690000  0.36790000  1.0 -0.069250622
C  C291  1  0.89940000  0.10960000  0.32800000  1.0 -0.1893994729
C  C292  1  0.86210000  0.14511000  0.31238000  1.0 0.2771233492
C  C293  1  0.85830000  0.18800000  0.33520000  1.0 -0.1893994729
C  C294  1  0.89420000  0.19530000  0.37380000  1.0 -0.0784215907
C  C295  1  0.19350000  0.06692000  0.06120000  1.0 0.6034245266
C  C296  1  0.23110000  0.03238000  0.09011000  1.0 -0.038141872
C  C297  1  0.21410000  0.98563000  0.09060000  1.0 -0.0784215907
C  C298  1  0.24830000  0.95214000  0.11600000  1.0 -0.1893994729
C  C299  1  0.29690000  0.96573000  0.13947000  1.0 0.2626187278
C  C300  1  0.31520000  0.01258000  0.13920000  1.0 -0.169280184
C  C301  1  0.28100000  0.04560000  0.11540000  1.0 -0.0784215907
C  C302  1  0.37580000  0.72871000  0.06686000  1.0 0.6104516609
C  C303  1  0.37110000  0.76461000  0.10582000  1.0 -0.0491261554
C  C304  1  0.41940000  0.78960000  0.12050000  1.0 -0.0784215907
C  C305  1  0.41600000  0.82300000  0.15740000  1.0 -0.1893994729
C  C306  1  0.36260000  0.83196000  0.17676000  1.0 0.2771233492
C  C307  1  0.31190000  0.80710000  0.16220000  1.0 -0.1893994729
C  C308  1  0.31790000  0.77270000  0.12680000  1.0 -0.0784215907
C  C309  1  0.37890000  0.78586000  0.43867000  1.0 0.6104516609
C  C310  1  0.36390000  0.82910000  0.41087000  1.0 -0.0590692076
C  C311  1  0.30540000  0.84080000  0.40290000  1.0 -0.069250622
C  C312  1  0.28960000  0.88360000  0.38000000  1.0 -0.1893994729
C  C313  1  0.33390000  0.91175000  0.36382000  1.0 0.269366939
C  C314  1  0.39280000  0.90030000  0.36930000  1.0 -0.169280184
C  C315  1  0.40800000  0.85840000  0.39370000  1.0 -0.0784215907
C  C316  1  0.01030000  0.89525000  0.06692000  1.0 0.6104516609
C  C317  1  0.04770000  0.90449000  0.10997000  1.0 -0.038141872
C  C318  1  0.07280000  0.86840000  0.13450000  1.0 -0.0784215907
C  C319  1  0.10530000  0.87778000  0.17610000  1.0 -0.1977755239
C  C320  1  0.11340000  0.92284000  0.19010000  1.0 0.269366939
C  C321  1  0.09020000  0.95870000  0.16571000  1.0 -0.1893994729
C  C322  1  0.05610000  0.94938000  0.12560000  1.0 -0.0889563041
C  C323  1  0.16780000  0.12313000  0.43409000  1.0 0.6104516609
C  C324  1  0.19850000  0.09649000  0.39543000  1.0 -0.0590692076
C  C325  1  0.25810000  0.10220000  0.38650000  1.0 -0.0784215907
C  C326  1  0.28910000  0.07560000  0.35210000  1.0 -0.1893994729
C  C327  1  0.25540000  0.04396000  0.32621000  1.0 0.269366939
C  C328  1  0.19620000  0.03960000  0.33110000  1.0 -0.1893994729
C  C329  1  0.16790000  0.06630000  0.36740000  1.0 -0.069250622
C  C330  1  0.02810000  0.83102000  0.43262000  1.0 0.6034245266
C  C331  1  0.06650000  0.83938000  0.39065000  1.0 -0.0590692076
C  C332  1  0.06640000  0.88310000  0.36790000  1.0 -0.069250622
C  C333  1  0.10060000  0.89040000  0.32800000  1.0 -0.1893994729
C  C334  1  0.13790000  0.85489000  0.31238000  1.0 0.2771233492
C  C335  1  0.14170000  0.81200000  0.33520000  1.0 -0.1893994729
C  C336  1  0.10580000  0.80470000  0.37380000  1.0 -0.0784215907
N  N1  1  0.16474000  0.44476000  0.25283000  1.0 -0.7885286736
N  N2  1  0.27517000  0.43858000  0.29418000  1.0 -0.8250489162
N  N3  1  0.25309000  0.39275000  0.21194000  1.0 -0.8135410475
N  N4  1  0.83526000  0.55524000  0.25283000  1.0 -0.7885286736
N  N5  1  0.72483000  0.56142000  0.29418000  1.0 -0.8250489162
N  N6  1  0.74691000  0.60725000  0.21194000  1.0 -0.8135410475
N  N7  1  0.33526000  0.94476000  0.74717000  1.0 -0.7885286736
N  N8  1  0.22483000  0.93858000  0.70582000  1.0 -0.8250489162
N  N9  1  0.24691000  0.89275000  0.78806000  1.0 -0.8135410475
N  N10  1  0.66474000  0.05524000  0.74717000  1.0 -0.7885286736
N  N11  1  0.77517000  0.06142000  0.70582000  1.0 -0.8250489162
N  N12  1  0.75309000  0.10725000  0.78806000  1.0 -0.8135410475
N  N13  1  0.83526000  0.55524000  0.74717000  1.0 -0.7885286736
N  N14  1  0.72483000  0.56142000  0.70582000  1.0 -0.8250489162
N  N15  1  0.74691000  0.60725000  0.78806000  1.0 -0.8135410475
N  N16  1  0.16474000  0.44476000  0.74717000  1.0 -0.7885286736
N  N17  1  0.27517000  0.43858000  0.70582000  1.0 -0.8250489162
N  N18  1  0.25309000  0.39275000  0.78806000  1.0 -0.8135410475
N  N19  1  0.66474000  0.05524000  0.25283000  1.0 -0.7885286736
N  N20  1  0.77517000  0.06142000  0.29418000  1.0 -0.8250489162
N  N21  1  0.75309000  0.10725000  0.21194000  1.0 -0.8135410475
N  N22  1  0.33526000  0.94476000  0.25283000  1.0 -0.7885286736
N  N23  1  0.22483000  0.93858000  0.29418000  1.0 -0.8250489162
N  N24  1  0.24691000  0.89275000  0.21194000  1.0 -0.8135410475
O  O1  1  0.16791000  0.43136000  0.16239000  1.0 -0.4199363148
O  O2  1  0.14006000  0.36626000  0.21334000  1.0 -0.4199363148
O  O3  1  0.35411000  0.43469000  0.23163000  1.0 -0.4276083226
O  O4  1  0.32450000  0.35885000  0.27196000  1.0 -0.4199363148
O  O5  1  0.17862000  0.45634000  0.34325000  1.0 -0.4199363148
O  O6  1  0.21377000  0.51777000  0.29088000  1.0 -0.4199363148
O  O7  1  0.35620000  0.55187000  0.04880000  1.0 -0.5377169974
O  O8  1  0.28490000  0.60697000  0.05139000  1.0 -0.55781773
O  O9  1  0.51941000  0.42904000  0.04965000  1.0 -0.5377169974
O  O10  1  0.48895000  0.35282000  0.05127000  1.0 -0.55781773
O  O11  1  0.07150000  0.22238000  0.05055000  1.0 -0.55781773
O  O12  1  0.17020000  0.20818000  0.05336000  1.0 -0.5236689972
O  O13  1  0.47541000  0.29009000  0.44831000  1.0 -0.5305508363
O  O14  1  0.49960000  0.36651000  0.44877000  1.0 -0.5492647913
O  O15  1  0.16191000  0.25874000  0.45093000  1.0 -0.5305508363
O  O16  1  0.06670000  0.28031000  0.45095000  1.0 -0.5492647913
O  O17  1  0.38050000  0.60615000  0.44957000  1.0 -0.5377169974
O  O18  1  0.30681000  0.66022000  0.44995000  1.0 -0.5492647913
O  O19  1  0.83209000  0.56864000  0.16239000  1.0 -0.4199363148
O  O20  1  0.85994000  0.63374000  0.21334000  1.0 -0.4199363148
O  O21  1  0.64589000  0.56531000  0.23163000  1.0 -0.4276083226
O  O22  1  0.67550000  0.64115000  0.27196000  1.0 -0.4199363148
O  O23  1  0.82138000  0.54366000  0.34325000  1.0 -0.4199363148
O  O24  1  0.78623000  0.48223000  0.29088000  1.0 -0.4199363148
O  O25  1  0.64380000  0.44813000  0.04880000  1.0 -0.5377169974
O  O26  1  0.71510000  0.39303000  0.05139000  1.0 -0.55781773
O  O27  1  0.48059000  0.57096000  0.04965000  1.0 -0.5377169974
O  O28  1  0.51105000  0.64718000  0.05127000  1.0 -0.55781773
O  O29  1  0.92850000  0.77762000  0.05055000  1.0 -0.55781773
O  O30  1  0.82980000  0.79182000  0.05336000  1.0 -0.5236689972
O  O31  1  0.52459000  0.70991000  0.44831000  1.0 -0.5305508363
O  O32  1  0.50040000  0.63349000  0.44877000  1.0 -0.5492647913
O  O33  1  0.83809000  0.74126000  0.45093000  1.0 -0.5305508363
O  O34  1  0.93330000  0.71969000  0.45095000  1.0 -0.5492647913
O  O35  1  0.61950000  0.39385000  0.44957000  1.0 -0.5377169974
O  O36  1  0.69319000  0.33978000  0.44995000  1.0 -0.5492647913
O  O37  1  0.33209000  0.93136000  0.83761000  1.0 -0.4199363148
O  O38  1  0.35994000  0.86626000  0.78666000  1.0 -0.4199363148
O  O39  1  0.14589000  0.93469000  0.76837000  1.0 -0.4276083226
O  O40  1  0.17550000  0.85885000  0.72804000  1.0 -0.4199363148
O  O41  1  0.32138000  0.95634000  0.65675000  1.0 -0.4199363148
O  O42  1  0.28623000  0.01777000  0.70912000  1.0 -0.4199363148
O  O43  1  0.14380000  0.05187000  0.95120000  1.0 -0.5377169974
O  O44  1  0.21510000  0.10697000  0.94861000  1.0 -0.55781773
O  O45  1  0.98059000  0.92904000  0.95035000  1.0 -0.5377169974
O  O46  1  0.01105000  0.85282000  0.94873000  1.0 -0.55781773
O  O47  1  0.42850000  0.72238000  0.94945000  1.0 -0.55781773
O  O48  1  0.32980000  0.70818000  0.94664000  1.0 -0.5305508363
O  O49  1  0.02459000  0.79009000  0.55169000  1.0 -0.5305508363
O  O50  1  0.00040000  0.86651000  0.55123000  1.0 -0.5492647913
O  O51  1  0.33809000  0.75874000  0.54907000  1.0 -0.5305508363
O  O52  1  0.43330000  0.78031000  0.54905000  1.0 -0.5492647913
O  O53  1  0.11950000  0.10615000  0.55043000  1.0 -0.5377169974
O  O54  1  0.19319000  0.16022000  0.55005000  1.0 -0.5492647913
O  O55  1  0.66791000  0.06864000  0.83761000  1.0 -0.4199363148
O  O56  1  0.64006000  0.13374000  0.78666000  1.0 -0.4149272965
O  O57  1  0.85411000  0.06531000  0.76837000  1.0 -0.4276083226
O  O58  1  0.82450000  0.14115000  0.72804000  1.0 -0.4199363148
O  O59  1  0.67862000  0.04366000  0.65675000  1.0 -0.4199363148
O  O60  1  0.71377000  0.98223000  0.70912000  1.0 -0.4199363148
O  O61  1  0.85620000  0.94813000  0.95120000  1.0 -0.5377169974
O  O62  1  0.78490000  0.89303000  0.94861000  1.0 -0.55781773
O  O63  1  0.01941000  0.07096000  0.95035000  1.0 -0.5377169974
O  O64  1  0.98895000  0.14718000  0.94873000  1.0 -0.55781773
O  O65  1  0.57150000  0.27762000  0.94945000  1.0 -0.55781773
O  O66  1  0.67020000  0.29182000  0.94664000  1.0 -0.5305508363
O  O67  1  0.97541000  0.20991000  0.55169000  1.0 -0.5305508363
O  O68  1  0.99960000  0.13349000  0.55123000  1.0 -0.5492647913
O  O69  1  0.66191000  0.24126000  0.54907000  1.0 -0.5305508363
O  O70  1  0.56670000  0.21969000  0.54905000  1.0 -0.5492647913
O  O71  1  0.88050000  0.89385000  0.55043000  1.0 -0.5377169974
O  O72  1  0.80681000  0.83978000  0.55005000  1.0 -0.5492647913
O  O73  1  0.83209000  0.56864000  0.83761000  1.0 -0.4199363148
O  O74  1  0.85994000  0.63374000  0.78666000  1.0 -0.4149272965
O  O75  1  0.64589000  0.56531000  0.76837000  1.0 -0.4276083226
O  O76  1  0.67550000  0.64115000  0.72804000  1.0 -0.4199363148
O  O77  1  0.82138000  0.54366000  0.65675000  1.0 -0.4199363148
O  O78  1  0.78623000  0.48223000  0.70912000  1.0 -0.4199363148
O  O79  1  0.64380000  0.44813000  0.95120000  1.0 -0.5377169974
O  O80  1  0.71510000  0.39303000  0.94861000  1.0 -0.55781773
O  O81  1  0.48059000  0.57096000  0.95035000  1.0 -0.5377169974
O  O82  1  0.51105000  0.64718000  0.94873000  1.0 -0.55781773
O  O83  1  0.92850000  0.77762000  0.94945000  1.0 -0.55781773
O  O84  1  0.82980000  0.79182000  0.94664000  1.0 -0.5305508363
O  O85  1  0.52459000  0.70991000  0.55169000  1.0 -0.5305508363
O  O86  1  0.50040000  0.63349000  0.55123000  1.0 -0.5492647913
O  O87  1  0.83809000  0.74126000  0.54907000  1.0 -0.5305508363
O  O88  1  0.93330000  0.71969000  0.54905000  1.0 -0.5492647913
O  O89  1  0.61950000  0.39385000  0.55043000  1.0 -0.5377169974
O  O90  1  0.69319000  0.33978000  0.55005000  1.0 -0.5492647913
O  O91  1  0.16791000  0.43136000  0.83761000  1.0 -0.4199363148
O  O92  1  0.14006000  0.36626000  0.78666000  1.0 -0.4199363148
O  O93  1  0.35411000  0.43469000  0.76837000  1.0 -0.4276083226
O  O94  1  0.32450000  0.35885000  0.72804000  1.0 -0.4199363148
O  O95  1  0.17862000  0.45634000  0.65675000  1.0 -0.4199363148
O  O96  1  0.21377000  0.51777000  0.70912000  1.0 -0.4199363148
O  O97  1  0.35620000  0.55187000  0.95120000  1.0 -0.5377169974
O  O98  1  0.28490000  0.60697000  0.94861000  1.0 -0.55781773
O  O99  1  0.51941000  0.42904000  0.95035000  1.0 -0.5377169974
O  O100  1  0.48895000  0.35282000  0.94873000  1.0 -0.55781773
O  O101  1  0.07150000  0.22238000  0.94945000  1.0 -0.55781773
O  O102  1  0.17020000  0.20818000  0.94664000  1.0 -0.5305508363
O  O103  1  0.47541000  0.29009000  0.55169000  1.0 -0.5305508363
O  O104  1  0.49960000  0.36651000  0.55123000  1.0 -0.5492647913
O  O105  1  0.16191000  0.25874000  0.54907000  1.0 -0.5305508363
O  O106  1  0.06670000  0.28031000  0.54905000  1.0 -0.5492647913
O  O107  1  0.38050000  0.60615000  0.55043000  1.0 -0.5377169974
O  O108  1  0.30681000  0.66022000  0.55005000  1.0 -0.5492647913
O  O109  1  0.66791000  0.06864000  0.16239000  1.0 -0.4199363148
O  O110  1  0.64006000  0.13374000  0.21334000  1.0 -0.4199363148
O  O111  1  0.85411000  0.06531000  0.23163000  1.0 -0.4276083226
O  O112  1  0.82450000  0.14115000  0.27196000  1.0 -0.4199363148
O  O113  1  0.67862000  0.04366000  0.34325000  1.0 -0.4199363148
O  O114  1  0.71377000  0.98223000  0.29088000  1.0 -0.4199363148
O  O115  1  0.85620000  0.94813000  0.04880000  1.0 -0.5377169974
O  O116  1  0.78490000  0.89303000  0.05139000  1.0 -0.55781773
O  O117  1  0.01941000  0.07096000  0.04965000  1.0 -0.5377169974
O  O118  1  0.98895000  0.14718000  0.05127000  1.0 -0.55781773
O  O119  1  0.57150000  0.27762000  0.05055000  1.0 -0.55781773
O  O120  1  0.67020000  0.29182000  0.05336000  1.0 -0.5236689972
O  O121  1  0.97541000  0.20991000  0.44831000  1.0 -0.5305508363
O  O122  1  0.99960000  0.13349000  0.44877000  1.0 -0.5492647913
O  O123  1  0.66191000  0.24126000  0.45093000  1.0 -0.5305508363
O  O124  1  0.56670000  0.21969000  0.45095000  1.0 -0.5492647913
O  O125  1  0.88050000  0.89385000  0.44957000  1.0 -0.5377169974
O  O126  1  0.80681000  0.83978000  0.44995000  1.0 -0.5492647913
O  O127  1  0.33209000  0.93136000  0.16239000  1.0 -0.4199363148
O  O128  1  0.35994000  0.86626000  0.21334000  1.0 -0.4199363148
O  O129  1  0.14589000  0.93469000  0.23163000  1.0 -0.4276083226
O  O130  1  0.17550000  0.85885000  0.27196000  1.0 -0.4199363148
O  O131  1  0.32138000  0.95634000  0.34325000  1.0 -0.4199363148
O  O132  1  0.28623000  0.01777000  0.29088000  1.0 -0.4199363148
O  O133  1  0.14380000  0.05187000  0.04880000  1.0 -0.5377169974
O  O134  1  0.21510000  0.10697000  0.05139000  1.0 -0.55781773
O  O135  1  0.98059000  0.92904000  0.04965000  1.0 -0.5377169974
O  O136  1  0.01105000  0.85282000  0.05127000  1.0 -0.55781773
O  O137  1  0.42850000  0.72238000  0.05055000  1.0 -0.55781773
O  O138  1  0.32980000  0.70818000  0.05336000  1.0 -0.5236689972
O  O139  1  0.02459000  0.79009000  0.44831000  1.0 -0.5305508363
O  O140  1  0.00040000  0.86651000  0.44877000  1.0 -0.5492647913
O  O141  1  0.33809000  0.75874000  0.45093000  1.0 -0.5305508363
O  O142  1  0.43330000  0.78031000  0.45095000  1.0 -0.5492647913
O  O143  1  0.11950000  0.10615000  0.44957000  1.0 -0.5377169974
O  O144  1  0.19319000  0.16022000  0.44995000  1.0 -0.5492647913
O  O145  1  0.39970000  0.63504000  0.00000000  1.0 -0.9244491087
O  O146  1  0.60030000  0.36496000  0.00000000  1.0 -0.9244491087
O  O147  1  0.10030000  0.13504000  0.00000000  1.0 -0.9244491087
O  O148  1  0.89970000  0.86496000  0.00000000  1.0 -0.9244491087
O  O149  1  0.58520000  0.30963000  0.50000000  1.0 -0.9244491087
O  O150  1  0.41480000  0.69037000  0.50000000  1.0 -0.9265833723
O  O151  1  0.91480000  0.80963000  0.50000000  1.0 -0.9265833723
O  O152  1  0.08520000  0.19037000  0.50000000  1.0 -0.9244491087
