# DDEC6 charges by PACMAN v1.1 (https://github.com/mtap-research/PACMAN-charge/)
data_ja9b10501_si_015_FSR_pacman
_symmetry_space_group_name_H-M   'P 1'
_cell_length_a   18.46410000
_cell_length_b   18.46410000
_cell_length_c   37.41930000
_cell_angle_alpha   90.00000000
_cell_angle_beta   90.00000000
_cell_angle_gamma   90.00000000
_symmetry_Int_Tables_number   1
_chemical_formula_structural   Al16H155.52C241.28O80
_chemical_formula_sum   'Al16 H155.52 C241.28 O80'
_cell_volume   12757.09959518
_cell_formula_units_Z   1
loop_
 _symmetry_equiv_pos_site_id
 _symmetry_equiv_pos_as_xyz
  1  'x, y, z'
loop_
 _atom_site_type_symbol
 _atom_site_label
 _atom_site_symmetry_multiplicity
 _atom_site_fract_x
 _atom_site_fract_y
 _atom_site_fract_z
 _atom_site_occupancy
 _atom_site_charge
Al  Al1  1  0.59002000  0.63653000  0.91971000  1.0 1.641286322
Al  Al2  1  0.40998000  0.36347000  0.91971000  1.0 1.641286322
Al  Al3  1  0.86347000  0.09002000  0.41971000  1.0 1.641286322
Al  Al4  1  0.13653000  0.90998000  0.41971000  1.0 1.641286322
Al  Al5  1  0.90998000  0.13653000  0.58029000  1.0 1.641286322
Al  Al6  1  0.09002000  0.86347000  0.58029000  1.0 1.641286322
Al  Al7  1  0.63653000  0.59002000  0.08029000  1.0 1.641286322
Al  Al8  1  0.36347000  0.40998000  0.08029000  1.0 1.641286322
Al  Al9  1  0.50000000  0.50000000  0.88535000  1.0 1.641286322
Al  Al10  1  0.00000000  0.00000000  0.38535000  1.0 1.641286322
Al  Al11  1  0.00000000  0.00000000  0.61465000  1.0 1.641286322
Al  Al12  1  0.50000000  0.50000000  0.11465000  1.0 1.641286322
Al  Al13  1  0.66508000  0.66508000  0.00000000  1.0 1.6634579783
Al  Al14  1  0.33492000  0.33492000  0.00000000  1.0 1.6634579783
Al  Al15  1  0.83492000  0.16508000  0.50000000  1.0 1.6634579783
Al  Al16  1  0.16508000  0.83492000  0.50000000  1.0 1.6634579783
H  H1  1  0.48522000  0.57073000  0.93888000  1.0 0.4292015319
H  H2  1  0.61483000  0.56087000  0.97032000  1.0 0.4206028914
H  H3  1  0.36256000  0.79114000  0.54899000  1.0 0.1312210663
H  H4  1  0.23563000  0.78444000  0.63702000  1.0 0.1312210663
H  H5  1  0.33841000  0.79329000  0.67318000  1.0 0.1187844279
H  H6  1  0.70374000  0.04602000  0.61176000  1.0 0.1312210663
H  H7  1  0.59556000  0.75943000  0.82788000  1.0 0.136251319
H  H8  1  0.46427000  0.79988000  0.58509000  1.0 0.1187844279
H  H9  1  0.48355000  0.59169000  0.78536000  1.0 0.1312210663
H  H10  1  0.59989000  0.81392000  0.77222000  1.0 0.1187844279
H  H11  1  0.43920000  0.74208000  0.69626000  1.0 0.113933761
H  H12  1  0.53104000  0.87596000  0.62348000  1.0 0.1187844279
H  H13  1  0.48534000  0.64965000  0.72964000  1.0 0.113933761
H  H14  1  0.83364000  0.88652000  0.65055000  1.0 0.1312210663
H  H15  1  0.60274000  0.98159000  0.63198000  1.0 0.1187844279
H  H16  1  0.63778000  0.82606000  0.71449000  1.0 0.113933761
H  H17  1  0.73417000  0.82482000  0.67099000  1.0 0.1187844279
H  H18  1  0.51478000  0.42927000  0.93888000  1.0 0.4292015319
H  H19  1  0.38517000  0.43913000  0.97032000  1.0 0.4206028914
H  H20  1  0.63744000  0.20886000  0.54899000  1.0 0.1312210663
H  H21  1  0.76437000  0.21556000  0.63702000  1.0 0.1312210663
H  H22  1  0.66159000  0.20671000  0.67318000  1.0 0.1187844279
H  H23  1  0.29626000  0.95398000  0.61176000  1.0 0.1312210663
H  H24  1  0.40444000  0.24057000  0.82788000  1.0 0.136251319
H  H25  1  0.53573000  0.20012000  0.58509000  1.0 0.1187844279
H  H26  1  0.51645000  0.40831000  0.78536000  1.0 0.1312210663
H  H27  1  0.40011000  0.18608000  0.77222000  1.0 0.1187844279
H  H28  1  0.56080000  0.25792000  0.69626000  1.0 0.113933761
H  H29  1  0.46896000  0.12404000  0.62348000  1.0 0.1187844279
H  H30  1  0.51466000  0.35035000  0.72964000  1.0 0.113933761
H  H31  1  0.16636000  0.11348000  0.65055000  1.0 0.1312210663
H  H32  1  0.39726000  0.01841000  0.63198000  1.0 0.1187844279
H  H33  1  0.36222000  0.17394000  0.71449000  1.0 0.113933761
H  H34  1  0.26583000  0.17518000  0.67099000  1.0 0.1187844279
H  H35  1  0.92927000  0.98522000  0.43888000  1.0 0.4292015319
H  H36  1  0.93913000  0.11483000  0.47032000  1.0 0.4206028914
H  H37  1  0.70886000  0.86256000  0.04899000  1.0 0.1312210663
H  H38  1  0.71556000  0.73563000  0.13702000  1.0 0.1312210663
H  H39  1  0.70671000  0.83841000  0.17318000  1.0 0.1187844279
H  H40  1  0.45398000  0.20374000  0.11176000  1.0 0.1312210663
H  H41  1  0.74057000  0.09556000  0.32788000  1.0 0.136251319
H  H42  1  0.70012000  0.96427000  0.08509000  1.0 0.1187844279
H  H43  1  0.90831000  0.98355000  0.28536000  1.0 0.1312210663
H  H44  1  0.68608000  0.09989000  0.27222000  1.0 0.1187844279
H  H45  1  0.75792000  0.93920000  0.19626000  1.0 0.113933761
H  H46  1  0.62404000  0.03104000  0.12348000  1.0 0.1187844279
H  H47  1  0.85035000  0.98534000  0.22964000  1.0 0.113933761
H  H48  1  0.61348000  0.33364000  0.15055000  1.0 0.1312210663
H  H49  1  0.51841000  0.10274000  0.13198000  1.0 0.1187844279
H  H50  1  0.67394000  0.13778000  0.21449000  1.0 0.113933761
H  H51  1  0.67518000  0.23417000  0.17099000  1.0 0.1187844279
H  H52  1  0.07073000  0.01478000  0.43888000  1.0 0.4292015319
H  H53  1  0.06087000  0.88517000  0.47032000  1.0 0.4206028914
H  H54  1  0.29114000  0.13744000  0.04899000  1.0 0.1312210663
H  H55  1  0.28444000  0.26437000  0.13702000  1.0 0.1312210663
H  H56  1  0.29329000  0.16159000  0.17318000  1.0 0.1187844279
H  H57  1  0.54602000  0.79626000  0.11176000  1.0 0.1312210663
H  H58  1  0.25943000  0.90444000  0.32788000  1.0 0.136251319
H  H59  1  0.29988000  0.03573000  0.08509000  1.0 0.1187844279
H  H60  1  0.09169000  0.01645000  0.28536000  1.0 0.1312210663
H  H61  1  0.31392000  0.90011000  0.27222000  1.0 0.1187844279
H  H62  1  0.24208000  0.06080000  0.19626000  1.0 0.113933761
H  H63  1  0.37596000  0.96896000  0.12348000  1.0 0.1187844279
H  H64  1  0.14965000  0.01466000  0.22964000  1.0 0.113933761
H  H65  1  0.38652000  0.66636000  0.15055000  1.0 0.1312210663
H  H66  1  0.48159000  0.89726000  0.13198000  1.0 0.1187844279
H  H67  1  0.32606000  0.86222000  0.21449000  1.0 0.113933761
H  H68  1  0.32482000  0.76583000  0.17099000  1.0 0.1187844279
H  H69  1  0.01478000  0.07073000  0.56112000  1.0 0.4292015319
H  H70  1  0.88517000  0.06087000  0.52968000  1.0 0.4206028914
H  H71  1  0.13744000  0.29114000  0.95101000  1.0 0.1312210663
H  H72  1  0.26437000  0.28444000  0.86298000  1.0 0.1312210663
H  H73  1  0.16159000  0.29329000  0.82682000  1.0 0.1187844279
H  H74  1  0.79626000  0.54602000  0.88824000  1.0 0.1312210663
H  H75  1  0.90444000  0.25943000  0.67212000  1.0 0.136251319
H  H76  1  0.03573000  0.29988000  0.91491000  1.0 0.1187844279
H  H77  1  0.01645000  0.09169000  0.71464000  1.0 0.1312210663
H  H78  1  0.90011000  0.31392000  0.72778000  1.0 0.1187844279
H  H79  1  0.06080000  0.24208000  0.80374000  1.0 0.113933761
H  H80  1  0.96896000  0.37596000  0.87652000  1.0 0.1187844279
H  H81  1  0.01466000  0.14965000  0.77036000  1.0 0.113933761
H  H82  1  0.66636000  0.38652000  0.84945000  1.0 0.1312210663
H  H83  1  0.89726000  0.48159000  0.86802000  1.0 0.1187844279
H  H84  1  0.86222000  0.32606000  0.78551000  1.0 0.113933761
H  H85  1  0.76583000  0.32482000  0.82901000  1.0 0.1187844279
H  H86  1  0.98522000  0.92927000  0.56112000  1.0 0.4292015319
H  H87  1  0.11483000  0.93913000  0.52968000  1.0 0.4206028914
H  H88  1  0.86256000  0.70886000  0.95101000  1.0 0.1312210663
H  H89  1  0.73563000  0.71556000  0.86298000  1.0 0.1312210663
H  H90  1  0.83841000  0.70671000  0.82682000  1.0 0.1187844279
H  H91  1  0.20374000  0.45398000  0.88824000  1.0 0.1312210663
H  H92  1  0.09556000  0.74057000  0.67212000  1.0 0.136251319
H  H93  1  0.96427000  0.70012000  0.91491000  1.0 0.1187844279
H  H94  1  0.98355000  0.90831000  0.71464000  1.0 0.1312210663
H  H95  1  0.09989000  0.68608000  0.72778000  1.0 0.1187844279
H  H96  1  0.93920000  0.75792000  0.80374000  1.0 0.113933761
H  H97  1  0.03104000  0.62404000  0.87652000  1.0 0.1187844279
H  H98  1  0.98534000  0.85035000  0.77036000  1.0 0.113933761
H  H99  1  0.33364000  0.61348000  0.84945000  1.0 0.1312210663
H  H100  1  0.10274000  0.51841000  0.86802000  1.0 0.1187844279
H  H101  1  0.13778000  0.67394000  0.78551000  1.0 0.113933761
H  H102  1  0.23417000  0.67518000  0.82901000  1.0 0.1187844279
H  H103  1  0.57073000  0.48522000  0.06112000  1.0 0.4292015319
H  H104  1  0.56087000  0.61483000  0.02968000  1.0 0.4206028914
H  H105  1  0.79114000  0.36256000  0.45101000  1.0 0.1312210663
H  H106  1  0.78444000  0.23563000  0.36298000  1.0 0.1312210663
H  H107  1  0.79329000  0.33841000  0.32682000  1.0 0.1187844279
H  H108  1  0.04602000  0.70374000  0.38824000  1.0 0.1312210663
H  H109  1  0.75943000  0.59556000  0.17212000  1.0 0.136251319
H  H110  1  0.79988000  0.46427000  0.41491000  1.0 0.1187844279
H  H111  1  0.59169000  0.48355000  0.21464000  1.0 0.1312210663
H  H112  1  0.81392000  0.59989000  0.22778000  1.0 0.1187844279
H  H113  1  0.74208000  0.43920000  0.30374000  1.0 0.113933761
H  H114  1  0.87596000  0.53104000  0.37652000  1.0 0.1187844279
H  H115  1  0.64965000  0.48534000  0.27036000  1.0 0.113933761
H  H116  1  0.88652000  0.83364000  0.34945000  1.0 0.1312210663
H  H117  1  0.98159000  0.60274000  0.36802000  1.0 0.1187844279
H  H118  1  0.82606000  0.63778000  0.28551000  1.0 0.113933761
H  H119  1  0.82482000  0.73417000  0.32901000  1.0 0.1187844279
H  H120  1  0.42927000  0.51478000  0.06112000  1.0 0.4292015319
H  H121  1  0.43913000  0.38517000  0.02968000  1.0 0.4206028914
H  H122  1  0.20886000  0.63744000  0.45101000  1.0 0.1312210663
H  H123  1  0.21556000  0.76437000  0.36298000  1.0 0.1312210663
H  H124  1  0.20671000  0.66159000  0.32682000  1.0 0.1187844279
H  H125  1  0.95398000  0.29626000  0.38824000  1.0 0.1312210663
H  H126  1  0.24057000  0.40444000  0.17212000  1.0 0.136251319
H  H127  1  0.20012000  0.53573000  0.41491000  1.0 0.1187844279
H  H128  1  0.40831000  0.51645000  0.21464000  1.0 0.1312210663
H  H129  1  0.18608000  0.40011000  0.22778000  1.0 0.1187844279
H  H130  1  0.25792000  0.56080000  0.30374000  1.0 0.113933761
H  H131  1  0.12404000  0.46896000  0.37652000  1.0 0.1187844279
H  H132  1  0.35035000  0.51466000  0.27036000  1.0 0.113933761
H  H133  1  0.11348000  0.16636000  0.34945000  1.0 0.1312210663
H  H134  1  0.01841000  0.39726000  0.36802000  1.0 0.1187844279
H  H135  1  0.17394000  0.36222000  0.28551000  1.0 0.113933761
H  H136  1  0.17518000  0.26583000  0.32901000  1.0 0.1187844279
H  H137  1  0.49669000  0.78147000  0.03684000  0.36 0.100253118
H  H138  1  0.43616000  0.82374000  0.93248000  0.36 0.100253118
H  H139  1  0.31750000  0.86455000  0.95621000  0.36 0.1312210663
H  H140  1  0.33231000  0.91746000  0.01552000  0.36 0.100253118
H  H141  1  0.39849000  0.85423000  0.06438000  0.36 0.100253118
H  H142  1  0.50331000  0.21853000  0.03684000  0.36 0.100253118
H  H143  1  0.56384000  0.17626000  0.93248000  0.36 0.100253118
H  H144  1  0.68250000  0.13545000  0.95621000  0.36 0.1312210663
H  H145  1  0.66769000  0.08254000  0.01552000  0.36 0.100253118
H  H146  1  0.60151000  0.14577000  0.06438000  0.36 0.100253118
H  H147  1  0.71853000  0.99669000  0.53684000  0.36 0.100253118
H  H148  1  0.67626000  0.93616000  0.43248000  0.36 0.100253118
H  H149  1  0.63545000  0.81750000  0.45621000  0.36 0.1312210663
H  H150  1  0.58254000  0.83231000  0.51552000  0.36 0.100253118
H  H151  1  0.64577000  0.89849000  0.56438000  0.36 0.100253118
H  H152  1  0.28147000  0.00331000  0.53684000  0.36 0.100253118
H  H153  1  0.32374000  0.06384000  0.43248000  0.36 0.100253118
H  H154  1  0.36455000  0.18250000  0.45621000  0.36 0.1312210663
H  H155  1  0.41746000  0.16769000  0.51552000  0.36 0.100253118
H  H156  1  0.35423000  0.10151000  0.56438000  0.36 0.100253118
H  H157  1  0.00331000  0.28147000  0.46316000  0.36 0.100253118
H  H158  1  0.06384000  0.32374000  0.56752000  0.36 0.100253118
H  H159  1  0.18250000  0.36455000  0.54379000  0.36 0.1312210663
H  H160  1  0.16769000  0.41746000  0.48448000  0.36 0.100253118
H  H161  1  0.10151000  0.35423000  0.43562000  0.36 0.100253118
H  H162  1  0.99669000  0.71853000  0.46316000  0.36 0.100253118
H  H163  1  0.93616000  0.67626000  0.56752000  0.36 0.100253118
H  H164  1  0.81750000  0.63545000  0.54379000  0.36 0.1312210663
H  H165  1  0.83231000  0.58254000  0.48448000  0.36 0.100253118
H  H166  1  0.89849000  0.64577000  0.43562000  0.36 0.100253118
H  H167  1  0.78147000  0.49669000  0.96316000  0.36 0.100253118
H  H168  1  0.82374000  0.43616000  0.06752000  0.36 0.100253118
H  H169  1  0.86455000  0.31750000  0.04379000  0.36 0.1312210663
H  H170  1  0.91746000  0.33231000  0.98448000  0.36 0.100253118
H  H171  1  0.85423000  0.39849000  0.93562000  0.36 0.100253118
H  H172  1  0.21853000  0.50331000  0.96316000  0.36 0.100253118
H  H173  1  0.17626000  0.56384000  0.06752000  0.36 0.100253118
H  H174  1  0.13545000  0.68250000  0.04379000  0.36 0.1312210663
H  H175  1  0.08254000  0.66769000  0.98448000  0.36 0.100253118
H  H176  1  0.14577000  0.60151000  0.93562000  0.36 0.100253118
H  H177  1  0.51713000  0.80593000  0.96785000  0.64 0.0852011121
H  H178  1  0.48287000  0.19407000  0.96785000  0.64 0.079171015
H  H179  1  0.69407000  0.01713000  0.46785000  0.64 0.079171015
H  H180  1  0.30593000  0.98287000  0.46785000  0.64 0.0852011121
H  H181  1  0.98287000  0.30593000  0.53215000  0.64 0.079171015
H  H182  1  0.01713000  0.69407000  0.53215000  0.64 0.079171015
H  H183  1  0.80593000  0.51713000  0.03215000  0.64 0.079171015
H  H184  1  0.19407000  0.48287000  0.03215000  0.64 0.079171015
C  C1  1  0.54135000  0.63155000  0.84704000  1.0 0.6272282785
C  C2  1  0.22334000  0.79080000  0.56699000  1.0 0.6272282785
C  C3  1  0.35727000  0.79220000  0.57424000  1.0 -0.0798780334
C  C4  1  0.54047000  0.66798000  0.81138000  1.0 -0.0407531024
C  C5  1  0.84519000  0.00762000  0.61435000  1.0 0.618107069
C  C6  1  0.28221000  0.78820000  0.62641000  1.0 -0.0798780334
C  C7  1  0.77865000  0.97109000  0.62767000  1.0 -0.0407531024
C  C8  1  0.34332000  0.79349000  0.64790000  1.0 -0.1495786125
C  C9  1  0.28905000  0.78838000  0.58927000  1.0 -0.053177547
C  C10  1  0.70975000  0.00053000  0.62325000  1.0 -0.0894435699
C  C11  1  0.57394000  0.73651000  0.80780000  1.0 -0.0979691644
C  C12  1  0.41066000  0.79900000  0.63275000  1.0 0.079171015
C  C13  1  0.41756000  0.79740000  0.59565000  1.0 -0.1495786125
C  C14  1  0.50715000  0.63712000  0.78282000  1.0 -0.0894435699
C  C15  1  0.57476000  0.76937000  0.77497000  1.0 -0.1408051329
C  C16  1  0.47910000  0.77080000  0.68877000  1.0 -0.1932648571
C  C17  1  0.53857000  0.77690000  0.71102000  1.0 0.079171015
C  C18  1  0.65838000  0.89740000  0.65395000  1.0 0.079171015
C  C19  1  0.54005000  0.73950000  0.74575000  1.0 0.079171015
C  C20  1  0.53356000  0.84970000  0.64526000  1.0 -0.1989476795
C  C21  1  0.50753000  0.67220000  0.74967000  1.0 -0.1495786125
C  C22  1  0.78658000  0.90562000  0.64648000  1.0 -0.0894435699
C  C23  1  0.64997000  0.96270000  0.63581000  1.0 -0.1495786125
C  C24  1  0.59493000  0.85510000  0.66691000  1.0 0.0852011121
C  C25  1  0.47572000  0.80540000  0.65574000  1.0 0.0852011121
C  C26  1  0.59664000  0.82040000  0.69950000  1.0 -0.1989476795
C  C27  1  0.72794000  0.86960000  0.65885000  1.0 -0.1408051329
C  C28  1  0.54142000  0.76066000  0.96653000  1.0 0.4292015319
C  C29  1  0.45865000  0.36845000  0.84704000  1.0 0.6272282785
C  C30  1  0.77666000  0.20920000  0.56699000  1.0 0.6272282785
C  C31  1  0.64273000  0.20780000  0.57424000  1.0 -0.0798780334
C  C32  1  0.45953000  0.33202000  0.81138000  1.0 -0.0407531024
C  C33  1  0.15481000  0.99238000  0.61435000  1.0 0.618107069
C  C34  1  0.71779000  0.21180000  0.62641000  1.0 -0.0798780334
C  C35  1  0.22135000  0.02891000  0.62767000  1.0 -0.0407531024
C  C36  1  0.65668000  0.20651000  0.64790000  1.0 -0.1495786125
C  C37  1  0.71095000  0.21162000  0.58927000  1.0 -0.053177547
C  C38  1  0.29025000  0.99947000  0.62325000  1.0 -0.0894435699
C  C39  1  0.42606000  0.26349000  0.80780000  1.0 -0.0979691644
C  C40  1  0.58934000  0.20100000  0.63275000  1.0 0.079171015
C  C41  1  0.58244000  0.20260000  0.59565000  1.0 -0.1495786125
C  C42  1  0.49285000  0.36288000  0.78282000  1.0 -0.0894435699
C  C43  1  0.42524000  0.23063000  0.77497000  1.0 -0.1408051329
C  C44  1  0.52090000  0.22920000  0.68877000  1.0 -0.1932648571
C  C45  1  0.46143000  0.22310000  0.71102000  1.0 0.079171015
C  C46  1  0.34162000  0.10260000  0.65395000  1.0 0.079171015
C  C47  1  0.45995000  0.26050000  0.74575000  1.0 0.079171015
C  C48  1  0.46644000  0.15030000  0.64526000  1.0 -0.1989476795
C  C49  1  0.49247000  0.32780000  0.74967000  1.0 -0.1495786125
C  C50  1  0.21342000  0.09438000  0.64648000  1.0 -0.0894435699
C  C51  1  0.35003000  0.03730000  0.63581000  1.0 -0.1495786125
C  C52  1  0.40507000  0.14490000  0.66691000  1.0 0.0852011121
C  C53  1  0.52428000  0.19460000  0.65574000  1.0 0.0852011121
C  C54  1  0.40336000  0.17960000  0.69950000  1.0 -0.1989476795
C  C55  1  0.27206000  0.13040000  0.65885000  1.0 -0.1408051329
C  C56  1  0.45858000  0.23934000  0.96653000  1.0 0.4292015319
C  C57  1  0.86845000  0.04135000  0.34704000  1.0 0.6272282785
C  C58  1  0.70920000  0.72334000  0.06699000  1.0 0.6272282785
C  C59  1  0.70780000  0.85727000  0.07424000  1.0 -0.0798780334
C  C60  1  0.83202000  0.04047000  0.31138000  1.0 -0.0407531024
C  C61  1  0.49238000  0.34519000  0.11435000  1.0 0.618107069
C  C62  1  0.71180000  0.78221000  0.12641000  1.0 -0.0798780334
C  C63  1  0.52891000  0.27865000  0.12767000  1.0 -0.0407531024
C  C64  1  0.70651000  0.84332000  0.14790000  1.0 -0.1495786125
C  C65  1  0.71162000  0.78905000  0.08927000  1.0 -0.053177547
C  C66  1  0.49947000  0.20975000  0.12325000  1.0 -0.0894435699
C  C67  1  0.76349000  0.07394000  0.30780000  1.0 -0.0979691644
C  C68  1  0.70100000  0.91066000  0.13275000  1.0 0.079171015
C  C69  1  0.70260000  0.91756000  0.09565000  1.0 -0.1495786125
C  C70  1  0.86288000  0.00715000  0.28282000  1.0 -0.0894435699
C  C71  1  0.73063000  0.07476000  0.27497000  1.0 -0.1408051329
C  C72  1  0.72920000  0.97910000  0.18877000  1.0 -0.1932648571
C  C73  1  0.72310000  0.03857000  0.21102000  1.0 0.079171015
C  C74  1  0.60260000  0.15838000  0.15395000  1.0 0.079171015
C  C75  1  0.76050000  0.04005000  0.24575000  1.0 0.079171015
C  C76  1  0.65030000  0.03356000  0.14526000  1.0 -0.1989476795
C  C77  1  0.82780000  0.00753000  0.24967000  1.0 -0.1495786125
C  C78  1  0.59438000  0.28658000  0.14648000  1.0 -0.0894435699
C  C79  1  0.53730000  0.14997000  0.13581000  1.0 -0.1495786125
C  C80  1  0.64490000  0.09493000  0.16691000  1.0 0.0852011121
C  C81  1  0.69460000  0.97572000  0.15574000  1.0 0.0852011121
C  C82  1  0.67960000  0.09664000  0.19950000  1.0 -0.1989476795
C  C83  1  0.63040000  0.22794000  0.15885000  1.0 -0.1408051329
C  C84  1  0.73934000  0.04142000  0.46653000  1.0 0.4292015319
C  C85  1  0.13155000  0.95865000  0.34704000  1.0 0.6272282785
C  C86  1  0.29080000  0.27666000  0.06699000  1.0 0.6272282785
C  C87  1  0.29220000  0.14273000  0.07424000  1.0 -0.0798780334
C  C88  1  0.16798000  0.95953000  0.31138000  1.0 -0.0407531024
C  C89  1  0.50762000  0.65481000  0.11435000  1.0 0.618107069
C  C90  1  0.28820000  0.21779000  0.12641000  1.0 -0.0798780334
C  C91  1  0.47109000  0.72135000  0.12767000  1.0 -0.0407531024
C  C92  1  0.29349000  0.15668000  0.14790000  1.0 -0.1495786125
C  C93  1  0.28838000  0.21095000  0.08927000  1.0 -0.053177547
C  C94  1  0.50053000  0.79025000  0.12325000  1.0 -0.0894435699
C  C95  1  0.23651000  0.92606000  0.30780000  1.0 -0.0979691644
C  C96  1  0.29900000  0.08934000  0.13275000  1.0 0.079171015
C  C97  1  0.29740000  0.08244000  0.09565000  1.0 -0.1495786125
C  C98  1  0.13712000  0.99285000  0.28282000  1.0 -0.0894435699
C  C99  1  0.26937000  0.92524000  0.27497000  1.0 -0.1408051329
C  C100  1  0.27080000  0.02090000  0.18877000  1.0 -0.1932648571
C  C101  1  0.27690000  0.96143000  0.21102000  1.0 0.079171015
C  C102  1  0.39740000  0.84162000  0.15395000  1.0 0.079171015
C  C103  1  0.23950000  0.95995000  0.24575000  1.0 0.079171015
C  C104  1  0.34970000  0.96644000  0.14526000  1.0 -0.1989476795
C  C105  1  0.17220000  0.99247000  0.24967000  1.0 -0.1495786125
C  C106  1  0.40562000  0.71342000  0.14648000  1.0 -0.0894435699
C  C107  1  0.46270000  0.85003000  0.13581000  1.0 -0.1495786125
C  C108  1  0.35510000  0.90507000  0.16691000  1.0 0.0852011121
C  C109  1  0.30540000  0.02428000  0.15574000  1.0 0.0852011121
C  C110  1  0.32040000  0.90336000  0.19950000  1.0 -0.1989476795
C  C111  1  0.36960000  0.77206000  0.15885000  1.0 -0.1408051329
C  C112  1  0.26066000  0.95858000  0.46653000  1.0 0.4292015319
C  C113  1  0.95865000  0.13155000  0.65296000  1.0 0.6272282785
C  C114  1  0.27666000  0.29080000  0.93301000  1.0 0.6272282785
C  C115  1  0.14273000  0.29220000  0.92576000  1.0 -0.0798780334
C  C116  1  0.95953000  0.16798000  0.68862000  1.0 -0.0407531024
C  C117  1  0.65481000  0.50762000  0.88565000  1.0 0.618107069
C  C118  1  0.21779000  0.28820000  0.87359000  1.0 -0.0798780334
C  C119  1  0.72135000  0.47109000  0.87233000  1.0 -0.0407531024
C  C120  1  0.15668000  0.29349000  0.85210000  1.0 -0.1495786125
C  C121  1  0.21095000  0.28838000  0.91073000  1.0 -0.053177547
C  C122  1  0.79025000  0.50053000  0.87675000  1.0 -0.0894435699
C  C123  1  0.92606000  0.23651000  0.69220000  1.0 -0.0979691644
C  C124  1  0.08934000  0.29900000  0.86725000  1.0 0.079171015
C  C125  1  0.08244000  0.29740000  0.90435000  1.0 -0.1495786125
C  C126  1  0.99285000  0.13712000  0.71718000  1.0 -0.0894435699
C  C127  1  0.92524000  0.26937000  0.72503000  1.0 -0.1408051329
C  C128  1  0.02090000  0.27080000  0.81123000  1.0 -0.1932648571
C  C129  1  0.96143000  0.27690000  0.78898000  1.0 0.079171015
C  C130  1  0.84162000  0.39740000  0.84605000  1.0 0.079171015
C  C131  1  0.95995000  0.23950000  0.75425000  1.0 0.079171015
C  C132  1  0.96644000  0.34970000  0.85474000  1.0 -0.1989476795
C  C133  1  0.99247000  0.17220000  0.75033000  1.0 -0.1495786125
C  C134  1  0.71342000  0.40562000  0.85352000  1.0 -0.0894435699
C  C135  1  0.85003000  0.46270000  0.86419000  1.0 -0.1495786125
C  C136  1  0.90507000  0.35510000  0.83309000  1.0 0.0852011121
C  C137  1  0.02428000  0.30540000  0.84426000  1.0 0.0852011121
C  C138  1  0.90336000  0.32040000  0.80050000  1.0 -0.1989476795
C  C139  1  0.77206000  0.36960000  0.84115000  1.0 -0.1408051329
C  C140  1  0.95858000  0.26066000  0.53347000  1.0 0.4292015319
C  C141  1  0.04135000  0.86845000  0.65296000  1.0 0.6272282785
C  C142  1  0.72334000  0.70920000  0.93301000  1.0 0.6272282785
C  C143  1  0.85727000  0.70780000  0.92576000  1.0 -0.0798780334
C  C144  1  0.04047000  0.83202000  0.68862000  1.0 -0.0407531024
C  C145  1  0.34519000  0.49238000  0.88565000  1.0 0.618107069
C  C146  1  0.78221000  0.71180000  0.87359000  1.0 -0.0798780334
C  C147  1  0.27865000  0.52891000  0.87233000  1.0 -0.0407531024
C  C148  1  0.84332000  0.70651000  0.85210000  1.0 -0.1495786125
C  C149  1  0.78905000  0.71162000  0.91073000  1.0 -0.053177547
C  C150  1  0.20975000  0.49947000  0.87675000  1.0 -0.0894435699
C  C151  1  0.07394000  0.76349000  0.69220000  1.0 -0.0979691644
C  C152  1  0.91066000  0.70100000  0.86725000  1.0 0.079171015
C  C153  1  0.91756000  0.70260000  0.90435000  1.0 -0.1495786125
C  C154  1  0.00715000  0.86288000  0.71718000  1.0 -0.0894435699
C  C155  1  0.07476000  0.73063000  0.72503000  1.0 -0.1408051329
C  C156  1  0.97910000  0.72920000  0.81123000  1.0 -0.1932648571
C  C157  1  0.03857000  0.72310000  0.78898000  1.0 0.079171015
C  C158  1  0.15838000  0.60260000  0.84605000  1.0 0.079171015
C  C159  1  0.04005000  0.76050000  0.75425000  1.0 0.079171015
C  C160  1  0.03356000  0.65030000  0.85474000  1.0 -0.1989476795
C  C161  1  0.00753000  0.82780000  0.75033000  1.0 -0.1495786125
C  C162  1  0.28658000  0.59438000  0.85352000  1.0 -0.0894435699
C  C163  1  0.14997000  0.53730000  0.86419000  1.0 -0.1495786125
C  C164  1  0.09493000  0.64490000  0.83309000  1.0 0.0852011121
C  C165  1  0.97572000  0.69460000  0.84426000  1.0 0.0852011121
C  C166  1  0.09664000  0.67960000  0.80050000  1.0 -0.1989476795
C  C167  1  0.22794000  0.63040000  0.84115000  1.0 -0.1408051329
C  C168  1  0.04142000  0.73934000  0.53347000  1.0 0.4292015319
C  C169  1  0.63155000  0.54135000  0.15296000  1.0 0.6272282785
C  C170  1  0.79080000  0.22334000  0.43301000  1.0 0.6272282785
C  C171  1  0.79220000  0.35727000  0.42576000  1.0 -0.0798780334
C  C172  1  0.66798000  0.54047000  0.18862000  1.0 -0.0407531024
C  C173  1  0.00762000  0.84519000  0.38565000  1.0 0.618107069
C  C174  1  0.78820000  0.28221000  0.37359000  1.0 -0.0798780334
C  C175  1  0.97109000  0.77865000  0.37233000  1.0 -0.0407531024
C  C176  1  0.79349000  0.34332000  0.35210000  1.0 -0.1495786125
C  C177  1  0.78838000  0.28905000  0.41073000  1.0 -0.053177547
C  C178  1  0.00053000  0.70975000  0.37675000  1.0 -0.0894435699
C  C179  1  0.73651000  0.57394000  0.19220000  1.0 -0.0979691644
C  C180  1  0.79900000  0.41066000  0.36725000  1.0 0.079171015
C  C181  1  0.79740000  0.41756000  0.40435000  1.0 -0.1495786125
C  C182  1  0.63712000  0.50715000  0.21718000  1.0 -0.0894435699
C  C183  1  0.76937000  0.57476000  0.22503000  1.0 -0.1408051329
C  C184  1  0.77080000  0.47910000  0.31123000  1.0 -0.1932648571
C  C185  1  0.77690000  0.53857000  0.28898000  1.0 0.079171015
C  C186  1  0.89740000  0.65838000  0.34605000  1.0 0.079171015
C  C187  1  0.73950000  0.54005000  0.25425000  1.0 0.079171015
C  C188  1  0.84970000  0.53356000  0.35474000  1.0 -0.1989476795
C  C189  1  0.67220000  0.50753000  0.25033000  1.0 -0.1495786125
C  C190  1  0.90562000  0.78658000  0.35352000  1.0 -0.0894435699
C  C191  1  0.96270000  0.64997000  0.36419000  1.0 -0.1495786125
C  C192  1  0.85510000  0.59493000  0.33309000  1.0 0.0852011121
C  C193  1  0.80540000  0.47572000  0.34426000  1.0 0.0852011121
C  C194  1  0.82040000  0.59664000  0.30050000  1.0 -0.1989476795
C  C195  1  0.86960000  0.72794000  0.34115000  1.0 -0.1408051329
C  C196  1  0.76066000  0.54142000  0.03347000  1.0 0.4292015319
C  C197  1  0.36845000  0.45865000  0.15296000  1.0 0.6272282785
C  C198  1  0.20920000  0.77666000  0.43301000  1.0 0.6272282785
C  C199  1  0.20780000  0.64273000  0.42576000  1.0 -0.0798780334
C  C200  1  0.33202000  0.45953000  0.18862000  1.0 -0.0407531024
C  C201  1  0.99238000  0.15481000  0.38565000  1.0 0.618107069
C  C202  1  0.21180000  0.71779000  0.37359000  1.0 -0.0798780334
C  C203  1  0.02891000  0.22135000  0.37233000  1.0 -0.0407531024
C  C204  1  0.20651000  0.65668000  0.35210000  1.0 -0.1495786125
C  C205  1  0.21162000  0.71095000  0.41073000  1.0 -0.053177547
C  C206  1  0.99947000  0.29025000  0.37675000  1.0 -0.0894435699
C  C207  1  0.26349000  0.42606000  0.19220000  1.0 -0.0979691644
C  C208  1  0.20100000  0.58934000  0.36725000  1.0 0.079171015
C  C209  1  0.20260000  0.58244000  0.40435000  1.0 -0.1495786125
C  C210  1  0.36288000  0.49285000  0.21718000  1.0 -0.0894435699
C  C211  1  0.23063000  0.42524000  0.22503000  1.0 -0.1408051329
C  C212  1  0.22920000  0.52090000  0.31123000  1.0 -0.1932648571
C  C213  1  0.22310000  0.46143000  0.28898000  1.0 0.079171015
C  C214  1  0.10260000  0.34162000  0.34605000  1.0 0.079171015
C  C215  1  0.26050000  0.45995000  0.25425000  1.0 0.079171015
C  C216  1  0.15030000  0.46644000  0.35474000  1.0 -0.1989476795
C  C217  1  0.32780000  0.49247000  0.25033000  1.0 -0.1495786125
C  C218  1  0.09438000  0.21342000  0.35352000  1.0 -0.0894435699
C  C219  1  0.03730000  0.35003000  0.36419000  1.0 -0.1495786125
C  C220  1  0.14490000  0.40507000  0.33309000  1.0 0.0852011121
C  C221  1  0.19460000  0.52428000  0.34426000  1.0 0.0852011121
C  C222  1  0.17960000  0.40336000  0.30050000  1.0 -0.1989476795
C  C223  1  0.13040000  0.27206000  0.34115000  1.0 -0.1408051329
C  C224  1  0.23934000  0.45858000  0.03347000  1.0 0.4292015319
C  C225  1  0.46420000  0.80650000  0.02150000  0.36 -0.0631776976
C  C226  1  0.47790000  0.79890000  0.98269000  0.36 -0.0979691644
C  C227  1  0.42660000  0.82620000  0.95740000  0.36 -0.0669166978
C  C228  1  0.35930000  0.85770000  0.97060000  0.36 -0.1056773767
C  C229  1  0.36300000  0.87820000  0.00910000  0.36 -0.0798780334
C  C230  1  0.40630000  0.84810000  0.03950000  0.36 -0.1809837932
C  C231  1  0.53580000  0.19350000  0.02150000  0.36 -0.0631776976
C  C232  1  0.52210000  0.20110000  0.98269000  0.36 -0.0979691644
C  C233  1  0.57340000  0.17380000  0.95740000  0.36 -0.0669166978
C  C234  1  0.64070000  0.14230000  0.97060000  0.36 -0.1056773767
C  C235  1  0.63700000  0.12180000  0.00910000  0.36 -0.0798780334
C  C236  1  0.59370000  0.15190000  0.03950000  0.36 -0.1809837932
C  C237  1  0.69350000  0.96420000  0.52150000  0.36 -0.0631776976
C  C238  1  0.70110000  0.97790000  0.48269000  0.36 -0.0979691644
C  C239  1  0.67380000  0.92660000  0.45740000  0.36 -0.0669166978
C  C240  1  0.64230000  0.85930000  0.47060000  0.36 -0.1056773767
C  C241  1  0.62180000  0.86300000  0.50910000  0.36 -0.0798780334
C  C242  1  0.65190000  0.90630000  0.53950000  0.36 -0.1809837932
C  C243  1  0.30650000  0.03580000  0.52150000  0.36 -0.0631776976
C  C244  1  0.29890000  0.02210000  0.48269000  0.36 -0.0979691644
C  C245  1  0.32620000  0.07340000  0.45740000  0.36 -0.0669166978
C  C246  1  0.35770000  0.14070000  0.47060000  0.36 -0.1056773767
C  C247  1  0.37820000  0.13700000  0.50910000  0.36 -0.0798780334
C  C248  1  0.34810000  0.09370000  0.53950000  0.36 -0.1809837932
C  C249  1  0.03580000  0.30650000  0.47850000  0.36 -0.0631776976
C  C250  1  0.02210000  0.29890000  0.51731000  0.36 -0.0979691644
C  C251  1  0.07340000  0.32620000  0.54260000  0.36 -0.0669166978
C  C252  1  0.14070000  0.35770000  0.52940000  0.36 -0.1056773767
C  C253  1  0.13700000  0.37820000  0.49090000  0.36 -0.0798780334
C  C254  1  0.09370000  0.34810000  0.46050000  0.36 -0.1809837932
C  C255  1  0.96420000  0.69350000  0.47850000  0.36 -0.0631776976
C  C256  1  0.97790000  0.70110000  0.51731000  0.36 -0.0979691644
C  C257  1  0.92660000  0.67380000  0.54260000  0.36 -0.0669166978
C  C258  1  0.85930000  0.64230000  0.52940000  0.36 -0.1056773767
C  C259  1  0.86300000  0.62180000  0.49090000  0.36 -0.0798780334
C  C260  1  0.90630000  0.65190000  0.46050000  0.36 -0.1809837932
C  C261  1  0.80650000  0.46420000  0.97850000  0.36 -0.0631776976
C  C262  1  0.79890000  0.47790000  0.01731000  0.36 -0.0979691644
C  C263  1  0.82620000  0.42660000  0.04260000  0.36 -0.0669166978
C  C264  1  0.85770000  0.35930000  0.02940000  0.36 -0.1056773767
C  C265  1  0.87820000  0.36300000  0.99090000  0.36 -0.0798780334
C  C266  1  0.84810000  0.40630000  0.96050000  0.36 -0.1809837932
C  C267  1  0.19350000  0.53580000  0.97850000  0.36 -0.0631776976
C  C268  1  0.20110000  0.52210000  0.01731000  0.36 -0.0979691644
C  C269  1  0.17380000  0.57340000  0.04260000  0.36 -0.0669166978
C  C270  1  0.14230000  0.64070000  0.02940000  0.36 -0.1056773767
C  C271  1  0.12180000  0.63700000  0.99090000  0.36 -0.0798780334
C  C272  1  0.15190000  0.59370000  0.96050000  0.36 -0.1809837932
O  O1  1  0.51772000  0.56952000  0.91921000  1.0 -0.9976845646
O  O2  1  0.62179000  0.61046000  0.96448000  1.0 -0.9620064611
O  O3  1  0.56588000  0.66676000  0.87289000  1.0 -0.5506677568
O  O4  1  0.51739000  0.56758000  0.84794000  1.0 -0.5730217809
O  O5  1  0.83957000  0.07029000  0.60156000  1.0 -0.578071546
O  O6  1  0.16341000  0.79316000  0.58277000  1.0 -0.5506677568
O  O7  1  0.90257000  0.97275000  0.61755000  1.0 -0.5730217809
O  O8  1  0.23127000  0.79430000  0.53334000  1.0 -0.5506677568
O  O9  1  0.52584000  0.70902000  0.93825000  1.0 -0.6693584437
O  O10  1  0.59495000  0.74034000  0.99230000  1.0 -0.6604956801
O  O11  1  0.48228000  0.43048000  0.91921000  1.0 -0.9976845646
O  O12  1  0.37821000  0.38954000  0.96448000  1.0 -0.9620064611
O  O13  1  0.43412000  0.33324000  0.87289000  1.0 -0.5506677568
O  O14  1  0.48261000  0.43242000  0.84794000  1.0 -0.5730217809
O  O15  1  0.16043000  0.92971000  0.60156000  1.0 -0.578071546
O  O16  1  0.83659000  0.20684000  0.58277000  1.0 -0.5506677568
O  O17  1  0.09743000  0.02725000  0.61755000  1.0 -0.5730217809
O  O18  1  0.76873000  0.20570000  0.53334000  1.0 -0.5506677568
O  O19  1  0.47416000  0.29098000  0.93825000  1.0 -0.6693584437
O  O20  1  0.40505000  0.25966000  0.99230000  1.0 -0.6604956801
O  O21  1  0.93048000  0.01772000  0.41921000  1.0 -0.9976845646
O  O22  1  0.88954000  0.12179000  0.46448000  1.0 -0.9620064611
O  O23  1  0.83324000  0.06588000  0.37289000  1.0 -0.5506677568
O  O24  1  0.93242000  0.01739000  0.34794000  1.0 -0.5730217809
O  O25  1  0.42971000  0.33957000  0.10156000  1.0 -0.578071546
O  O26  1  0.70684000  0.66341000  0.08277000  1.0 -0.5506677568
O  O27  1  0.52725000  0.40257000  0.11755000  1.0 -0.5730217809
O  O28  1  0.70570000  0.73127000  0.03334000  1.0 -0.5506677568
O  O29  1  0.79098000  0.02584000  0.43825000  1.0 -0.6693584437
O  O30  1  0.75966000  0.09495000  0.49230000  1.0 -0.6604956801
O  O31  1  0.06952000  0.98228000  0.41921000  1.0 -0.9976845646
O  O32  1  0.11046000  0.87821000  0.46448000  1.0 -0.9620064611
O  O33  1  0.16676000  0.93412000  0.37289000  1.0 -0.5506677568
O  O34  1  0.06758000  0.98261000  0.34794000  1.0 -0.5730217809
O  O35  1  0.57029000  0.66043000  0.10156000  1.0 -0.578071546
O  O36  1  0.29316000  0.33659000  0.08277000  1.0 -0.5506677568
O  O37  1  0.47275000  0.59743000  0.11755000  1.0 -0.5730217809
O  O38  1  0.29430000  0.26873000  0.03334000  1.0 -0.5506677568
O  O39  1  0.20902000  0.97416000  0.43825000  1.0 -0.6693584437
O  O40  1  0.24034000  0.90505000  0.49230000  1.0 -0.6604956801
O  O41  1  0.98228000  0.06952000  0.58079000  1.0 -0.9976845646
O  O42  1  0.87821000  0.11046000  0.53552000  1.0 -0.9620064611
O  O43  1  0.93412000  0.16676000  0.62711000  1.0 -0.5506677568
O  O44  1  0.98261000  0.06758000  0.65206000  1.0 -0.5730217809
O  O45  1  0.66043000  0.57029000  0.89844000  1.0 -0.578071546
O  O46  1  0.33659000  0.29316000  0.91723000  1.0 -0.5506677568
O  O47  1  0.59743000  0.47275000  0.88245000  1.0 -0.5730217809
O  O48  1  0.26873000  0.29430000  0.96666000  1.0 -0.5506677568
O  O49  1  0.97416000  0.20902000  0.56175000  1.0 -0.6693584437
O  O50  1  0.90505000  0.24034000  0.50770000  1.0 -0.6604956801
O  O51  1  0.01772000  0.93048000  0.58079000  1.0 -0.9976845646
O  O52  1  0.12179000  0.88954000  0.53552000  1.0 -0.9620064611
O  O53  1  0.06588000  0.83324000  0.62711000  1.0 -0.5506677568
O  O54  1  0.01739000  0.93242000  0.65206000  1.0 -0.5730217809
O  O55  1  0.33957000  0.42971000  0.89844000  1.0 -0.578071546
O  O56  1  0.66341000  0.70684000  0.91723000  1.0 -0.5506677568
O  O57  1  0.40257000  0.52725000  0.88245000  1.0 -0.5730217809
O  O58  1  0.73127000  0.70570000  0.96666000  1.0 -0.5506677568
O  O59  1  0.02584000  0.79098000  0.56175000  1.0 -0.6693584437
O  O60  1  0.09495000  0.75966000  0.50770000  1.0 -0.6604956801
O  O61  1  0.56952000  0.51772000  0.08079000  1.0 -0.9976845646
O  O62  1  0.61046000  0.62179000  0.03552000  1.0 -0.9620064611
O  O63  1  0.66676000  0.56588000  0.12711000  1.0 -0.5506677568
O  O64  1  0.56758000  0.51739000  0.15206000  1.0 -0.5730217809
O  O65  1  0.07029000  0.83957000  0.39844000  1.0 -0.578071546
O  O66  1  0.79316000  0.16341000  0.41723000  1.0 -0.5506677568
O  O67  1  0.97275000  0.90257000  0.38245000  1.0 -0.5730217809
O  O68  1  0.79430000  0.23127000  0.46666000  1.0 -0.5506677568
O  O69  1  0.70902000  0.52584000  0.06175000  1.0 -0.6693584437
O  O70  1  0.74034000  0.59495000  0.00770000  1.0 -0.6604956801
O  O71  1  0.43048000  0.48228000  0.08079000  1.0 -0.9976845646
O  O72  1  0.38954000  0.37821000  0.03552000  1.0 -0.9620064611
O  O73  1  0.33324000  0.43412000  0.12711000  1.0 -0.5506677568
O  O74  1  0.43242000  0.48261000  0.15206000  1.0 -0.5730217809
O  O75  1  0.92971000  0.16043000  0.39844000  1.0 -0.578071546
O  O76  1  0.20684000  0.83659000  0.41723000  1.0 -0.5506677568
O  O77  1  0.02725000  0.09743000  0.38245000  1.0 -0.5730217809
O  O78  1  0.20570000  0.76873000  0.46666000  1.0 -0.5506677568
O  O79  1  0.29098000  0.47416000  0.06175000  1.0 -0.6693584437
O  O80  1  0.25966000  0.40505000  0.00770000  1.0 -0.6604956801
