# DDEC6 charges by PACMAN v1.1 (https://github.com/mtap-research/PACMAN-charge/)
data_2019[Zn][lvt]3[ASR]1
_chemical_formula_sum              "Zn16 H352 C368 N32 O80"
_cell_length_a       34.864
_cell_length_b       45.768
_cell_length_c       8.0403
_cell_angle_alpha    90
_cell_angle_beta     90
_cell_angle_gamma    90

_symmetry_space_group_name_H-M    "P 1"
_symmetry_Int_Tables_number       1

loop_
  _symmetry_equiv_pos_as_xyz
  'x, y, z'

loop_
  _atom_site_type_symbol
  _atom_site_label
  _atom_site_symmetry_multiplicity
  _atom_site_fract_x
  _atom_site_fract_y
  _atom_site_fract_z
  _atom_site_occupancy
  _atom_site_charge
Zn  Zn1       1.0  0.11054  0.85383  0.03898  1.0000 0.7341808562
Zn  Zn2       1.0  0.88946  0.14617  0.03898  1.0000 0.7341808562
Zn  Zn3       1.0  0.13946  0.10383  0.28898  1.0000 0.7341808562
Zn  Zn4       1.0  0.36054  0.39617  0.28898  1.0000 0.7341808562
Zn  Zn5       1.0  0.11054  0.35383  0.53898  1.0000 0.7341808562
Zn  Zn6       1.0  0.88946  0.64617  0.53898  1.0000 0.7341808562
Zn  Zn7       1.0  0.13946  0.60383  0.78898  1.0000 0.7341808562
Zn  Zn8       1.0  0.36054  0.89617  0.78898  1.0000 0.7341808562
Zn  Zn9       1.0  0.61054  0.85383  0.53898  1.0000 0.7341808562
Zn  Zn10      1.0  0.38946  0.14617  0.53898  1.0000 0.7341808562
Zn  Zn11      1.0  0.63946  0.10383  0.78898  1.0000 0.7341808562
Zn  Zn12      1.0  0.86054  0.39617  0.78898  1.0000 0.7341808562
Zn  Zn13      1.0  0.61054  0.35383  0.03898  1.0000 0.7341808562
Zn  Zn14      1.0  0.38946  0.64617  0.03898  1.0000 0.7341808562
Zn  Zn15      1.0  0.63946  0.60383  0.28898  1.0000 0.7341808562
Zn  Zn16      1.0  0.86054  0.89617  0.28898  1.0000 0.7341808562
H   H1        1.0  0.18090  0.88620  0.14810  1.0000 0.1199502157
H   H2        1.0  0.81910  0.11380  0.14810  1.0000 0.1199502157
H   H3        1.0  0.06910  0.13620  0.39810  1.0000 0.1199502157
H   H4        1.0  0.43090  0.36380  0.39810  1.0000 0.1199502157
H   H5        1.0  0.18090  0.38620  0.64810  1.0000 0.1199502157
H   H6        1.0  0.81910  0.61380  0.64810  1.0000 0.1199502157
H   H7        1.0  0.06910  0.63620  0.89810  1.0000 0.1199502157
H   H8        1.0  0.43090  0.86380  0.89810  1.0000 0.1199502157
H   H9        1.0  0.68090  0.88620  0.64810  1.0000 0.1199502157
H   H10       1.0  0.31910  0.11380  0.64810  1.0000 0.1199502157
H   H11       1.0  0.56910  0.13620  0.89810  1.0000 0.1199502157
H   H12       1.0  0.93090  0.36380  0.89810  1.0000 0.1199502157
H   H13       1.0  0.68090  0.38620  0.14810  1.0000 0.1199502157
H   H14       1.0  0.31910  0.61380  0.14810  1.0000 0.1199502157
H   H15       1.0  0.56910  0.63620  0.39810  1.0000 0.1199502157
H   H16       1.0  0.93090  0.86380  0.39810  1.0000 0.1199502157
H   H17       1.0  0.20390  0.91240  0.36460  1.0000 0.1357963957
H   H18       1.0  0.79610  0.08760  0.36460  1.0000 0.1357963957
H   H19       1.0  0.04610  0.16240  0.61460  1.0000 0.1357963957
H   H20       1.0  0.45390  0.33760  0.61460  1.0000 0.1357963957
H   H21       1.0  0.20390  0.41240  0.86460  1.0000 0.1357963957
H   H22       1.0  0.79610  0.58760  0.86460  1.0000 0.1357963957
H   H23       1.0  0.04610  0.66240  0.11460  1.0000 0.1357963957
H   H24       1.0  0.45390  0.83760  0.11460  1.0000 0.1357963957
H   H25       1.0  0.70390  0.91240  0.86460  1.0000 0.1357963957
H   H26       1.0  0.29610  0.08760  0.86460  1.0000 0.1357963957
H   H27       1.0  0.54610  0.16240  0.11460  1.0000 0.1357963957
H   H28       1.0  0.95390  0.33760  0.11460  1.0000 0.1357963957
H   H29       1.0  0.70390  0.41240  0.36460  1.0000 0.1357963957
H   H30       1.0  0.29610  0.58760  0.36460  1.0000 0.1357963957
H   H31       1.0  0.54610  0.66240  0.61460  1.0000 0.1357963957
H   H32       1.0  0.95390  0.83760  0.61460  1.0000 0.1357963957
H   H33       1.0  0.10750  0.89640  0.61250  1.0000 0.1468383909
H   H34       1.0  0.89250  0.10360  0.61250  1.0000 0.1468383909
H   H35       1.0  0.14250  0.14640  0.86250  1.0000 0.1468383909
H   H36       1.0  0.35750  0.35360  0.86250  1.0000 0.1468383909
H   H37       1.0  0.10750  0.39640  0.11250  1.0000 0.1468383909
H   H38       1.0  0.89250  0.60360  0.11250  1.0000 0.1468383909
H   H39       1.0  0.14250  0.64640  0.36250  1.0000 0.1468383909
H   H40       1.0  0.35750  0.85360  0.36250  1.0000 0.1468383909
H   H41       1.0  0.60750  0.89640  0.11250  1.0000 0.1468383909
H   H42       1.0  0.39250  0.10360  0.11250  1.0000 0.1468383909
H   H43       1.0  0.64250  0.14640  0.36250  1.0000 0.1468383909
H   H44       1.0  0.85750  0.35360  0.36250  1.0000 0.1468383909
H   H45       1.0  0.60750  0.39640  0.61250  1.0000 0.1468383909
H   H46       1.0  0.39250  0.60360  0.61250  1.0000 0.1468383909
H   H47       1.0  0.64250  0.64640  0.86250  1.0000 0.1468383909
H   H48       1.0  0.85750  0.85360  0.86250  1.0000 0.1468383909
H   H49       1.0  0.08640  0.87030  0.39320  1.0000 0.1199502157
H   H50       1.0  0.91360  0.12970  0.39320  1.0000 0.1199502157
H   H51       1.0  0.16360  0.12030  0.64320  1.0000 0.1199502157
H   H52       1.0  0.33640  0.37970  0.64320  1.0000 0.1199502157
H   H53       1.0  0.08640  0.37030  0.89320  1.0000 0.1199502157
H   H54       1.0  0.91360  0.62970  0.89320  1.0000 0.1199502157
H   H55       1.0  0.16360  0.62030  0.14320  1.0000 0.1199502157
H   H56       1.0  0.33640  0.87970  0.14320  1.0000 0.1199502157
H   H57       1.0  0.58640  0.87030  0.89320  1.0000 0.1199502157
H   H58       1.0  0.41360  0.12970  0.89320  1.0000 0.1199502157
H   H59       1.0  0.66360  0.12030  0.14320  1.0000 0.1199502157
H   H60       1.0  0.83640  0.37970  0.14320  1.0000 0.1199502157
H   H61       1.0  0.58640  0.37030  0.39320  1.0000 0.1199502157
H   H62       1.0  0.41360  0.62970  0.39320  1.0000 0.1199502157
H   H63       1.0  0.66360  0.62030  0.64320  1.0000 0.1199502157
H   H64       1.0  0.83640  0.87970  0.64320  1.0000 0.1199502157
H   H65       1.0  0.19800  0.91960  0.69160  1.0000 0.1305111124
H   H66       1.0  0.80200  0.08040  0.69160  1.0000 0.1305111124
H   H67       1.0  0.05200  0.16960  0.94160  1.0000 0.1305111124
H   H68       1.0  0.44800  0.33040  0.94160  1.0000 0.1305111124
H   H69       1.0  0.19800  0.41960  0.19160  1.0000 0.1305111124
H   H70       1.0  0.80200  0.58040  0.19160  1.0000 0.1305111124
H   H71       1.0  0.05200  0.66960  0.44160  1.0000 0.1305111124
H   H72       1.0  0.44800  0.83040  0.44160  1.0000 0.1305111124
H   H73       1.0  0.69800  0.91960  0.19160  1.0000 0.1305111124
H   H74       1.0  0.30200  0.08040  0.19160  1.0000 0.1305111124
H   H75       1.0  0.55200  0.16960  0.44160  1.0000 0.1305111124
H   H76       1.0  0.94800  0.33040  0.44160  1.0000 0.1305111124
H   H77       1.0  0.69800  0.41960  0.69160  1.0000 0.1305111124
H   H78       1.0  0.30200  0.58040  0.69160  1.0000 0.1305111124
H   H79       1.0  0.55200  0.66960  0.94160  1.0000 0.1305111124
H   H80       1.0  0.94800  0.83040  0.94160  1.0000 0.1305111124
H   H81       1.0  0.15570  0.92550  0.74970  1.0000 0.1305111124
H   H82       1.0  0.84430  0.07450  0.74970  1.0000 0.1305111124
H   H83       1.0  0.09430  0.17550  0.99970  1.0000 0.1305111124
H   H84       1.0  0.40570  0.32450  0.99970  1.0000 0.1305111124
H   H85       1.0  0.15570  0.42550  0.24970  1.0000 0.1305111124
H   H86       1.0  0.84430  0.57450  0.24970  1.0000 0.1305111124
H   H87       1.0  0.09430  0.67550  0.49970  1.0000 0.1305111124
H   H88       1.0  0.40570  0.82450  0.49970  1.0000 0.1305111124
H   H89       1.0  0.65570  0.92550  0.24970  1.0000 0.1305111124
H   H90       1.0  0.34430  0.07450  0.24970  1.0000 0.1305111124
H   H91       1.0  0.59430  0.17550  0.49970  1.0000 0.1305111124
H   H92       1.0  0.90570  0.32450  0.49970  1.0000 0.1305111124
H   H93       1.0  0.65570  0.42550  0.74970  1.0000 0.1305111124
H   H94       1.0  0.34430  0.57450  0.74970  1.0000 0.1305111124
H   H95       1.0  0.59430  0.67550  0.99970  1.0000 0.1305111124
H   H96       1.0  0.90570  0.82450  0.99970  1.0000 0.1305111124
H   H97       1.0  0.18560  0.97040  0.70130  1.0000 0.0996214316
H   H98       1.0  0.81440  0.02960  0.70130  1.0000 0.0996214316
H   H99       1.0  0.06440  0.22040  0.95130  1.0000 0.0996214316
H   H100      1.0  0.43560  0.27960  0.95130  1.0000 0.0996214316
H   H101      1.0  0.18560  0.47040  0.20130  1.0000 0.0996214316
H   H102      1.0  0.81440  0.52960  0.20130  1.0000 0.0996214316
H   H103      1.0  0.06440  0.72040  0.45130  1.0000 0.0996214316
H   H104      1.0  0.43560  0.77960  0.45130  1.0000 0.0996214316
H   H105      1.0  0.68560  0.97040  0.20130  1.0000 0.0996214316
H   H106      1.0  0.31440  0.02960  0.20130  1.0000 0.0996214316
H   H107      1.0  0.56440  0.22040  0.45130  1.0000 0.0996214316
H   H108      1.0  0.93560  0.27960  0.45130  1.0000 0.0996214316
H   H109      1.0  0.68560  0.47040  0.70130  1.0000 0.0996214316
H   H110      1.0  0.31440  0.52960  0.70130  1.0000 0.0996214316
H   H111      1.0  0.56440  0.72040  0.95130  1.0000 0.0996214316
H   H112      1.0  0.93560  0.77960  0.95130  1.0000 0.0996214316
H   H113      1.0  0.19680  0.96090  0.52050  1.0000 0.0903619688
H   H114      1.0  0.80320  0.03910  0.52050  1.0000 0.0903619688
H   H115      1.0  0.05320  0.21090  0.77050  1.0000 0.0903619688
H   H116      1.0  0.44680  0.28910  0.77050  1.0000 0.0903619688
H   H117      1.0  0.19680  0.46090  0.02050  1.0000 0.0903619688
H   H118      1.0  0.80320  0.53910  0.02050  1.0000 0.0903619688
H   H119      1.0  0.05320  0.71090  0.27050  1.0000 0.0903619688
H   H120      1.0  0.44680  0.78910  0.27050  1.0000 0.0903619688
H   H121      1.0  0.69680  0.96090  0.02050  1.0000 0.0903619688
H   H122      1.0  0.30320  0.03910  0.02050  1.0000 0.0903619688
H   H123      1.0  0.55320  0.21090  0.27050  1.0000 0.0903619688
H   H124      1.0  0.94680  0.28910  0.27050  1.0000 0.0903619688
H   H125      1.0  0.69680  0.46090  0.52050  1.0000 0.0903619688
H   H126      1.0  0.30320  0.53910  0.52050  1.0000 0.0903619688
H   H127      1.0  0.55320  0.71090  0.77050  1.0000 0.0903619688
H   H128      1.0  0.94680  0.78910  0.77050  1.0000 0.0903619688
H   H129      1.0  0.12170  0.97060  0.62810  1.0000 0.1199502157
H   H130      1.0  0.87830  0.02940  0.62810  1.0000 0.1199502157
H   H131      1.0  0.12830  0.22060  0.87810  1.0000 0.1199502157
H   H132      1.0  0.37170  0.27940  0.87810  1.0000 0.1199502157
H   H133      1.0  0.12170  0.47060  0.12810  1.0000 0.1199502157
H   H134      1.0  0.87830  0.52940  0.12810  1.0000 0.1199502157
H   H135      1.0  0.12830  0.72060  0.37810  1.0000 0.1199502157
H   H136      1.0  0.37170  0.77940  0.37810  1.0000 0.1199502157
H   H137      1.0  0.62170  0.97060  0.12810  1.0000 0.1199502157
H   H138      1.0  0.37830  0.02940  0.12810  1.0000 0.1199502157
H   H139      1.0  0.62830  0.22060  0.37810  1.0000 0.1199502157
H   H140      1.0  0.87170  0.27940  0.37810  1.0000 0.1199502157
H   H141      1.0  0.62170  0.47060  0.62810  1.0000 0.1199502157
H   H142      1.0  0.37830  0.52940  0.62810  1.0000 0.1199502157
H   H143      1.0  0.62830  0.72060  0.87810  1.0000 0.1199502157
H   H144      1.0  0.87170  0.77940  0.87810  1.0000 0.1199502157
H   H145      1.0  0.13220  0.96030  0.44860  1.0000 0.1199502157
H   H146      1.0  0.86780  0.03970  0.44860  1.0000 0.1199502157
H   H147      1.0  0.11780  0.21030  0.69860  1.0000 0.1199502157
H   H148      1.0  0.38220  0.28970  0.69860  1.0000 0.1199502157
H   H149      1.0  0.13220  0.46030  0.94860  1.0000 0.1199502157
H   H150      1.0  0.86780  0.53970  0.94860  1.0000 0.1199502157
H   H151      1.0  0.11780  0.71030  0.19860  1.0000 0.1199502157
H   H152      1.0  0.38220  0.78970  0.19860  1.0000 0.1199502157
H   H153      1.0  0.63220  0.96030  0.94860  1.0000 0.1199502157
H   H154      1.0  0.36780  0.03970  0.94860  1.0000 0.1199502157
H   H155      1.0  0.61780  0.21030  0.19860  1.0000 0.1199502157
H   H156      1.0  0.88220  0.28970  0.19860  1.0000 0.1199502157
H   H157      1.0  0.63220  0.46030  0.44860  1.0000 0.1199502157
H   H158      1.0  0.36780  0.53970  0.44860  1.0000 0.1199502157
H   H159      1.0  0.61780  0.71030  0.69860  1.0000 0.1199502157
H   H160      1.0  0.88220  0.78970  0.69860  1.0000 0.1199502157
H   H161      1.0  0.08860  0.05690  0.37920  1.0000 0.1124317834
H   H162      1.0  0.91140  0.94310  0.37920  1.0000 0.1124317834
H   H163      1.0  0.16140  0.30690  0.62920  1.0000 0.1124317834
H   H164      1.0  0.33860  0.19310  0.62920  1.0000 0.1124317834
H   H165      1.0  0.08860  0.55690  0.87920  1.0000 0.1124317834
H   H166      1.0  0.91140  0.44310  0.87920  1.0000 0.1124317834
H   H167      1.0  0.16140  0.80690  0.12920  1.0000 0.1124317834
H   H168      1.0  0.33860  0.69310  0.12920  1.0000 0.1124317834
H   H169      1.0  0.58860  0.05690  0.87920  1.0000 0.1124317834
H   H170      1.0  0.41140  0.94310  0.87920  1.0000 0.1124317834
H   H171      1.0  0.66140  0.30690  0.12920  1.0000 0.1124317834
H   H172      1.0  0.83860  0.19310  0.12920  1.0000 0.1124317834
H   H173      1.0  0.58860  0.55690  0.37920  1.0000 0.1124317834
H   H174      1.0  0.41140  0.44310  0.37920  1.0000 0.1124317834
H   H175      1.0  0.66140  0.80690  0.62920  1.0000 0.1124317834
H   H176      1.0  0.83860  0.69310  0.62920  1.0000 0.1124317834
H   H177      1.0  0.08630  0.01000  0.46560  1.0000 0.1468383909
H   H178      1.0  0.91370  0.99000  0.46560  1.0000 0.1468383909
H   H179      1.0  0.16370  0.26000  0.71560  1.0000 0.1468383909
H   H180      1.0  0.33630  0.24000  0.71560  1.0000 0.1468383909
H   H181      1.0  0.08630  0.51000  0.96560  1.0000 0.1468383909
H   H182      1.0  0.91370  0.49000  0.96560  1.0000 0.1468383909
H   H183      1.0  0.16370  0.76000  0.21560  1.0000 0.1468383909
H   H184      1.0  0.33630  0.74000  0.21560  1.0000 0.1468383909
H   H185      1.0  0.58630  0.01000  0.96560  1.0000 0.1468383909
H   H186      1.0  0.41370  0.99000  0.96560  1.0000 0.1468383909
H   H187      1.0  0.66370  0.26000  0.21560  1.0000 0.1468383909
H   H188      1.0  0.83630  0.24000  0.21560  1.0000 0.1468383909
H   H189      1.0  0.58630  0.51000  0.46560  1.0000 0.1468383909
H   H190      1.0  0.41370  0.49000  0.46560  1.0000 0.1468383909
H   H191      1.0  0.66370  0.76000  0.71560  1.0000 0.1468383909
H   H192      1.0  0.83630  0.74000  0.71560  1.0000 0.1468383909
H   H193      1.0  0.19970  0.00900  0.47630  1.0000 0.1305111124
H   H194      1.0  0.80030  0.99100  0.47630  1.0000 0.1305111124
H   H195      1.0  0.05030  0.25900  0.72630  1.0000 0.1305111124
H   H196      1.0  0.44970  0.24100  0.72630  1.0000 0.1305111124
H   H197      1.0  0.19970  0.50900  0.97630  1.0000 0.1305111124
H   H198      1.0  0.80030  0.49100  0.97630  1.0000 0.1305111124
H   H199      1.0  0.05030  0.75900  0.22630  1.0000 0.1305111124
H   H200      1.0  0.44970  0.74100  0.22630  1.0000 0.1305111124
H   H201      1.0  0.69970  0.00900  0.97630  1.0000 0.1305111124
H   H202      1.0  0.30030  0.99100  0.97630  1.0000 0.1305111124
H   H203      1.0  0.55030  0.25900  0.22630  1.0000 0.1305111124
H   H204      1.0  0.94970  0.24100  0.22630  1.0000 0.1305111124
H   H205      1.0  0.69970  0.50900  0.47630  1.0000 0.1305111124
H   H206      1.0  0.30030  0.49100  0.47630  1.0000 0.1305111124
H   H207      1.0  0.55030  0.75900  0.72630  1.0000 0.1305111124
H   H208      1.0  0.94970  0.74100  0.72630  1.0000 0.1305111124
H   H209      1.0  0.19960  0.05620  0.37510  1.0000 0.1124317834
H   H210      1.0  0.80040  0.94380  0.37510  1.0000 0.1124317834
H   H211      1.0  0.05040  0.30620  0.62510  1.0000 0.1124317834
H   H212      1.0  0.44960  0.19380  0.62510  1.0000 0.1124317834
H   H213      1.0  0.19960  0.55620  0.87510  1.0000 0.1124317834
H   H214      1.0  0.80040  0.44380  0.87510  1.0000 0.1124317834
H   H215      1.0  0.05040  0.80620  0.12510  1.0000 0.1124317834
H   H216      1.0  0.44960  0.69380  0.12510  1.0000 0.1124317834
H   H217      1.0  0.69960  0.05620  0.87510  1.0000 0.1124317834
H   H218      1.0  0.30040  0.94380  0.87510  1.0000 0.1124317834
H   H219      1.0  0.55040  0.30620  0.12510  1.0000 0.1124317834
H   H220      1.0  0.94960  0.19380  0.12510  1.0000 0.1124317834
H   H221      1.0  0.69960  0.55620  0.37510  1.0000 0.1124317834
H   H222      1.0  0.30040  0.44380  0.37510  1.0000 0.1124317834
H   H223      1.0  0.55040  0.80620  0.62510  1.0000 0.1124317834
H   H224      1.0  0.94960  0.69380  0.62510  1.0000 0.1124317834
H   H225      1.0  0.22520  0.86670  0.84200  1.0000 0.1199502157
H   H226      1.0  0.77480  0.13330  0.84200  1.0000 0.1199502157
H   H227      1.0  0.02480  0.11670  0.09200  1.0000 0.1199502157
H   H228      1.0  0.47520  0.38330  0.09200  1.0000 0.1199502157
H   H229      1.0  0.22520  0.36670  0.34200  1.0000 0.1199502157
H   H230      1.0  0.77480  0.63330  0.34200  1.0000 0.1199502157
H   H231      1.0  0.02480  0.61670  0.59200  1.0000 0.1199502157
H   H232      1.0  0.47520  0.88330  0.59200  1.0000 0.1199502157
H   H233      1.0  0.72520  0.86670  0.34200  1.0000 0.1199502157
H   H234      1.0  0.27480  0.13330  0.34200  1.0000 0.1199502157
H   H235      1.0  0.52480  0.11670  0.59200  1.0000 0.1199502157
H   H236      1.0  0.97520  0.38330  0.59200  1.0000 0.1199502157
H   H237      1.0  0.72520  0.36670  0.84200  1.0000 0.1199502157
H   H238      1.0  0.27480  0.63330  0.84200  1.0000 0.1199502157
H   H239      1.0  0.52480  0.61670  0.09200  1.0000 0.1199502157
H   H240      1.0  0.97520  0.88330  0.09200  1.0000 0.1199502157
H   H241      1.0  0.28420  0.84850  0.42780  1.0000 0.1199502157
H   H242      1.0  0.71580  0.15150  0.42780  1.0000 0.1199502157
H   H243      1.0  0.96580  0.09850  0.67780  1.0000 0.1199502157
H   H244      1.0  0.53420  0.40150  0.67780  1.0000 0.1199502157
H   H245      1.0  0.28420  0.34850  0.92780  1.0000 0.1199502157
H   H246      1.0  0.71580  0.65150  0.92780  1.0000 0.1199502157
H   H247      1.0  0.96580  0.59850  0.17780  1.0000 0.1199502157
H   H248      1.0  0.53420  0.90150  0.17780  1.0000 0.1199502157
H   H249      1.0  0.78420  0.84850  0.92780  1.0000 0.1199502157
H   H250      1.0  0.21580  0.15150  0.92780  1.0000 0.1199502157
H   H251      1.0  0.46580  0.09850  0.17780  1.0000 0.1199502157
H   H252      1.0  0.03420  0.40150  0.17780  1.0000 0.1199502157
H   H253      1.0  0.78420  0.34850  0.42780  1.0000 0.1199502157
H   H254      1.0  0.21580  0.65150  0.42780  1.0000 0.1199502157
H   H255      1.0  0.46580  0.59850  0.67780  1.0000 0.1199502157
H   H256      1.0  0.03420  0.90150  0.67780  1.0000 0.1199502157
H   H257      1.0  0.17570  0.82070  0.47520  1.0000 0.1305111124
H   H258      1.0  0.82430  0.17930  0.47520  1.0000 0.1305111124
H   H259      1.0  0.07430  0.07070  0.72520  1.0000 0.1305111124
H   H260      1.0  0.42570  0.42930  0.72520  1.0000 0.1305111124
H   H261      1.0  0.17570  0.32070  0.97520  1.0000 0.1305111124
H   H262      1.0  0.82430  0.67930  0.97520  1.0000 0.1305111124
H   H263      1.0  0.07430  0.57070  0.22520  1.0000 0.1305111124
H   H264      1.0  0.42570  0.92930  0.22520  1.0000 0.1305111124
H   H265      1.0  0.67570  0.82070  0.97520  1.0000 0.1305111124
H   H266      1.0  0.32430  0.17930  0.97520  1.0000 0.1305111124
H   H267      1.0  0.57430  0.07070  0.22520  1.0000 0.1305111124
H   H268      1.0  0.92570  0.42930  0.22520  1.0000 0.1305111124
H   H269      1.0  0.67570  0.32070  0.47520  1.0000 0.1305111124
H   H270      1.0  0.32430  0.67930  0.47520  1.0000 0.1305111124
H   H271      1.0  0.57430  0.57070  0.72520  1.0000 0.1305111124
H   H272      1.0  0.92570  0.92930  0.72520  1.0000 0.1305111124
H   H273      1.0  0.28520  0.81640  0.23090  1.0000 0.0903619688
H   H274      1.0  0.71480  0.18360  0.23090  1.0000 0.0903619688
H   H275      1.0  0.96480  0.06640  0.48090  1.0000 0.0903619688
H   H276      1.0  0.53520  0.43360  0.48090  1.0000 0.0903619688
H   H277      1.0  0.28520  0.31640  0.73090  1.0000 0.0903619688
H   H278      1.0  0.71480  0.68360  0.73090  1.0000 0.0903619688
H   H279      1.0  0.96480  0.56640  0.98090  1.0000 0.0903619688
H   H280      1.0  0.53520  0.93360  0.98090  1.0000 0.0903619688
H   H281      1.0  0.78520  0.81640  0.73090  1.0000 0.0903619688
H   H282      1.0  0.21480  0.18360  0.73090  1.0000 0.0903619688
H   H283      1.0  0.46480  0.06640  0.98090  1.0000 0.0903619688
H   H284      1.0  0.03520  0.43360  0.98090  1.0000 0.0903619688
H   H285      1.0  0.78520  0.31640  0.23090  1.0000 0.0903619688
H   H286      1.0  0.21480  0.68360  0.23090  1.0000 0.0903619688
H   H287      1.0  0.46480  0.56640  0.48090  1.0000 0.0903619688
H   H288      1.0  0.03520  0.93360  0.48090  1.0000 0.0903619688
H   H289      1.0  0.26380  0.84000  0.12250  1.0000 0.0996214316
H   H290      1.0  0.73620  0.16000  0.12250  1.0000 0.0996214316
H   H291      1.0  0.98620  0.09000  0.37250  1.0000 0.0996214316
H   H292      1.0  0.51380  0.41000  0.37250  1.0000 0.0996214316
H   H293      1.0  0.26380  0.34000  0.62250  1.0000 0.0996214316
H   H294      1.0  0.73620  0.66000  0.62250  1.0000 0.0996214316
H   H295      1.0  0.98620  0.59000  0.87250  1.0000 0.0996214316
H   H296      1.0  0.51380  0.91000  0.87250  1.0000 0.0996214316
H   H297      1.0  0.76380  0.84000  0.62250  1.0000 0.0996214316
H   H298      1.0  0.23620  0.16000  0.62250  1.0000 0.0996214316
H   H299      1.0  0.48620  0.09000  0.87250  1.0000 0.0996214316
H   H300      1.0  0.01380  0.41000  0.87250  1.0000 0.0996214316
H   H301      1.0  0.76380  0.34000  0.12250  1.0000 0.0996214316
H   H302      1.0  0.23620  0.66000  0.12250  1.0000 0.0996214316
H   H303      1.0  0.48620  0.59000  0.37250  1.0000 0.0996214316
H   H304      1.0  0.01380  0.91000  0.37250  1.0000 0.0996214316
H   H305      1.0  0.27880  0.80000  0.96210  1.0000 0.1305111124
H   H306      1.0  0.72120  0.20000  0.96210  1.0000 0.1305111124
H   H307      1.0  0.97120  0.05000  0.21210  1.0000 0.1305111124
H   H308      1.0  0.52880  0.45000  0.21210  1.0000 0.1305111124
H   H309      1.0  0.27880  0.30000  0.46210  1.0000 0.1305111124
H   H310      1.0  0.72120  0.70000  0.46210  1.0000 0.1305111124
H   H311      1.0  0.97120  0.55000  0.71210  1.0000 0.1305111124
H   H312      1.0  0.52880  0.95000  0.71210  1.0000 0.1305111124
H   H313      1.0  0.77880  0.80000  0.46210  1.0000 0.1305111124
H   H314      1.0  0.22120  0.20000  0.46210  1.0000 0.1305111124
H   H315      1.0  0.47120  0.05000  0.71210  1.0000 0.1305111124
H   H316      1.0  0.02880  0.45000  0.71210  1.0000 0.1305111124
H   H317      1.0  0.77880  0.30000  0.96210  1.0000 0.1305111124
H   H318      1.0  0.22120  0.70000  0.96210  1.0000 0.1305111124
H   H319      1.0  0.47120  0.55000  0.21210  1.0000 0.1305111124
H   H320      1.0  0.02880  0.95000  0.21210  1.0000 0.1305111124
H   H321      1.0  0.25550  0.77980  0.08310  1.0000 0.1199502157
H   H322      1.0  0.74450  0.22020  0.08310  1.0000 0.1199502157
H   H323      1.0  0.99450  0.02980  0.33310  1.0000 0.1199502157
H   H324      1.0  0.50550  0.47020  0.33310  1.0000 0.1199502157
H   H325      1.0  0.25550  0.27980  0.58310  1.0000 0.1199502157
H   H326      1.0  0.74450  0.72020  0.58310  1.0000 0.1199502157
H   H327      1.0  0.99450  0.52980  0.83310  1.0000 0.1199502157
H   H328      1.0  0.50550  0.97020  0.83310  1.0000 0.1199502157
H   H329      1.0  0.75550  0.77980  0.58310  1.0000 0.1199502157
H   H330      1.0  0.24450  0.22020  0.58310  1.0000 0.1199502157
H   H331      1.0  0.49450  0.02980  0.83310  1.0000 0.1199502157
H   H332      1.0  0.00550  0.47020  0.83310  1.0000 0.1199502157
H   H333      1.0  0.75550  0.27980  0.08310  1.0000 0.1199502157
H   H334      1.0  0.24450  0.72020  0.08310  1.0000 0.1199502157
H   H335      1.0  0.49450  0.52980  0.33310  1.0000 0.1199502157
H   H336      1.0  0.00550  0.97020  0.33310  1.0000 0.1199502157
H   H337      1.0  0.23410  0.80320  0.97520  1.0000 0.1305111124
H   H338      1.0  0.76590  0.19680  0.97520  1.0000 0.1305111124
H   H339      1.0  0.01590  0.05320  0.22520  1.0000 0.1305111124
H   H340      1.0  0.48410  0.44680  0.22520  1.0000 0.1305111124
H   H341      1.0  0.23410  0.30320  0.47520  1.0000 0.1305111124
H   H342      1.0  0.76590  0.69680  0.47520  1.0000 0.1305111124
H   H343      1.0  0.01590  0.55320  0.72520  1.0000 0.1305111124
H   H344      1.0  0.48410  0.94680  0.72520  1.0000 0.1305111124
H   H345      1.0  0.73410  0.80320  0.47520  1.0000 0.1305111124
H   H346      1.0  0.26590  0.19680  0.47520  1.0000 0.1305111124
H   H347      1.0  0.51590  0.05320  0.72520  1.0000 0.1305111124
H   H348      1.0  0.98410  0.44680  0.72520  1.0000 0.1305111124
H   H349      1.0  0.73410  0.30320  0.97520  1.0000 0.1305111124
H   H350      1.0  0.26590  0.69680  0.97520  1.0000 0.1305111124
H   H351      1.0  0.51590  0.55320  0.22520  1.0000 0.1305111124
H   H352      1.0  0.98410  0.94680  0.22520  1.0000 0.1305111124
C   C1        1.0  0.16563  0.88847  0.24210  1.0000 0.0791998142
C   C2        1.0  0.83437  0.11153  0.24210  1.0000 0.0791998142
C   C3        1.0  0.08437  0.13847  0.49210  1.0000 0.0791998142
C   C4        1.0  0.41563  0.36153  0.49210  1.0000 0.0791998142
C   C5        1.0  0.16563  0.38847  0.74210  1.0000 0.0791998142
C   C6        1.0  0.83437  0.61153  0.74210  1.0000 0.0791998142
C   C7        1.0  0.08437  0.63847  0.99210  1.0000 0.0791998142
C   C8        1.0  0.41563  0.86153  0.99210  1.0000 0.0791998142
C   C9        1.0  0.66563  0.88847  0.74210  1.0000 0.0791998142
C   C10       1.0  0.33437  0.11153  0.74210  1.0000 0.0791998142
C   C11       1.0  0.58437  0.13847  0.99210  1.0000 0.0791998142
C   C12       1.0  0.91563  0.36153  0.99210  1.0000 0.0791998142
C   C13       1.0  0.66563  0.38847  0.24210  1.0000 0.0791998142
C   C14       1.0  0.33437  0.61153  0.24210  1.0000 0.0791998142
C   C15       1.0  0.58437  0.63847  0.49210  1.0000 0.0791998142
C   C16       1.0  0.91563  0.86153  0.49210  1.0000 0.0791998142
C   C17       1.0  0.17953  0.90413  0.37240  1.0000 -0.2082292562
C   C18       1.0  0.82047  0.09587  0.37240  1.0000 -0.2082292562
C   C19       1.0  0.07047  0.15413  0.62240  1.0000 -0.2082292562
C   C20       1.0  0.42953  0.34587  0.62240  1.0000 -0.2082292562
C   C21       1.0  0.17953  0.40413  0.87240  1.0000 -0.2082292562
C   C22       1.0  0.82047  0.59587  0.87240  1.0000 -0.2082292562
C   C23       1.0  0.07047  0.65413  0.12240  1.0000 -0.2082292562
C   C24       1.0  0.42953  0.84587  0.12240  1.0000 -0.2082292562
C   C25       1.0  0.67953  0.90413  0.87240  1.0000 -0.2082292562
C   C26       1.0  0.32047  0.09587  0.87240  1.0000 -0.2082292562
C   C27       1.0  0.57047  0.15413  0.12240  1.0000 -0.2082292562
C   C28       1.0  0.92953  0.34587  0.12240  1.0000 -0.2082292562
C   C29       1.0  0.67953  0.40413  0.37240  1.0000 -0.2082292562
C   C30       1.0  0.32047  0.59587  0.37240  1.0000 -0.2082292562
C   C31       1.0  0.57047  0.65413  0.62240  1.0000 -0.2082292562
C   C32       1.0  0.92953  0.84587  0.62240  1.0000 -0.2082292562
C   C33       1.0  0.15846  0.90813  0.51600  1.0000 0.1692345605
C   C34       1.0  0.84154  0.09187  0.51600  1.0000 0.1692345605
C   C35       1.0  0.09154  0.15813  0.76600  1.0000 0.1692345605
C   C36       1.0  0.40846  0.34187  0.76600  1.0000 0.1692345605
C   C37       1.0  0.15846  0.40813  0.01600  1.0000 0.1692345605
C   C38       1.0  0.84154  0.59187  0.01600  1.0000 0.1692345605
C   C39       1.0  0.09154  0.65813  0.26600  1.0000 0.1692345605
C   C40       1.0  0.40846  0.84187  0.26600  1.0000 0.1692345605
C   C41       1.0  0.65846  0.90813  0.01600  1.0000 0.1692345605
C   C42       1.0  0.34154  0.09187  0.01600  1.0000 0.1692345605
C   C43       1.0  0.59154  0.15813  0.26600  1.0000 0.1692345605
C   C44       1.0  0.90846  0.34187  0.26600  1.0000 0.1692345605
C   C45       1.0  0.65846  0.40813  0.51600  1.0000 0.1692345605
C   C46       1.0  0.34154  0.59187  0.51600  1.0000 0.1692345605
C   C47       1.0  0.59154  0.65813  0.76600  1.0000 0.1692345605
C   C48       1.0  0.90846  0.84187  0.76600  1.0000 0.1692345605
C   C49       1.0  0.12294  0.89473  0.51860  1.0000 -0.1973358601
C   C50       1.0  0.87706  0.10527  0.51860  1.0000 -0.1973358601
C   C51       1.0  0.12706  0.14473  0.76860  1.0000 -0.1973358601
C   C52       1.0  0.37294  0.35527  0.76860  1.0000 -0.1973358601
C   C53       1.0  0.12294  0.39473  0.01860  1.0000 -0.1973358601
C   C54       1.0  0.87706  0.60527  0.01860  1.0000 -0.1973358601
C   C55       1.0  0.12706  0.64473  0.26860  1.0000 -0.1973358601
C   C56       1.0  0.37294  0.85527  0.26860  1.0000 -0.1973358601
C   C57       1.0  0.62294  0.89473  0.01860  1.0000 -0.1973358601
C   C58       1.0  0.37706  0.10527  0.01860  1.0000 -0.1973358601
C   C59       1.0  0.62706  0.14473  0.26860  1.0000 -0.1973358601
C   C60       1.0  0.87294  0.35527  0.26860  1.0000 -0.1973358601
C   C61       1.0  0.62294  0.39473  0.51860  1.0000 -0.1973358601
C   C62       1.0  0.37706  0.60527  0.51860  1.0000 -0.1973358601
C   C63       1.0  0.62706  0.64473  0.76860  1.0000 -0.1973358601
C   C64       1.0  0.87294  0.85527  0.76860  1.0000 -0.1973358601
C   C65       1.0  0.11034  0.87926  0.38600  1.0000 0.0791998142
C   C66       1.0  0.88966  0.12074  0.38600  1.0000 0.0791998142
C   C67       1.0  0.13966  0.12926  0.63600  1.0000 0.0791998142
C   C68       1.0  0.36034  0.37074  0.63600  1.0000 0.0791998142
C   C69       1.0  0.11034  0.37926  0.88600  1.0000 0.0791998142
C   C70       1.0  0.88966  0.62074  0.88600  1.0000 0.0791998142
C   C71       1.0  0.13966  0.62926  0.13600  1.0000 0.0791998142
C   C72       1.0  0.36034  0.87074  0.13600  1.0000 0.0791998142
C   C73       1.0  0.61034  0.87926  0.88600  1.0000 0.0791998142
C   C74       1.0  0.38966  0.12074  0.88600  1.0000 0.0791998142
C   C75       1.0  0.63966  0.12926  0.13600  1.0000 0.0791998142
C   C76       1.0  0.86034  0.37074  0.13600  1.0000 0.0791998142
C   C77       1.0  0.61034  0.37926  0.38600  1.0000 0.0791998142
C   C78       1.0  0.38966  0.62074  0.38600  1.0000 0.0791998142
C   C79       1.0  0.63966  0.62926  0.63600  1.0000 0.0791998142
C   C80       1.0  0.86034  0.87074  0.63600  1.0000 0.0791998142
C   C81       1.0  0.17318  0.92693  0.65610  1.0000 -0.2498144827
C   C82       1.0  0.82682  0.07307  0.65610  1.0000 -0.2498144827
C   C83       1.0  0.07682  0.17693  0.90610  1.0000 -0.2498144827
C   C84       1.0  0.42318  0.32307  0.90610  1.0000 -0.2498144827
C   C85       1.0  0.17318  0.42693  0.15610  1.0000 -0.2498144827
C   C86       1.0  0.82682  0.57307  0.15610  1.0000 -0.2498144827
C   C87       1.0  0.07682  0.67693  0.40610  1.0000 -0.2498144827
C   C88       1.0  0.42318  0.82307  0.40610  1.0000 -0.2498144827
C   C89       1.0  0.67318  0.92693  0.15610  1.0000 -0.2498144827
C   C90       1.0  0.32682  0.07307  0.15610  1.0000 -0.2498144827
C   C91       1.0  0.57682  0.17693  0.40610  1.0000 -0.2498144827
C   C92       1.0  0.92318  0.32307  0.40610  1.0000 -0.2498144827
C   C93       1.0  0.67318  0.42693  0.65610  1.0000 -0.2498144827
C   C94       1.0  0.32682  0.57307  0.65610  1.0000 -0.2498144827
C   C95       1.0  0.57682  0.67693  0.90610  1.0000 -0.2498144827
C   C96       1.0  0.92318  0.82307  0.90610  1.0000 -0.2498144827
C   C97       1.0  0.17716  0.95923  0.60550  1.0000 -0.1484006059
C   C98       1.0  0.82284  0.04077  0.60550  1.0000 -0.1484006059
C   C99       1.0  0.07284  0.20923  0.85550  1.0000 -0.1484006059
C   C100      1.0  0.42716  0.29077  0.85550  1.0000 -0.1484006059
C   C101      1.0  0.17716  0.45923  0.10550  1.0000 -0.1484006059
C   C102      1.0  0.82284  0.54077  0.10550  1.0000 -0.1484006059
C   C103      1.0  0.07284  0.70923  0.35550  1.0000 -0.1484006059
C   C104      1.0  0.42716  0.79077  0.35550  1.0000 -0.1484006059
C   C105      1.0  0.67716  0.95923  0.10550  1.0000 -0.1484006059
C   C106      1.0  0.32284  0.04077  0.10550  1.0000 -0.1484006059
C   C107      1.0  0.57284  0.20923  0.35550  1.0000 -0.1484006059
C   C108      1.0  0.92716  0.29077  0.35550  1.0000 -0.1484006059
C   C109      1.0  0.67716  0.45923  0.60550  1.0000 -0.1484006059
C   C110      1.0  0.32284  0.54077  0.60550  1.0000 -0.1484006059
C   C111      1.0  0.57284  0.70923  0.85550  1.0000 -0.1484006059
C   C112      1.0  0.92716  0.79077  0.85550  1.0000 -0.1484006059
C   C113      1.0  0.14093  0.97212  0.54140  1.0000 -0.2498144827
C   C114      1.0  0.85907  0.02788  0.54140  1.0000 -0.2498144827
C   C115      1.0  0.10907  0.22212  0.79140  1.0000 -0.2498144827
C   C116      1.0  0.39093  0.27788  0.79140  1.0000 -0.2498144827
C   C117      1.0  0.14093  0.47212  0.04140  1.0000 -0.2498144827
C   C118      1.0  0.85907  0.52788  0.04140  1.0000 -0.2498144827
C   C119      1.0  0.10907  0.72212  0.29140  1.0000 -0.2498144827
C   C120      1.0  0.39093  0.77788  0.29140  1.0000 -0.2498144827
C   C121      1.0  0.64093  0.97212  0.04140  1.0000 -0.2498144827
C   C122      1.0  0.35907  0.02788  0.04140  1.0000 -0.2498144827
C   C123      1.0  0.60907  0.22212  0.29140  1.0000 -0.2498144827
C   C124      1.0  0.89093  0.27788  0.29140  1.0000 -0.2498144827
C   C125      1.0  0.64093  0.47212  0.54140  1.0000 -0.2498144827
C   C126      1.0  0.35907  0.52788  0.54140  1.0000 -0.2498144827
C   C127      1.0  0.60907  0.72212  0.79140  1.0000 -0.2498144827
C   C128      1.0  0.89093  0.77788  0.79140  1.0000 -0.2498144827
C   C129      1.0  0.11162  0.04712  0.39740  1.0000 0.0791998142
C   C130      1.0  0.88838  0.95288  0.39740  1.0000 0.0791998142
C   C131      1.0  0.13838  0.29712  0.64740  1.0000 0.0791998142
C   C132      1.0  0.36162  0.20288  0.64740  1.0000 0.0791998142
C   C133      1.0  0.11162  0.54712  0.89740  1.0000 0.0791998142
C   C134      1.0  0.88838  0.45288  0.89740  1.0000 0.0791998142
C   C135      1.0  0.13838  0.79712  0.14740  1.0000 0.0791998142
C   C136      1.0  0.36162  0.70288  0.14740  1.0000 0.0791998142
C   C137      1.0  0.61162  0.04712  0.89740  1.0000 0.0791998142
C   C138      1.0  0.38838  0.95288  0.89740  1.0000 0.0791998142
C   C139      1.0  0.63838  0.29712  0.14740  1.0000 0.0791998142
C   C140      1.0  0.86162  0.20288  0.14740  1.0000 0.0791998142
C   C141      1.0  0.61162  0.54712  0.39740  1.0000 0.0791998142
C   C142      1.0  0.38838  0.45288  0.39740  1.0000 0.0791998142
C   C143      1.0  0.63838  0.79712  0.64740  1.0000 0.0791998142
C   C144      1.0  0.86162  0.70288  0.64740  1.0000 0.0791998142
C   C145      1.0  0.11001  0.01902  0.45110  1.0000 -0.2082292562
C   C146      1.0  0.88999  0.98098  0.45110  1.0000 -0.2082292562
C   C147      1.0  0.13999  0.26902  0.70110  1.0000 -0.2082292562
C   C148      1.0  0.36001  0.23098  0.70110  1.0000 -0.2082292562
C   C149      1.0  0.11001  0.51902  0.95110  1.0000 -0.2082292562
C   C150      1.0  0.88999  0.48098  0.95110  1.0000 -0.2082292562
C   C151      1.0  0.13999  0.76902  0.20110  1.0000 -0.2082292562
C   C152      1.0  0.36001  0.73098  0.20110  1.0000 -0.2082292562
C   C153      1.0  0.61001  0.01902  0.95110  1.0000 -0.2082292562
C   C154      1.0  0.38999  0.98098  0.95110  1.0000 -0.2082292562
C   C155      1.0  0.63999  0.26902  0.20110  1.0000 -0.2082292562
C   C156      1.0  0.86001  0.23098  0.20110  1.0000 -0.2082292562
C   C157      1.0  0.61001  0.51902  0.45110  1.0000 -0.2082292562
C   C158      1.0  0.38999  0.48098  0.45110  1.0000 -0.2082292562
C   C159      1.0  0.63999  0.76902  0.70110  1.0000 -0.2082292562
C   C160      1.0  0.86001  0.73098  0.70110  1.0000 -0.2082292562
C   C161      1.0  0.14269  0.00386  0.48400  1.0000 0.1619689723
C   C162      1.0  0.85731  0.99614  0.48400  1.0000 0.1619689723
C   C163      1.0  0.10731  0.25386  0.73400  1.0000 0.1619689723
C   C164      1.0  0.39269  0.24614  0.73400  1.0000 0.1619689723
C   C165      1.0  0.14269  0.50386  0.98400  1.0000 0.1619689723
C   C166      1.0  0.85731  0.49614  0.98400  1.0000 0.1619689723
C   C167      1.0  0.10731  0.75386  0.23400  1.0000 0.1619689723
C   C168      1.0  0.39269  0.74614  0.23400  1.0000 0.1619689723
C   C169      1.0  0.64269  0.00386  0.98400  1.0000 0.1619689723
C   C170      1.0  0.35731  0.99614  0.98400  1.0000 0.1619689723
C   C171      1.0  0.60731  0.25386  0.23400  1.0000 0.1619689723
C   C172      1.0  0.89269  0.24614  0.23400  1.0000 0.1619689723
C   C173      1.0  0.64269  0.50386  0.48400  1.0000 0.1619689723
C   C174      1.0  0.35731  0.49614  0.48400  1.0000 0.1619689723
C   C175      1.0  0.60731  0.75386  0.73400  1.0000 0.1619689723
C   C176      1.0  0.89269  0.74614  0.73400  1.0000 0.1619689723
C   C177      1.0  0.17644  0.01836  0.45570  1.0000 -0.2082292562
C   C178      1.0  0.82356  0.98164  0.45570  1.0000 -0.2082292562
C   C179      1.0  0.07356  0.26836  0.70570  1.0000 -0.2082292562
C   C180      1.0  0.42644  0.23164  0.70570  1.0000 -0.2082292562
C   C181      1.0  0.17644  0.51836  0.95570  1.0000 -0.2082292562
C   C182      1.0  0.82356  0.48164  0.95570  1.0000 -0.2082292562
C   C183      1.0  0.07356  0.76836  0.20570  1.0000 -0.2082292562
C   C184      1.0  0.42644  0.73164  0.20570  1.0000 -0.2082292562
C   C185      1.0  0.67644  0.01836  0.95570  1.0000 -0.2082292562
C   C186      1.0  0.32356  0.98164  0.95570  1.0000 -0.2082292562
C   C187      1.0  0.57356  0.26836  0.20570  1.0000 -0.2082292562
C   C188      1.0  0.92644  0.23164  0.20570  1.0000 -0.2082292562
C   C189      1.0  0.67644  0.51836  0.45570  1.0000 -0.2082292562
C   C190      1.0  0.32356  0.48164  0.45570  1.0000 -0.2082292562
C   C191      1.0  0.57356  0.76836  0.70570  1.0000 -0.2082292562
C   C192      1.0  0.92644  0.73164  0.70570  1.0000 -0.2082292562
C   C193      1.0  0.17630  0.04703  0.39630  1.0000 0.0903619688
C   C194      1.0  0.82370  0.95297  0.39630  1.0000 0.0903619688
C   C195      1.0  0.07370  0.29703  0.64630  1.0000 0.0903619688
C   C196      1.0  0.42630  0.20297  0.64630  1.0000 0.0903619688
C   C197      1.0  0.17630  0.54703  0.89630  1.0000 0.0903619688
C   C198      1.0  0.82370  0.45297  0.89630  1.0000 0.0903619688
C   C199      1.0  0.07370  0.79703  0.14630  1.0000 0.0903619688
C   C200      1.0  0.42630  0.70297  0.14630  1.0000 0.0903619688
C   C201      1.0  0.67630  0.04703  0.89630  1.0000 0.0903619688
C   C202      1.0  0.32370  0.95297  0.89630  1.0000 0.0903619688
C   C203      1.0  0.57370  0.29703  0.14630  1.0000 0.0903619688
C   C204      1.0  0.92630  0.20297  0.14630  1.0000 0.0903619688
C   C205      1.0  0.67630  0.54703  0.39630  1.0000 0.0903619688
C   C206      1.0  0.32370  0.45297  0.39630  1.0000 0.0903619688
C   C207      1.0  0.57370  0.79703  0.64630  1.0000 0.0903619688
C   C208      1.0  0.92630  0.70297  0.64630  1.0000 0.0903619688
C   C209      1.0  0.19462  0.84341  0.67390  1.0000 -0.0069394036
C   C210      1.0  0.80538  0.15659  0.67390  1.0000 -0.0069394036
C   C211      1.0  0.05538  0.09341  0.92390  1.0000 -0.0069394036
C   C212      1.0  0.44462  0.40659  0.92390  1.0000 -0.0069394036
C   C213      1.0  0.19462  0.34341  0.17390  1.0000 -0.0069394036
C   C214      1.0  0.80538  0.65659  0.17390  1.0000 -0.0069394036
C   C215      1.0  0.05538  0.59341  0.42390  1.0000 -0.0069394036
C   C216      1.0  0.44462  0.90659  0.42390  1.0000 -0.0069394036
C   C217      1.0  0.69462  0.84341  0.17390  1.0000 -0.0069394036
C   C218      1.0  0.30538  0.15659  0.17390  1.0000 -0.0069394036
C   C219      1.0  0.55538  0.09341  0.42390  1.0000 -0.0069394036
C   C220      1.0  0.94462  0.40659  0.42390  1.0000 -0.0069394036
C   C221      1.0  0.69462  0.34341  0.67390  1.0000 -0.0069394036
C   C222      1.0  0.30538  0.65659  0.67390  1.0000 -0.0069394036
C   C223      1.0  0.55538  0.59341  0.92390  1.0000 -0.0069394036
C   C224      1.0  0.94462  0.90659  0.92390  1.0000 -0.0069394036
C   C225      1.0  0.22643  0.85805  0.73750  1.0000 -0.1563172772
C   C226      1.0  0.77357  0.14195  0.73750  1.0000 -0.1563172772
C   C227      1.0  0.02357  0.10805  0.98750  1.0000 -0.1563172772
C   C228      1.0  0.47643  0.39195  0.98750  1.0000 -0.1563172772
C   C229      1.0  0.22643  0.35805  0.23750  1.0000 -0.1563172772
C   C230      1.0  0.77357  0.64195  0.23750  1.0000 -0.1563172772
C   C231      1.0  0.02357  0.60805  0.48750  1.0000 -0.1563172772
C   C232      1.0  0.47643  0.89195  0.48750  1.0000 -0.1563172772
C   C233      1.0  0.72643  0.85805  0.23750  1.0000 -0.1563172772
C   C234      1.0  0.27357  0.14195  0.23750  1.0000 -0.1563172772
C   C235      1.0  0.52357  0.10805  0.48750  1.0000 -0.1563172772
C   C236      1.0  0.97643  0.39195  0.48750  1.0000 -0.1563172772
C   C237      1.0  0.72643  0.35805  0.73750  1.0000 -0.1563172772
C   C238      1.0  0.27357  0.64195  0.73750  1.0000 -0.1563172772
C   C239      1.0  0.52357  0.60805  0.98750  1.0000 -0.1563172772
C   C240      1.0  0.97643  0.89195  0.98750  1.0000 -0.1563172772
C   C241      1.0  0.25984  0.85981  0.64550  1.0000 -0.0008736393
C   C242      1.0  0.74016  0.14019  0.64550  1.0000 -0.0008736393
C   C243      1.0  0.99016  0.10981  0.89550  1.0000 -0.0008736393
C   C244      1.0  0.50984  0.39019  0.89550  1.0000 -0.0008736393
C   C245      1.0  0.25984  0.35981  0.14550  1.0000 -0.0008736393
C   C246      1.0  0.74016  0.64019  0.14550  1.0000 -0.0008736393
C   C247      1.0  0.99016  0.60981  0.39550  1.0000 -0.0008736393
C   C248      1.0  0.50984  0.89019  0.39550  1.0000 -0.0008736393
C   C249      1.0  0.75984  0.85981  0.14550  1.0000 -0.0008736393
C   C250      1.0  0.24016  0.14019  0.14550  1.0000 -0.0008736393
C   C251      1.0  0.49016  0.10981  0.39550  1.0000 -0.0008736393
C   C252      1.0  0.00984  0.39019  0.39550  1.0000 -0.0008736393
C   C253      1.0  0.75984  0.35981  0.64550  1.0000 -0.0008736393
C   C254      1.0  0.24016  0.64019  0.64550  1.0000 -0.0008736393
C   C255      1.0  0.49016  0.60981  0.89550  1.0000 -0.0008736393
C   C256      1.0  0.00984  0.89019  0.89550  1.0000 -0.0008736393
C   C257      1.0  0.26171  0.84716  0.48960  1.0000 -0.2498144827
C   C258      1.0  0.73829  0.15284  0.48960  1.0000 -0.2498144827
C   C259      1.0  0.98829  0.09716  0.73960  1.0000 -0.2498144827
C   C260      1.0  0.51171  0.40284  0.73960  1.0000 -0.2498144827
C   C261      1.0  0.26171  0.34716  0.98960  1.0000 -0.2498144827
C   C262      1.0  0.73829  0.65284  0.98960  1.0000 -0.2498144827
C   C263      1.0  0.98829  0.59716  0.23960  1.0000 -0.2498144827
C   C264      1.0  0.51171  0.90284  0.23960  1.0000 -0.2498144827
C   C265      1.0  0.76171  0.84716  0.98960  1.0000 -0.2498144827
C   C266      1.0  0.23829  0.15284  0.98960  1.0000 -0.2498144827
C   C267      1.0  0.48829  0.09716  0.23960  1.0000 -0.2498144827
C   C268      1.0  0.01171  0.40284  0.23960  1.0000 -0.2498144827
C   C269      1.0  0.76171  0.34716  0.48960  1.0000 -0.2498144827
C   C270      1.0  0.23829  0.65284  0.48960  1.0000 -0.2498144827
C   C271      1.0  0.48829  0.59716  0.73960  1.0000 -0.2498144827
C   C272      1.0  0.01171  0.90284  0.73960  1.0000 -0.2498144827
C   C273      1.0  0.23016  0.83254  0.42490  1.0000 0.2432889079
C   C274      1.0  0.76984  0.16746  0.42490  1.0000 0.2432889079
C   C275      1.0  0.01984  0.08254  0.67490  1.0000 0.2432889079
C   C276      1.0  0.48016  0.41746  0.67490  1.0000 0.2432889079
C   C277      1.0  0.23016  0.33254  0.92490  1.0000 0.2432889079
C   C278      1.0  0.76984  0.66746  0.92490  1.0000 0.2432889079
C   C279      1.0  0.01984  0.58254  0.17490  1.0000 0.2432889079
C   C280      1.0  0.48016  0.91746  0.17490  1.0000 0.2432889079
C   C281      1.0  0.73016  0.83254  0.92490  1.0000 0.2432889079
C   C282      1.0  0.26984  0.16746  0.92490  1.0000 0.2432889079
C   C283      1.0  0.51984  0.08254  0.17490  1.0000 0.2432889079
C   C284      1.0  0.98016  0.41746  0.17490  1.0000 0.2432889079
C   C285      1.0  0.73016  0.33254  0.42490  1.0000 0.2432889079
C   C286      1.0  0.26984  0.66746  0.42490  1.0000 0.2432889079
C   C287      1.0  0.51984  0.58254  0.67490  1.0000 0.2432889079
C   C288      1.0  0.98016  0.91746  0.67490  1.0000 0.2432889079
C   C289      1.0  0.19680  0.83063  0.51780  1.0000 -0.220608835
C   C290      1.0  0.80320  0.16937  0.51780  1.0000 -0.220608835
C   C291      1.0  0.05320  0.08063  0.76780  1.0000 -0.220608835
C   C292      1.0  0.44680  0.41937  0.76780  1.0000 -0.220608835
C   C293      1.0  0.19680  0.33063  0.01780  1.0000 -0.220608835
C   C294      1.0  0.80320  0.66937  0.01780  1.0000 -0.220608835
C   C295      1.0  0.05320  0.58063  0.26780  1.0000 -0.220608835
C   C296      1.0  0.44680  0.91937  0.26780  1.0000 -0.220608835
C   C297      1.0  0.69680  0.83063  0.01780  1.0000 -0.220608835
C   C298      1.0  0.30320  0.16937  0.01780  1.0000 -0.220608835
C   C299      1.0  0.55320  0.08063  0.26780  1.0000 -0.220608835
C   C300      1.0  0.94680  0.41937  0.26780  1.0000 -0.220608835
C   C301      1.0  0.69680  0.33063  0.51780  1.0000 -0.220608835
C   C302      1.0  0.30320  0.66937  0.51780  1.0000 -0.220608835
C   C303      1.0  0.55320  0.58063  0.76780  1.0000 -0.220608835
C   C304      1.0  0.94680  0.91937  0.76780  1.0000 -0.220608835
C   C305      1.0  0.15822  0.84147  0.77360  1.0000 0.5469025557
C   C306      1.0  0.84178  0.15853  0.77360  1.0000 0.5469025557
C   C307      1.0  0.09178  0.09147  0.02360  1.0000 0.5469025557
C   C308      1.0  0.40822  0.40853  0.02360  1.0000 0.5469025557
C   C309      1.0  0.15822  0.34147  0.27360  1.0000 0.5469025557
C   C310      1.0  0.84178  0.65853  0.27360  1.0000 0.5469025557
C   C311      1.0  0.09178  0.59147  0.52360  1.0000 0.5469025557
C   C312      1.0  0.40822  0.90853  0.52360  1.0000 0.5469025557
C   C313      1.0  0.65822  0.84147  0.27360  1.0000 0.5469025557
C   C314      1.0  0.34178  0.15853  0.27360  1.0000 0.5469025557
C   C315      1.0  0.59178  0.09147  0.52360  1.0000 0.5469025557
C   C316      1.0  0.90822  0.40853  0.52360  1.0000 0.5469025557
C   C317      1.0  0.65822  0.34147  0.77360  1.0000 0.5469025557
C   C318      1.0  0.34178  0.65853  0.77360  1.0000 0.5469025557
C   C319      1.0  0.59178  0.59147  0.02360  1.0000 0.5469025557
C   C320      1.0  0.90822  0.90853  0.02360  1.0000 0.5469025557
C   C321      1.0  0.29462  0.87436  0.71940  1.0000 0.5347604041
C   C322      1.0  0.70538  0.12564  0.71940  1.0000 0.5347604041
C   C323      1.0  0.95538  0.12436  0.96940  1.0000 0.5347604041
C   C324      1.0  0.54462  0.37564  0.96940  1.0000 0.5347604041
C   C325      1.0  0.29462  0.37436  0.21940  1.0000 0.5347604041
C   C326      1.0  0.70538  0.62564  0.21940  1.0000 0.5347604041
C   C327      1.0  0.95538  0.62436  0.46940  1.0000 0.5347604041
C   C328      1.0  0.54462  0.87564  0.46940  1.0000 0.5347604041
C   C329      1.0  0.79462  0.87436  0.21940  1.0000 0.5347604041
C   C330      1.0  0.20538  0.12564  0.21940  1.0000 0.5347604041
C   C331      1.0  0.45538  0.12436  0.46940  1.0000 0.5347604041
C   C332      1.0  0.04462  0.37564  0.46940  1.0000 0.5347604041
C   C333      1.0  0.79462  0.37436  0.71940  1.0000 0.5347604041
C   C334      1.0  0.20538  0.62564  0.71940  1.0000 0.5347604041
C   C335      1.0  0.45538  0.62436  0.96940  1.0000 0.5347604041
C   C336      1.0  0.04462  0.87564  0.96940  1.0000 0.5347604041
C   C337      1.0  0.26190  0.82045  0.16880  1.0000 0.0116274037
C   C338      1.0  0.73810  0.17955  0.16880  1.0000 0.0116274037
C   C339      1.0  0.98810  0.07045  0.41880  1.0000 0.0116274037
C   C340      1.0  0.51190  0.42955  0.41880  1.0000 0.0116274037
C   C341      1.0  0.26190  0.32045  0.66880  1.0000 0.0116274037
C   C342      1.0  0.73810  0.67955  0.66880  1.0000 0.0116274037
C   C343      1.0  0.98810  0.57045  0.91880  1.0000 0.0116274037
C   C344      1.0  0.51190  0.92955  0.91880  1.0000 0.0116274037
C   C345      1.0  0.76190  0.82045  0.66880  1.0000 0.0116274037
C   C346      1.0  0.23810  0.17955  0.66880  1.0000 0.0116274037
C   C347      1.0  0.48810  0.07045  0.91880  1.0000 0.0116274037
C   C348      1.0  0.01190  0.42955  0.91880  1.0000 0.0116274037
C   C349      1.0  0.76190  0.32045  0.16880  1.0000 0.0116274037
C   C350      1.0  0.23810  0.67955  0.16880  1.0000 0.0116274037
C   C351      1.0  0.48810  0.57045  0.41880  1.0000 0.0116274037
C   C352      1.0  0.01190  0.92955  0.41880  1.0000 0.0116274037
C   C353      1.0  0.25720  0.79900  0.03590  1.0000 -0.4049723561
C   C354      1.0  0.74280  0.20100  0.03590  1.0000 -0.4049723561
C   C355      1.0  0.99280  0.04900  0.28590  1.0000 -0.4049723561
C   C356      1.0  0.50720  0.45100  0.28590  1.0000 -0.4053763862
C   C357      1.0  0.25720  0.29900  0.53590  1.0000 -0.4049723561
C   C358      1.0  0.74280  0.70100  0.53590  1.0000 -0.4049723561
C   C359      1.0  0.99280  0.54900  0.78590  1.0000 -0.4053763862
C   C360      1.0  0.50720  0.95100  0.78590  1.0000 -0.4053763862
C   C361      1.0  0.75720  0.79900  0.53590  1.0000 -0.4049723561
C   C362      1.0  0.24280  0.20100  0.53590  1.0000 -0.4049723561
C   C363      1.0  0.49280  0.04900  0.78590  1.0000 -0.4049723561
C   C364      1.0  0.00720  0.45100  0.78590  1.0000 -0.4049723561
C   C365      1.0  0.75720  0.29900  0.03590  1.0000 -0.4049723561
C   C366      1.0  0.24280  0.70100  0.03590  1.0000 -0.4053763862
C   C367      1.0  0.49280  0.54900  0.28590  1.0000 -0.4053763862
C   C368      1.0  0.00720  0.95100  0.28590  1.0000 -0.4049723561
N   N1        1.0  0.13051  0.87608  0.24410  1.0000 -0.2498144827
N   N2        1.0  0.86949  0.12392  0.24410  1.0000 -0.2498144827
N   N3        1.0  0.11949  0.12608  0.49410  1.0000 -0.2498144827
N   N4        1.0  0.38051  0.37392  0.49410  1.0000 -0.2498144827
N   N5        1.0  0.13051  0.37608  0.74410  1.0000 -0.2498144827
N   N6        1.0  0.86949  0.62392  0.74410  1.0000 -0.2498144827
N   N7        1.0  0.11949  0.62608  0.99410  1.0000 -0.2498144827
N   N8        1.0  0.38051  0.87392  0.99410  1.0000 -0.2498144827
N   N9        1.0  0.63051  0.87608  0.74410  1.0000 -0.2498144827
N   N10       1.0  0.36949  0.12392  0.74410  1.0000 -0.2498144827
N   N11       1.0  0.61949  0.12608  0.99410  1.0000 -0.2498144827
N   N12       1.0  0.88051  0.37392  0.99410  1.0000 -0.2498144827
N   N13       1.0  0.63051  0.37608  0.24410  1.0000 -0.2498144827
N   N14       1.0  0.36949  0.62392  0.24410  1.0000 -0.2498144827
N   N15       1.0  0.61949  0.62608  0.49410  1.0000 -0.2498144827
N   N16       1.0  0.88051  0.87392  0.49410  1.0000 -0.2498144827
N   N17       1.0  0.14387  0.06155  0.36930  1.0000 -0.220608835
N   N18       1.0  0.85613  0.93845  0.36930  1.0000 -0.220608835
N   N19       1.0  0.10613  0.31155  0.61930  1.0000 -0.220608835
N   N20       1.0  0.39387  0.18845  0.61930  1.0000 -0.220608835
N   N21       1.0  0.14387  0.56155  0.86930  1.0000 -0.220608835
N   N22       1.0  0.85613  0.43845  0.86930  1.0000 -0.220608835
N   N23       1.0  0.10613  0.81155  0.11930  1.0000 -0.220608835
N   N24       1.0  0.39387  0.68845  0.11930  1.0000 -0.220608835
N   N25       1.0  0.64387  0.06155  0.86930  1.0000 -0.220608835
N   N26       1.0  0.35613  0.93845  0.86930  1.0000 -0.220608835
N   N27       1.0  0.60613  0.31155  0.11930  1.0000 -0.220608835
N   N28       1.0  0.89387  0.18845  0.11930  1.0000 -0.220608835
N   N29       1.0  0.64387  0.56155  0.36930  1.0000 -0.220608835
N   N30       1.0  0.35613  0.43845  0.36930  1.0000 -0.220608835
N   N31       1.0  0.60613  0.81155  0.61930  1.0000 -0.220608835
N   N32       1.0  0.89387  0.68845  0.61930  1.0000 -0.220608835
O   O1        1.0  0.15861  0.85483  0.91250  1.0000 -0.5675021749
O   O2        1.0  0.84139  0.14517  0.91250  1.0000 -0.5675021749
O   O3        1.0  0.09139  0.10483  0.16250  1.0000 -0.5675021749
O   O4        1.0  0.40861  0.39517  0.16250  1.0000 -0.5675021749
O   O5        1.0  0.15861  0.35483  0.41250  1.0000 -0.5675021749
O   O6        1.0  0.84139  0.64517  0.41250  1.0000 -0.5675021749
O   O7        1.0  0.09139  0.60483  0.66250  1.0000 -0.5675021749
O   O8        1.0  0.40861  0.89517  0.66250  1.0000 -0.5675021749
O   O9        1.0  0.65861  0.85483  0.41250  1.0000 -0.5675021749
O   O10       1.0  0.34139  0.14517  0.41250  1.0000 -0.5675021749
O   O11       1.0  0.59139  0.10483  0.66250  1.0000 -0.5675021749
O   O12       1.0  0.90861  0.39517  0.66250  1.0000 -0.5675021749
O   O13       1.0  0.65861  0.35483  0.91250  1.0000 -0.5675021749
O   O14       1.0  0.34139  0.64517  0.91250  1.0000 -0.5675021749
O   O15       1.0  0.59139  0.60483  0.16250  1.0000 -0.5675021749
O   O16       1.0  0.90861  0.89517  0.16250  1.0000 -0.5675021749
O   O17       1.0  0.13034  0.82749  0.71860  1.0000 -0.5587525483
O   O18       1.0  0.86966  0.17251  0.71860  1.0000 -0.5587525483
O   O19       1.0  0.11966  0.07749  0.96860  1.0000 -0.5587525483
O   O20       1.0  0.38034  0.42251  0.96860  1.0000 -0.5587525483
O   O21       1.0  0.13034  0.32749  0.21860  1.0000 -0.5587525483
O   O22       1.0  0.86966  0.67251  0.21860  1.0000 -0.5587525483
O   O23       1.0  0.11966  0.57749  0.46860  1.0000 -0.5587525483
O   O24       1.0  0.38034  0.92251  0.46860  1.0000 -0.5587525483
O   O25       1.0  0.63034  0.82749  0.21860  1.0000 -0.5587525483
O   O26       1.0  0.36966  0.17251  0.21860  1.0000 -0.5587525483
O   O27       1.0  0.61966  0.07749  0.46860  1.0000 -0.5587525483
O   O28       1.0  0.88034  0.42251  0.46860  1.0000 -0.5587525483
O   O29       1.0  0.63034  0.32749  0.71860  1.0000 -0.5587525483
O   O30       1.0  0.36966  0.67251  0.71860  1.0000 -0.5587525483
O   O31       1.0  0.61966  0.57749  0.96860  1.0000 -0.5587525483
O   O32       1.0  0.88034  0.92251  0.96860  1.0000 -0.5587525483
O   O33       1.0  0.29253  0.88772  0.85260  1.0000 -0.5675021749
O   O34       1.0  0.70747  0.11228  0.85260  1.0000 -0.5675021749
O   O35       1.0  0.95747  0.13772  0.10260  1.0000 -0.5675021749
O   O36       1.0  0.54253  0.36228  0.10260  1.0000 -0.5675021749
O   O37       1.0  0.29253  0.38772  0.35260  1.0000 -0.5675021749
O   O38       1.0  0.70747  0.61228  0.35260  1.0000 -0.5675021749
O   O39       1.0  0.95747  0.63772  0.60260  1.0000 -0.5675021749
O   O40       1.0  0.54253  0.86228  0.60260  1.0000 -0.5675021749
O   O41       1.0  0.79253  0.88772  0.35260  1.0000 -0.5675021749
O   O42       1.0  0.20747  0.11228  0.35260  1.0000 -0.5675021749
O   O43       1.0  0.45747  0.13772  0.60260  1.0000 -0.5675021749
O   O44       1.0  0.04253  0.36228  0.60260  1.0000 -0.5675021749
O   O45       1.0  0.79253  0.38772  0.85260  1.0000 -0.5675021749
O   O46       1.0  0.20747  0.61228  0.85260  1.0000 -0.5675021749
O   O47       1.0  0.45747  0.63772  0.10260  1.0000 -0.5675021749
O   O48       1.0  0.04253  0.86228  0.10260  1.0000 -0.5675021749
O   O49       1.0  0.32613  0.87191  0.64300  1.0000 -0.5187164921
O   O50       1.0  0.67387  0.12809  0.64300  1.0000 -0.5187164921
O   O51       1.0  0.92387  0.12191  0.89300  1.0000 -0.5187164921
O   O52       1.0  0.57613  0.37809  0.89300  1.0000 -0.5187164921
O   O53       1.0  0.32613  0.37191  0.14300  1.0000 -0.5187164921
O   O54       1.0  0.67387  0.62809  0.14300  1.0000 -0.5187164921
O   O55       1.0  0.92387  0.62191  0.39300  1.0000 -0.5187164921
O   O56       1.0  0.57613  0.87809  0.39300  1.0000 -0.5187164921
O   O57       1.0  0.82613  0.87191  0.14300  1.0000 -0.5187164921
O   O58       1.0  0.17387  0.12809  0.14300  1.0000 -0.5187164921
O   O59       1.0  0.42387  0.12191  0.39300  1.0000 -0.5187164921
O   O60       1.0  0.07613  0.37809  0.39300  1.0000 -0.5187164921
O   O61       1.0  0.82613  0.37191  0.64300  1.0000 -0.5187164921
O   O62       1.0  0.17387  0.62809  0.64300  1.0000 -0.5187164921
O   O63       1.0  0.42387  0.62191  0.89300  1.0000 -0.5187164921
O   O64       1.0  0.07613  0.87809  0.89300  1.0000 -0.5187164921
O   O65       1.0  0.22952  0.81837  0.27480  1.0000 -0.1943446401
O   O66       1.0  0.77048  0.18163  0.27480  1.0000 -0.1943446401
O   O67       1.0  0.02048  0.06837  0.52480  1.0000 -0.1943446401
O   O68       1.0  0.47952  0.43163  0.52480  1.0000 -0.1943446401
O   O69       1.0  0.22952  0.31837  0.77480  1.0000 -0.1943446401
O   O70       1.0  0.77048  0.68163  0.77480  1.0000 -0.1943446401
O   O71       1.0  0.02048  0.56837  0.02480  1.0000 -0.1943446401
O   O72       1.0  0.47952  0.93163  0.02480  1.0000 -0.1943446401
O   O73       1.0  0.72952  0.81837  0.77480  1.0000 -0.1943446401
O   O74       1.0  0.27048  0.18163  0.77480  1.0000 -0.1943446401
O   O75       1.0  0.52048  0.06837  0.02480  1.0000 -0.1943446401
O   O76       1.0  0.97952  0.43163  0.02480  1.0000 -0.1943446401
O   O77       1.0  0.72952  0.31837  0.27480  1.0000 -0.1943446401
O   O78       1.0  0.27048  0.68163  0.27480  1.0000 -0.1943446401
O   O79       1.0  0.52048  0.56837  0.52480  1.0000 -0.1943446401
O   O80       1.0  0.97952  0.93163  0.52480  1.0000 -0.1943446401
