# DDEC6 charges by PACMAN v1.1 (https://github.com/mtap-research/PACMAN-charge/)
data_c6ta09406f2_FSR_pacman
_symmetry_space_group_name_H-M   'P 1'
_cell_length_a   21.49340000
_cell_length_b   21.49340000
_cell_length_c   21.49340000
_cell_angle_alpha   90.00000000
_cell_angle_beta   90.00000000
_cell_angle_gamma   90.00000000
_symmetry_Int_Tables_number   1
_chemical_formula_structural   Al24H112.08C192N24O128
_chemical_formula_sum   'Al24 H112.08 C192 N24 O128'
_cell_volume   9929.22525933
_cell_formula_units_Z   1
loop_
 _symmetry_equiv_pos_site_id
 _symmetry_equiv_pos_as_xyz
  1  'x, y, z'
loop_
 _atom_site_type_symbol
 _atom_site_label
 _atom_site_symmetry_multiplicity
 _atom_site_fract_x
 _atom_site_fract_y
 _atom_site_fract_z
 _atom_site_occupancy
 _atom_site_charge
Al  Al1  1  0.26072000  0.19852000  0.31923000  1.0 1.595437122
Al  Al2  1  0.73928000  0.80148000  0.31923000  1.0 1.595437122
Al  Al3  1  0.73928000  0.19852000  0.68077000  1.0 1.595437122
Al  Al4  1  0.26072000  0.80148000  0.68077000  1.0 1.595437122
Al  Al5  1  0.31923000  0.26072000  0.19852000  1.0 1.595437122
Al  Al6  1  0.31923000  0.73928000  0.80148000  1.0 1.595437122
Al  Al7  1  0.68077000  0.73928000  0.19852000  1.0 1.595437122
Al  Al8  1  0.68077000  0.26072000  0.80148000  1.0 1.595437122
Al  Al9  1  0.19852000  0.31923000  0.26072000  1.0 1.595437122
Al  Al10  1  0.80148000  0.31923000  0.73928000  1.0 1.595437122
Al  Al11  1  0.19852000  0.68077000  0.73928000  1.0 1.595437122
Al  Al12  1  0.80148000  0.68077000  0.26072000  1.0 1.595437122
Al  Al13  1  0.69852000  0.76072000  0.81923000  1.0 1.5939854388
Al  Al14  1  0.30148000  0.23928000  0.81923000  1.0 1.5939854388
Al  Al15  1  0.69852000  0.23928000  0.18077000  1.0 1.5939854388
Al  Al16  1  0.30148000  0.76072000  0.18077000  1.0 1.5939854388
Al  Al17  1  0.76072000  0.81923000  0.69852000  1.0 1.5939854388
Al  Al18  1  0.23928000  0.81923000  0.30148000  1.0 1.5939854388
Al  Al19  1  0.23928000  0.18077000  0.69852000  1.0 1.595437122
Al  Al20  1  0.76072000  0.18077000  0.30148000  1.0 1.5939854388
Al  Al21  1  0.81923000  0.69852000  0.76072000  1.0 1.5939854388
Al  Al22  1  0.81923000  0.30148000  0.23928000  1.0 1.5939854388
Al  Al23  1  0.18077000  0.69852000  0.23928000  1.0 1.5939854388
Al  Al24  1  0.18077000  0.30148000  0.76072000  1.0 1.5939854388
H  H1  1  0.50890000  0.23010000  0.25160000  1.0 0.114568983
H  H2  1  0.60960000  0.18870000  0.40500000  1.0 0.1162594768
H  H3  1  0.42190000  0.20030000  0.41550000  1.0 0.1162594768
H  H4  1  0.28720000  0.12720000  0.41390000  1.0 0.4074650421
H  H5  1  0.49110000  0.76990000  0.25160000  1.0 0.1162594768
H  H6  1  0.39040000  0.81130000  0.40500000  1.0 0.1162594768
H  H7  1  0.57810000  0.79970000  0.41550000  1.0 0.1162594768
H  H8  1  0.71280000  0.87280000  0.41390000  1.0 0.4074650421
H  H9  1  0.49110000  0.23010000  0.74840000  1.0 0.114568983
H  H10  1  0.39040000  0.18870000  0.59500000  1.0 0.1162594768
H  H11  1  0.57810000  0.20030000  0.58450000  1.0 0.1162594768
H  H12  1  0.71280000  0.12720000  0.58610000  1.0 0.4074650421
H  H13  1  0.50890000  0.76990000  0.74840000  1.0 0.1162594768
H  H14  1  0.60960000  0.81130000  0.59500000  1.0 0.1162594768
H  H15  1  0.42190000  0.79970000  0.58450000  1.0 0.1162594768
H  H16  1  0.28720000  0.87280000  0.58610000  1.0 0.4074650421
H  H17  1  0.25160000  0.50890000  0.23010000  1.0 0.114568983
H  H18  1  0.40500000  0.60960000  0.18870000  1.0 0.1162594768
H  H19  1  0.41550000  0.42190000  0.20030000  1.0 0.1162594768
H  H20  1  0.41390000  0.28720000  0.12720000  1.0 0.4074650421
H  H21  1  0.25160000  0.49110000  0.76990000  1.0 0.1162594768
H  H22  1  0.40500000  0.39040000  0.81130000  1.0 0.1162594768
H  H23  1  0.41550000  0.57810000  0.79970000  1.0 0.1162594768
H  H24  1  0.41390000  0.71280000  0.87280000  1.0 0.4074650421
H  H25  1  0.74840000  0.49110000  0.23010000  1.0 0.1162594768
H  H26  1  0.59500000  0.39040000  0.18870000  1.0 0.1162594768
H  H27  1  0.58450000  0.57810000  0.20030000  1.0 0.1162594768
H  H28  1  0.58610000  0.71280000  0.12720000  1.0 0.4074650421
H  H29  1  0.74840000  0.50890000  0.76990000  1.0 0.1162594768
H  H30  1  0.59500000  0.60960000  0.81130000  1.0 0.1162594768
H  H31  1  0.58450000  0.42190000  0.79970000  1.0 0.1162594768
H  H32  1  0.58610000  0.28720000  0.87280000  1.0 0.4074650421
H  H33  1  0.23010000  0.25160000  0.50890000  1.0 0.114568983
H  H34  1  0.18870000  0.40500000  0.60960000  1.0 0.1162594768
H  H35  1  0.20030000  0.41550000  0.42190000  1.0 0.1162594768
H  H36  1  0.12720000  0.41390000  0.28720000  1.0 0.4074650421
H  H37  1  0.76990000  0.25160000  0.49110000  1.0 0.114568983
H  H38  1  0.81130000  0.40500000  0.39040000  1.0 0.1162594768
H  H39  1  0.79970000  0.41550000  0.57810000  1.0 0.1162594768
H  H40  1  0.87280000  0.41390000  0.71280000  1.0 0.4074650421
H  H41  1  0.23010000  0.74840000  0.49110000  1.0 0.1162594768
H  H42  1  0.18870000  0.59500000  0.39040000  1.0 0.1162594768
H  H43  1  0.20030000  0.58450000  0.57810000  1.0 0.1162594768
H  H44  1  0.12720000  0.58610000  0.71280000  1.0 0.4074650421
H  H45  1  0.76990000  0.74840000  0.50890000  1.0 0.1162594768
H  H46  1  0.81130000  0.59500000  0.60960000  1.0 0.1162594768
H  H47  1  0.79970000  0.58450000  0.42190000  1.0 0.1162594768
H  H48  1  0.87280000  0.58610000  0.28720000  1.0 0.4074650421
H  H49  1  0.73010000  0.00890000  0.75160000  1.0 0.114568983
H  H50  1  0.68870000  0.10960000  0.90500000  1.0 0.1162594768
H  H51  1  0.70030000  0.92190000  0.91550000  1.0 0.1162594768
H  H52  1  0.62720000  0.78720000  0.91390000  1.0 0.4074650421
H  H53  1  0.26990000  0.99110000  0.75160000  1.0 0.114568983
H  H54  1  0.31130000  0.89040000  0.90500000  1.0 0.1162594768
H  H55  1  0.29970000  0.07810000  0.91550000  1.0 0.1162594768
H  H56  1  0.37280000  0.21280000  0.91390000  1.0 0.4074650421
H  H57  1  0.73010000  0.99110000  0.24840000  1.0 0.114568983
H  H58  1  0.68870000  0.89040000  0.09500000  1.0 0.1162594768
H  H59  1  0.70030000  0.07810000  0.08450000  1.0 0.1162594768
H  H60  1  0.62720000  0.21280000  0.08610000  1.0 0.4074650421
H  H61  1  0.26990000  0.00890000  0.24840000  1.0 0.114568983
H  H62  1  0.31130000  0.10960000  0.09500000  1.0 0.1162594768
H  H63  1  0.29970000  0.92190000  0.08450000  1.0 0.1162594768
H  H64  1  0.37280000  0.78720000  0.08610000  1.0 0.4074650421
H  H65  1  0.00890000  0.75160000  0.73010000  1.0 0.114568983
H  H66  1  0.10960000  0.90500000  0.68870000  1.0 0.1162594768
H  H67  1  0.92190000  0.91550000  0.70030000  1.0 0.1162594768
H  H68  1  0.78720000  0.91390000  0.62720000  1.0 0.4074650421
H  H69  1  0.99110000  0.75160000  0.26990000  1.0 0.114568983
H  H70  1  0.89040000  0.90500000  0.31130000  1.0 0.1162594768
H  H71  1  0.07810000  0.91550000  0.29970000  1.0 0.1162594768
H  H72  1  0.21280000  0.91390000  0.37280000  1.0 0.4074650421
H  H73  1  0.99110000  0.24840000  0.73010000  1.0 0.1162594768
H  H74  1  0.89040000  0.09500000  0.68870000  1.0 0.1162594768
H  H75  1  0.07810000  0.08450000  0.70030000  1.0 0.1162594768
H  H76  1  0.21280000  0.08610000  0.62720000  1.0 0.4074650421
H  H77  1  0.00890000  0.24840000  0.26990000  1.0 0.114568983
H  H78  1  0.10960000  0.09500000  0.31130000  1.0 0.1162594768
H  H79  1  0.92190000  0.08450000  0.29970000  1.0 0.1162594768
H  H80  1  0.78720000  0.08610000  0.37280000  1.0 0.4074650421
H  H81  1  0.75160000  0.73010000  0.00890000  1.0 0.114568983
H  H82  1  0.90500000  0.68870000  0.10960000  1.0 0.1162594768
H  H83  1  0.91550000  0.70030000  0.92190000  1.0 0.1162594768
H  H84  1  0.91390000  0.62720000  0.78720000  1.0 0.4074650421
H  H85  1  0.75160000  0.26990000  0.99110000  1.0 0.114568983
H  H86  1  0.90500000  0.31130000  0.89040000  1.0 0.1162594768
H  H87  1  0.91550000  0.29970000  0.07810000  1.0 0.1162594768
H  H88  1  0.91390000  0.37280000  0.21280000  1.0 0.4074650421
H  H89  1  0.24840000  0.73010000  0.99110000  1.0 0.1162594768
H  H90  1  0.09500000  0.68870000  0.89040000  1.0 0.1162594768
H  H91  1  0.08450000  0.70030000  0.07810000  1.0 0.1162594768
H  H92  1  0.08610000  0.62720000  0.21280000  1.0 0.4074650421
H  H93  1  0.24840000  0.26990000  0.00890000  1.0 0.114568983
H  H94  1  0.09500000  0.31130000  0.10960000  1.0 0.1162594768
H  H95  1  0.08450000  0.29970000  0.92190000  1.0 0.1162594768
H  H96  1  0.08610000  0.37280000  0.78720000  1.0 0.4074650421
H  H97  1  0.23700000  0.10080000  0.38100000  0.67 0.4074650421
H  H98  1  0.76300000  0.89920000  0.38100000  0.67 0.4074650421
H  H99  1  0.76300000  0.10080000  0.61900000  0.67 0.4074650421
H  H100  1  0.23700000  0.89920000  0.61900000  0.67 0.4074650421
H  H101  1  0.38100000  0.23700000  0.10080000  0.67 0.4074650421
H  H102  1  0.38100000  0.76300000  0.89920000  0.67 0.4074650421
H  H103  1  0.61900000  0.76300000  0.10080000  0.67 0.4074650421
H  H104  1  0.61900000  0.23700000  0.89920000  0.67 0.4074650421
H  H105  1  0.10080000  0.38100000  0.23700000  0.67 0.4074650421
H  H106  1  0.89920000  0.38100000  0.76300000  0.67 0.4074650421
H  H107  1  0.10080000  0.61900000  0.76300000  0.67 0.4074650421
H  H108  1  0.89920000  0.61900000  0.23700000  0.67 0.4074650421
H  H109  1  0.60080000  0.73700000  0.88100000  0.67 0.4074650421
H  H110  1  0.39920000  0.26300000  0.88100000  0.67 0.4074650421
H  H111  1  0.60080000  0.26300000  0.11900000  0.67 0.4074650421
H  H112  1  0.39920000  0.73700000  0.11900000  0.67 0.4074650421
H  H113  1  0.73700000  0.88100000  0.60080000  0.67 0.4074650421
H  H114  1  0.26300000  0.88100000  0.39920000  0.67 0.4074650421
H  H115  1  0.26300000  0.11900000  0.60080000  0.67 0.4074650421
H  H116  1  0.73700000  0.11900000  0.39920000  0.67 0.4074650421
H  H117  1  0.88100000  0.60080000  0.73700000  0.67 0.4074650421
H  H118  1  0.88100000  0.39920000  0.26300000  0.67 0.4074650421
H  H119  1  0.11900000  0.60080000  0.26300000  0.67 0.4074650421
H  H120  1  0.11900000  0.39920000  0.73700000  0.67 0.4074650421
C  C1  1  0.45670000  0.21435000  0.33007000  1.0 -0.01914736
C  C2  1  0.51089000  0.21889000  0.29435000  1.0 -0.1372861141
C  C3  1  0.56837000  0.20653000  0.32299000  1.0 -0.0312514428
C  C4  1  0.57052000  0.19520000  0.38539000  1.0 -0.1591025301
C  C5  1  0.51682000  0.19300000  0.42029000  1.0 0.14616298
C  C6  1  0.45909000  0.20230000  0.39172000  1.0 -0.1591025301
C  C7  1  0.39346000  0.22341000  0.30089000  1.0 0.6252276793
C  C8  1  0.62813000  0.20719000  0.28809000  1.0 0.6187919508
C  C9  1  0.54330000  0.78565000  0.33007000  1.0 -0.01914736
C  C10  1  0.48911000  0.78111000  0.29435000  1.0 -0.1372861141
C  C11  1  0.43163000  0.79347000  0.32299000  1.0 -0.0312514428
C  C12  1  0.42948000  0.80480000  0.38539000  1.0 -0.1591025301
C  C13  1  0.48318000  0.80700000  0.42029000  1.0 0.14616298
C  C14  1  0.54091000  0.79770000  0.39172000  1.0 -0.1591025301
C  C15  1  0.60654000  0.77659000  0.30089000  1.0 0.6252276793
C  C16  1  0.37187000  0.79281000  0.28809000  1.0 0.6187919508
C  C17  1  0.54330000  0.21435000  0.66993000  1.0 -0.01914736
C  C18  1  0.48911000  0.21889000  0.70565000  1.0 -0.1372861141
C  C19  1  0.43163000  0.20653000  0.67701000  1.0 -0.0312514428
C  C20  1  0.42948000  0.19520000  0.61461000  1.0 -0.1591025301
C  C21  1  0.48318000  0.19300000  0.57971000  1.0 0.14616298
C  C22  1  0.54091000  0.20230000  0.60828000  1.0 -0.1591025301
C  C23  1  0.60654000  0.22341000  0.69911000  1.0 0.6252276793
C  C24  1  0.37187000  0.20719000  0.71191000  1.0 0.6187919508
C  C25  1  0.45670000  0.78565000  0.66993000  1.0 -0.01914736
C  C26  1  0.51089000  0.78111000  0.70565000  1.0 -0.1372861141
C  C27  1  0.56837000  0.79347000  0.67701000  1.0 -0.0312514428
C  C28  1  0.57052000  0.80480000  0.61461000  1.0 -0.1591025301
C  C29  1  0.51682000  0.80700000  0.57971000  1.0 0.14616298
C  C30  1  0.45909000  0.79770000  0.60828000  1.0 -0.1591025301
C  C31  1  0.39346000  0.77659000  0.69911000  1.0 0.6252276793
C  C32  1  0.62813000  0.79281000  0.71191000  1.0 0.6187919508
C  C33  1  0.33007000  0.45670000  0.21435000  1.0 -0.01914736
C  C34  1  0.29435000  0.51089000  0.21889000  1.0 -0.1372861141
C  C35  1  0.32299000  0.56837000  0.20653000  1.0 -0.0312514428
C  C36  1  0.38539000  0.57052000  0.19520000  1.0 -0.1591025301
C  C37  1  0.42029000  0.51682000  0.19300000  1.0 0.14616298
C  C38  1  0.39172000  0.45909000  0.20230000  1.0 -0.1591025301
C  C39  1  0.30089000  0.39346000  0.22341000  1.0 0.6252276793
C  C40  1  0.28809000  0.62813000  0.20719000  1.0 0.6187919508
C  C41  1  0.33007000  0.54330000  0.78565000  1.0 -0.01914736
C  C42  1  0.29435000  0.48911000  0.78111000  1.0 -0.1372861141
C  C43  1  0.32299000  0.43163000  0.79347000  1.0 -0.0312514428
C  C44  1  0.38539000  0.42948000  0.80480000  1.0 -0.1591025301
C  C45  1  0.42029000  0.48318000  0.80700000  1.0 0.14616298
C  C46  1  0.39172000  0.54091000  0.79770000  1.0 -0.1591025301
C  C47  1  0.30089000  0.60654000  0.77659000  1.0 0.6252276793
C  C48  1  0.28809000  0.37187000  0.79281000  1.0 0.6187919508
C  C49  1  0.66993000  0.54330000  0.21435000  1.0 -0.01914736
C  C50  1  0.70565000  0.48911000  0.21889000  1.0 -0.1372861141
C  C51  1  0.67701000  0.43163000  0.20653000  1.0 -0.0312514428
C  C52  1  0.61461000  0.42948000  0.19520000  1.0 -0.1591025301
C  C53  1  0.57971000  0.48318000  0.19300000  1.0 0.14616298
C  C54  1  0.60828000  0.54091000  0.20230000  1.0 -0.1591025301
C  C55  1  0.69911000  0.60654000  0.22341000  1.0 0.6252276793
C  C56  1  0.71191000  0.37187000  0.20719000  1.0 0.6187919508
C  C57  1  0.66993000  0.45670000  0.78565000  1.0 -0.01914736
C  C58  1  0.70565000  0.51089000  0.78111000  1.0 -0.1372861141
C  C59  1  0.67701000  0.56837000  0.79347000  1.0 -0.0312514428
C  C60  1  0.61461000  0.57052000  0.80480000  1.0 -0.1591025301
C  C61  1  0.57971000  0.51682000  0.80700000  1.0 0.14616298
C  C62  1  0.60828000  0.45909000  0.79770000  1.0 -0.1591025301
C  C63  1  0.69911000  0.39346000  0.77659000  1.0 0.6252276793
C  C64  1  0.71191000  0.62813000  0.79281000  1.0 0.6187919508
C  C65  1  0.21435000  0.33007000  0.45670000  1.0 -0.01914736
C  C66  1  0.21889000  0.29435000  0.51089000  1.0 -0.1372861141
C  C67  1  0.20653000  0.32299000  0.56837000  1.0 -0.0312514428
C  C68  1  0.19520000  0.38539000  0.57052000  1.0 -0.1591025301
C  C69  1  0.19300000  0.42029000  0.51682000  1.0 0.14616298
C  C70  1  0.20230000  0.39172000  0.45909000  1.0 -0.1591025301
C  C71  1  0.22341000  0.30089000  0.39346000  1.0 0.6252276793
C  C72  1  0.20719000  0.28809000  0.62813000  1.0 0.6187919508
C  C73  1  0.78565000  0.33007000  0.54330000  1.0 -0.01914736
C  C74  1  0.78111000  0.29435000  0.48911000  1.0 -0.1372861141
C  C75  1  0.79347000  0.32299000  0.43163000  1.0 -0.0312514428
C  C76  1  0.80480000  0.38539000  0.42948000  1.0 -0.1591025301
C  C77  1  0.80700000  0.42029000  0.48318000  1.0 0.14616298
C  C78  1  0.79770000  0.39172000  0.54091000  1.0 -0.1591025301
C  C79  1  0.77659000  0.30089000  0.60654000  1.0 0.6252276793
C  C80  1  0.79281000  0.28809000  0.37187000  1.0 0.6187919508
C  C81  1  0.21435000  0.66993000  0.54330000  1.0 -0.01914736
C  C82  1  0.21889000  0.70565000  0.48911000  1.0 -0.1372861141
C  C83  1  0.20653000  0.67701000  0.43163000  1.0 -0.0312514428
C  C84  1  0.19520000  0.61461000  0.42948000  1.0 -0.1591025301
C  C85  1  0.19300000  0.57971000  0.48318000  1.0 0.14616298
C  C86  1  0.20230000  0.60828000  0.54091000  1.0 -0.1591025301
C  C87  1  0.22341000  0.69911000  0.60654000  1.0 0.6252276793
C  C88  1  0.20719000  0.71191000  0.37187000  1.0 0.6187919508
C  C89  1  0.78565000  0.66993000  0.45670000  1.0 -0.01914736
C  C90  1  0.78111000  0.70565000  0.51089000  1.0 -0.1372861141
C  C91  1  0.79347000  0.67701000  0.56837000  1.0 -0.0312514428
C  C92  1  0.80480000  0.61461000  0.57052000  1.0 -0.1591025301
C  C93  1  0.80700000  0.57971000  0.51682000  1.0 0.14616298
C  C94  1  0.79770000  0.60828000  0.45909000  1.0 -0.1591025301
C  C95  1  0.77659000  0.69911000  0.39346000  1.0 0.6252276793
C  C96  1  0.79281000  0.71191000  0.62813000  1.0 0.6187919508
C  C97  1  0.71435000  0.95670000  0.83007000  1.0 -0.01914736
C  C98  1  0.71889000  0.01089000  0.79435000  1.0 -0.1372861141
C  C99  1  0.70653000  0.06837000  0.82299000  1.0 -0.0312514428
C  C100  1  0.69520000  0.07052000  0.88539000  1.0 -0.1591025301
C  C101  1  0.69300000  0.01682000  0.92029000  1.0 0.14616298
C  C102  1  0.70230000  0.95909000  0.89172000  1.0 -0.1591025301
C  C103  1  0.72341000  0.89346000  0.80089000  1.0 0.6187919508
C  C104  1  0.70719000  0.12813000  0.78809000  1.0 0.6187919508
C  C105  1  0.28565000  0.04330000  0.83007000  1.0 -0.01914736
C  C106  1  0.28111000  0.98911000  0.79435000  1.0 -0.1372861141
C  C107  1  0.29347000  0.93163000  0.82299000  1.0 -0.0312514428
C  C108  1  0.30480000  0.92948000  0.88539000  1.0 -0.1591025301
C  C109  1  0.30700000  0.98318000  0.92029000  1.0 0.14616298
C  C110  1  0.29770000  0.04091000  0.89172000  1.0 -0.1591025301
C  C111  1  0.27659000  0.10654000  0.80089000  1.0 0.6252276793
C  C112  1  0.29281000  0.87187000  0.78809000  1.0 0.6187919508
C  C113  1  0.71435000  0.04330000  0.16993000  1.0 -0.01914736
C  C114  1  0.71889000  0.98911000  0.20565000  1.0 -0.1372861141
C  C115  1  0.70653000  0.93163000  0.17701000  1.0 -0.0312514428
C  C116  1  0.69520000  0.92948000  0.11461000  1.0 -0.1591025301
C  C117  1  0.69300000  0.98318000  0.07971000  1.0 0.14616298
C  C118  1  0.70230000  0.04091000  0.10828000  1.0 -0.1591025301
C  C119  1  0.72341000  0.10654000  0.19911000  1.0 0.6187919508
C  C120  1  0.70719000  0.87187000  0.21191000  1.0 0.6187919508
C  C121  1  0.28565000  0.95670000  0.16993000  1.0 -0.01914736
C  C122  1  0.28111000  0.01089000  0.20565000  1.0 -0.1372861141
C  C123  1  0.29347000  0.06837000  0.17701000  1.0 -0.0312514428
C  C124  1  0.30480000  0.07052000  0.11461000  1.0 -0.1591025301
C  C125  1  0.30700000  0.01682000  0.07971000  1.0 0.14616298
C  C126  1  0.29770000  0.95909000  0.10828000  1.0 -0.1591025301
C  C127  1  0.27659000  0.89346000  0.19911000  1.0 0.6252276793
C  C128  1  0.29281000  0.12813000  0.21191000  1.0 0.6187919508
C  C129  1  0.95670000  0.83007000  0.71435000  1.0 -0.01914736
C  C130  1  0.01089000  0.79435000  0.71889000  1.0 -0.1372861141
C  C131  1  0.06837000  0.82299000  0.70653000  1.0 -0.0312514428
C  C132  1  0.07052000  0.88539000  0.69520000  1.0 -0.1591025301
C  C133  1  0.01682000  0.92029000  0.69300000  1.0 0.14616298
C  C134  1  0.95909000  0.89172000  0.70230000  1.0 -0.1591025301
C  C135  1  0.89346000  0.80089000  0.72341000  1.0 0.6187919508
C  C136  1  0.12813000  0.78809000  0.70719000  1.0 0.6187919508
C  C137  1  0.04330000  0.83007000  0.28565000  1.0 -0.01914736
C  C138  1  0.98911000  0.79435000  0.28111000  1.0 -0.1372861141
C  C139  1  0.93163000  0.82299000  0.29347000  1.0 -0.0312514428
C  C140  1  0.92948000  0.88539000  0.30480000  1.0 -0.1591025301
C  C141  1  0.98318000  0.92029000  0.30700000  1.0 0.14616298
C  C142  1  0.04091000  0.89172000  0.29770000  1.0 -0.1591025301
C  C143  1  0.10654000  0.80089000  0.27659000  1.0 0.6252276793
C  C144  1  0.87187000  0.78809000  0.29281000  1.0 0.6187919508
C  C145  1  0.04330000  0.16993000  0.71435000  1.0 -0.01914736
C  C146  1  0.98911000  0.20565000  0.71889000  1.0 -0.1372861141
C  C147  1  0.93163000  0.17701000  0.70653000  1.0 -0.0312514428
C  C148  1  0.92948000  0.11461000  0.69520000  1.0 -0.1591025301
C  C149  1  0.98318000  0.07971000  0.69300000  1.0 0.14616298
C  C150  1  0.04091000  0.10828000  0.70230000  1.0 -0.1591025301
C  C151  1  0.10654000  0.19911000  0.72341000  1.0 0.6252276793
C  C152  1  0.87187000  0.21191000  0.70719000  1.0 0.6187919508
C  C153  1  0.95670000  0.16993000  0.28565000  1.0 -0.01914736
C  C154  1  0.01089000  0.20565000  0.28111000  1.0 -0.1372861141
C  C155  1  0.06837000  0.17701000  0.29347000  1.0 -0.0312514428
C  C156  1  0.07052000  0.11461000  0.30480000  1.0 -0.1591025301
C  C157  1  0.01682000  0.07971000  0.30700000  1.0 0.14616298
C  C158  1  0.95909000  0.10828000  0.29770000  1.0 -0.1591025301
C  C159  1  0.89346000  0.19911000  0.27659000  1.0 0.6252276793
C  C160  1  0.12813000  0.21191000  0.29281000  1.0 0.6187919508
C  C161  1  0.83007000  0.71435000  0.95670000  1.0 -0.01914736
C  C162  1  0.79435000  0.71889000  0.01089000  1.0 -0.1372861141
C  C163  1  0.82299000  0.70653000  0.06837000  1.0 -0.0312514428
C  C164  1  0.88539000  0.69520000  0.07052000  1.0 -0.1591025301
C  C165  1  0.92029000  0.69300000  0.01682000  1.0 0.14616298
C  C166  1  0.89172000  0.70230000  0.95909000  1.0 -0.1591025301
C  C167  1  0.80089000  0.72341000  0.89346000  1.0 0.6187919508
C  C168  1  0.78809000  0.70719000  0.12813000  1.0 0.6187919508
C  C169  1  0.83007000  0.28565000  0.04330000  1.0 -0.01914736
C  C170  1  0.79435000  0.28111000  0.98911000  1.0 -0.1372861141
C  C171  1  0.82299000  0.29347000  0.93163000  1.0 -0.0312514428
C  C172  1  0.88539000  0.30480000  0.92948000  1.0 -0.1591025301
C  C173  1  0.92029000  0.30700000  0.98318000  1.0 0.14616298
C  C174  1  0.89172000  0.29770000  0.04091000  1.0 -0.1591025301
C  C175  1  0.80089000  0.27659000  0.10654000  1.0 0.6252276793
C  C176  1  0.78809000  0.29281000  0.87187000  1.0 0.6187919508
C  C177  1  0.16993000  0.71435000  0.04330000  1.0 -0.01914736
C  C178  1  0.20565000  0.71889000  0.98911000  1.0 -0.1372861141
C  C179  1  0.17701000  0.70653000  0.93163000  1.0 -0.0312514428
C  C180  1  0.11461000  0.69520000  0.92948000  1.0 -0.1591025301
C  C181  1  0.07971000  0.69300000  0.98318000  1.0 0.14616298
C  C182  1  0.10828000  0.70230000  0.04091000  1.0 -0.1591025301
C  C183  1  0.19911000  0.72341000  0.10654000  1.0 0.6252276793
C  C184  1  0.21191000  0.70719000  0.87187000  1.0 0.6187919508
C  C185  1  0.16993000  0.28565000  0.95670000  1.0 -0.01914736
C  C186  1  0.20565000  0.28111000  0.01089000  1.0 -0.1372861141
C  C187  1  0.17701000  0.29347000  0.06837000  1.0 -0.0312514428
C  C188  1  0.11461000  0.30480000  0.07052000  1.0 -0.1591025301
C  C189  1  0.07971000  0.30700000  0.01682000  1.0 0.14616298
C  C190  1  0.10828000  0.29770000  0.95909000  1.0 -0.1591025301
C  C191  1  0.19911000  0.27659000  0.89346000  1.0 0.6252276793
C  C192  1  0.21191000  0.29281000  0.12813000  1.0 0.6187919508
N  N1  1  0.52400000  0.19120000  0.48586000  1.0 -0.1277565812
N  N2  1  0.47600000  0.80880000  0.48586000  1.0 -0.1277565812
N  N3  1  0.47600000  0.19120000  0.51414000  1.0 -0.1277565812
N  N4  1  0.52400000  0.80880000  0.51414000  1.0 -0.1277565812
N  N5  1  0.48586000  0.52400000  0.19120000  1.0 -0.1277565812
N  N6  1  0.48586000  0.47600000  0.80880000  1.0 -0.1277565812
N  N7  1  0.51414000  0.47600000  0.19120000  1.0 -0.1277565812
N  N8  1  0.51414000  0.52400000  0.80880000  1.0 -0.1277565812
N  N9  1  0.19120000  0.48586000  0.52400000  1.0 -0.1277565812
N  N10  1  0.80880000  0.48586000  0.47600000  1.0 -0.1277565812
N  N11  1  0.19120000  0.51414000  0.47600000  1.0 -0.1277565812
N  N12  1  0.80880000  0.51414000  0.52400000  1.0 -0.1277565812
N  N13  1  0.69120000  0.02400000  0.98586000  1.0 -0.1277565812
N  N14  1  0.30880000  0.97600000  0.98586000  1.0 -0.1277565812
N  N15  1  0.69120000  0.97600000  0.01414000  1.0 -0.1277565812
N  N16  1  0.30880000  0.02400000  0.01414000  1.0 -0.1277565812
N  N17  1  0.02400000  0.98586000  0.69120000  1.0 -0.1277565812
N  N18  1  0.97600000  0.98586000  0.30880000  1.0 -0.1277565812
N  N19  1  0.97600000  0.01414000  0.69120000  1.0 -0.1277565812
N  N20  1  0.02400000  0.01414000  0.30880000  1.0 -0.1277565812
N  N21  1  0.98586000  0.69120000  0.02400000  1.0 -0.1277565812
N  N22  1  0.98586000  0.30880000  0.97600000  1.0 -0.1277565812
N  N23  1  0.01414000  0.69120000  0.97600000  1.0 -0.1277565812
N  N24  1  0.01414000  0.30880000  0.02400000  1.0 -0.1277565812
O  O1  1  0.34830000  0.19978000  0.33058000  1.0 -0.6106702169
O  O2  1  0.38945000  0.25297000  0.25128000  1.0 -0.5877447344
O  O3  1  0.67323000  0.18120000  0.31413000  1.0 -0.5995109856
O  O4  1  0.62961000  0.23320000  0.23604000  1.0 -0.5877447344
O  O5  1  0.26163000  0.13362000  0.38139000  1.0 -0.7237410848
O  O6  1  0.65170000  0.80022000  0.33058000  1.0 -0.6106702169
O  O7  1  0.61055000  0.74703000  0.25128000  1.0 -0.5877447344
O  O8  1  0.32677000  0.81880000  0.31413000  1.0 -0.5995109856
O  O9  1  0.37039000  0.76680000  0.23604000  1.0 -0.5877447344
O  O10  1  0.73837000  0.86638000  0.38139000  1.0 -0.7237410848
O  O11  1  0.65170000  0.19978000  0.66942000  1.0 -0.6106702169
O  O12  1  0.61055000  0.25297000  0.74872000  1.0 -0.5877447344
O  O13  1  0.32677000  0.18120000  0.68587000  1.0 -0.5995109856
O  O14  1  0.37039000  0.23320000  0.76396000  1.0 -0.5877447344
O  O15  1  0.73837000  0.13362000  0.61861000  1.0 -0.7237410848
O  O16  1  0.34830000  0.80022000  0.66942000  1.0 -0.6106702169
O  O17  1  0.38945000  0.74703000  0.74872000  1.0 -0.5877447344
O  O18  1  0.67323000  0.81880000  0.68587000  1.0 -0.5995109856
O  O19  1  0.62961000  0.76680000  0.76396000  1.0 -0.5877447344
O  O20  1  0.26163000  0.86638000  0.61861000  1.0 -0.7237410848
O  O21  1  0.33058000  0.34830000  0.19978000  1.0 -0.6106702169
O  O22  1  0.25128000  0.38945000  0.25297000  1.0 -0.5877447344
O  O23  1  0.31413000  0.67323000  0.18120000  1.0 -0.5995109856
O  O24  1  0.23604000  0.62961000  0.23320000  1.0 -0.5877447344
O  O25  1  0.38139000  0.26163000  0.13362000  1.0 -0.7237410848
O  O26  1  0.33058000  0.65170000  0.80022000  1.0 -0.6106702169
O  O27  1  0.25128000  0.61055000  0.74703000  1.0 -0.5877447344
O  O28  1  0.31413000  0.32677000  0.81880000  1.0 -0.5995109856
O  O29  1  0.23604000  0.37039000  0.76680000  1.0 -0.5877447344
O  O30  1  0.38139000  0.73837000  0.86638000  1.0 -0.7237410848
O  O31  1  0.66942000  0.65170000  0.19978000  1.0 -0.6106702169
O  O32  1  0.74872000  0.61055000  0.25297000  1.0 -0.5877447344
O  O33  1  0.68587000  0.32677000  0.18120000  1.0 -0.5995109856
O  O34  1  0.76396000  0.37039000  0.23320000  1.0 -0.5877447344
O  O35  1  0.61861000  0.73837000  0.13362000  1.0 -0.7237410848
O  O36  1  0.66942000  0.34830000  0.80022000  1.0 -0.6106702169
O  O37  1  0.74872000  0.38945000  0.74703000  1.0 -0.5877447344
O  O38  1  0.68587000  0.67323000  0.81880000  1.0 -0.5995109856
O  O39  1  0.76396000  0.62961000  0.76680000  1.0 -0.5877447344
O  O40  1  0.61861000  0.26163000  0.86638000  1.0 -0.7237410848
O  O41  1  0.19978000  0.33058000  0.34830000  1.0 -0.6106702169
O  O42  1  0.25297000  0.25128000  0.38945000  1.0 -0.5877447344
O  O43  1  0.18120000  0.31413000  0.67323000  1.0 -0.5995109856
O  O44  1  0.23320000  0.23604000  0.62961000  1.0 -0.5877447344
O  O45  1  0.13362000  0.38139000  0.26163000  1.0 -0.7237410848
O  O46  1  0.80022000  0.33058000  0.65170000  1.0 -0.6106702169
O  O47  1  0.74703000  0.25128000  0.61055000  1.0 -0.5877447344
O  O48  1  0.81880000  0.31413000  0.32677000  1.0 -0.5995109856
O  O49  1  0.76680000  0.23604000  0.37039000  1.0 -0.5877447344
O  O50  1  0.86638000  0.38139000  0.73837000  1.0 -0.7237410848
O  O51  1  0.19978000  0.66942000  0.65170000  1.0 -0.6106702169
O  O52  1  0.25297000  0.74872000  0.61055000  1.0 -0.5877447344
O  O53  1  0.18120000  0.68587000  0.32677000  1.0 -0.5995109856
O  O54  1  0.23320000  0.76396000  0.37039000  1.0 -0.5877447344
O  O55  1  0.13362000  0.61861000  0.73837000  1.0 -0.7237410848
O  O56  1  0.80022000  0.66942000  0.34830000  1.0 -0.6106702169
O  O57  1  0.74703000  0.74872000  0.38945000  1.0 -0.5877447344
O  O58  1  0.81880000  0.68587000  0.67323000  1.0 -0.5995109856
O  O59  1  0.76680000  0.76396000  0.62961000  1.0 -0.5877447344
O  O60  1  0.86638000  0.61861000  0.26163000  1.0 -0.7237410848
O  O61  1  0.69978000  0.84830000  0.83058000  1.0 -0.6106702169
O  O62  1  0.75297000  0.88945000  0.75128000  1.0 -0.5877447344
O  O63  1  0.68120000  0.17323000  0.81413000  1.0 -0.5995109856
O  O64  1  0.73320000  0.12961000  0.73604000  1.0 -0.5877447344
O  O65  1  0.63362000  0.76163000  0.88139000  1.0 -0.7237410848
O  O66  1  0.30022000  0.15170000  0.83058000  1.0 -0.6106702169
O  O67  1  0.24703000  0.11055000  0.75128000  1.0 -0.5877447344
O  O68  1  0.31880000  0.82677000  0.81413000  1.0 -0.5995109856
O  O69  1  0.26680000  0.87039000  0.73604000  1.0 -0.5877447344
O  O70  1  0.36638000  0.23837000  0.88139000  1.0 -0.7237410848
O  O71  1  0.69978000  0.15170000  0.16942000  1.0 -0.6106702169
O  O72  1  0.75297000  0.11055000  0.24872000  1.0 -0.5877447344
O  O73  1  0.68120000  0.82677000  0.18587000  1.0 -0.5995109856
O  O74  1  0.73320000  0.87039000  0.26396000  1.0 -0.5877447344
O  O75  1  0.63362000  0.23837000  0.11861000  1.0 -0.7237410848
O  O76  1  0.30022000  0.84830000  0.16942000  1.0 -0.6106702169
O  O77  1  0.24703000  0.88945000  0.24872000  1.0 -0.5877447344
O  O78  1  0.31880000  0.17323000  0.18587000  1.0 -0.5995109856
O  O79  1  0.26680000  0.12961000  0.26396000  1.0 -0.5877447344
O  O80  1  0.36638000  0.76163000  0.11861000  1.0 -0.7237410848
O  O81  1  0.84830000  0.83058000  0.69978000  1.0 -0.6106702169
O  O82  1  0.88945000  0.75128000  0.75297000  1.0 -0.5877447344
O  O83  1  0.17323000  0.81413000  0.68120000  1.0 -0.5995109856
O  O84  1  0.12961000  0.73604000  0.73320000  1.0 -0.5877447344
O  O85  1  0.76163000  0.88139000  0.63362000  1.0 -0.7237410848
O  O86  1  0.15170000  0.83058000  0.30022000  1.0 -0.6106702169
O  O87  1  0.11055000  0.75128000  0.24703000  1.0 -0.5877447344
O  O88  1  0.82677000  0.81413000  0.31880000  1.0 -0.5995109856
O  O89  1  0.87039000  0.73604000  0.26680000  1.0 -0.5877447344
O  O90  1  0.23837000  0.88139000  0.36638000  1.0 -0.7237410848
O  O91  1  0.15170000  0.16942000  0.69978000  1.0 -0.6106702169
O  O92  1  0.11055000  0.24872000  0.75297000  1.0 -0.5877447344
O  O93  1  0.82677000  0.18587000  0.68120000  1.0 -0.5995109856
O  O94  1  0.87039000  0.26396000  0.73320000  1.0 -0.5877447344
O  O95  1  0.23837000  0.11861000  0.63362000  1.0 -0.7237410848
O  O96  1  0.84830000  0.16942000  0.30022000  1.0 -0.6106702169
O  O97  1  0.88945000  0.24872000  0.24703000  1.0 -0.5877447344
O  O98  1  0.17323000  0.18587000  0.31880000  1.0 -0.5995109856
O  O99  1  0.12961000  0.26396000  0.26680000  1.0 -0.5877447344
O  O100  1  0.76163000  0.11861000  0.36638000  1.0 -0.7237410848
O  O101  1  0.83058000  0.69978000  0.84830000  1.0 -0.6106702169
O  O102  1  0.75128000  0.75297000  0.88945000  1.0 -0.5877447344
O  O103  1  0.81413000  0.68120000  0.17323000  1.0 -0.5995109856
O  O104  1  0.73604000  0.73320000  0.12961000  1.0 -0.5877447344
O  O105  1  0.88139000  0.63362000  0.76163000  1.0 -0.7237410848
O  O106  1  0.83058000  0.30022000  0.15170000  1.0 -0.6106702169
O  O107  1  0.75128000  0.24703000  0.11055000  1.0 -0.5877447344
O  O108  1  0.81413000  0.31880000  0.82677000  1.0 -0.5995109856
O  O109  1  0.73604000  0.26680000  0.87039000  1.0 -0.5877447344
O  O110  1  0.88139000  0.36638000  0.23837000  1.0 -0.7237410848
O  O111  1  0.16942000  0.69978000  0.15170000  1.0 -0.6106702169
O  O112  1  0.24872000  0.75297000  0.11055000  1.0 -0.5877447344
O  O113  1  0.18587000  0.68120000  0.82677000  1.0 -0.5995109856
O  O114  1  0.26396000  0.73320000  0.87039000  1.0 -0.5877447344
O  O115  1  0.11861000  0.63362000  0.23837000  1.0 -0.7237410848
O  O116  1  0.16942000  0.30022000  0.84830000  1.0 -0.6106702169
O  O117  1  0.24872000  0.24703000  0.88945000  1.0 -0.5877447344
O  O118  1  0.18587000  0.31880000  0.17323000  1.0 -0.5995109856
O  O119  1  0.26396000  0.26680000  0.12961000  1.0 -0.5877447344
O  O120  1  0.11861000  0.36638000  0.76163000  1.0 -0.7237410848
O  O121  1  0.25938000  0.25938000  0.25938000  1.0 -1.2104261919
O  O122  1  0.74062000  0.74062000  0.25938000  1.0 -1.2104261919
O  O123  1  0.74062000  0.25938000  0.74062000  1.0 -1.2104261919
O  O124  1  0.25938000  0.74062000  0.74062000  1.0 -1.2104261919
O  O125  1  0.75938000  0.75938000  0.75938000  1.0 -1.2104261919
O  O126  1  0.24062000  0.24062000  0.75938000  1.0 -1.2104261919
O  O127  1  0.75938000  0.24062000  0.24062000  1.0 -1.2104261919
O  O128  1  0.24062000  0.75938000  0.24062000  1.0 -1.2104261919
