# DDEC6 charges by PACMAN v1.1 (https://github.com/mtap-research/PACMAN-charge/)
data_ja9b10501_si_018_ASR_pacman
_symmetry_space_group_name_H-M   'P 1'
_cell_length_a   19.29150000
_cell_length_b   19.29150000
_cell_length_c   36.08100000
_cell_angle_alpha   90.00000000
_cell_angle_beta   90.00000000
_cell_angle_gamma   90.00000000
_symmetry_Int_Tables_number   1
_chemical_formula_structural   Al16B4H189.84C266.08N8.16O79.84
_chemical_formula_sum   'Al16 B4 H189.84 C266.08 N8.16 O79.84'
_cell_volume   13427.97612075
_cell_formula_units_Z   1
loop_
 _symmetry_equiv_pos_site_id
 _symmetry_equiv_pos_as_xyz
  1  'x, y, z'
loop_
 _atom_site_type_symbol
 _atom_site_label
 _atom_site_symmetry_multiplicity
 _atom_site_fract_x
 _atom_site_fract_y
 _atom_site_fract_z
 _atom_site_occupancy
 _atom_site_charge
Al  Al1  1  0.37819000  0.39707000  0.08137000  1.0 1.4506979706
Al  Al2  1  0.62181000  0.60293000  0.08137000  1.0 1.4506979706
Al  Al3  1  0.10293000  0.87819000  0.58137000  1.0 1.4506979706
Al  Al4  1  0.89707000  0.12181000  0.58137000  1.0 1.4506979706
Al  Al5  1  0.12181000  0.89707000  0.41863000  1.0 1.4506979706
Al  Al6  1  0.87819000  0.10293000  0.41863000  1.0 1.4506979706
Al  Al7  1  0.39707000  0.37819000  0.91863000  1.0 1.4506979706
Al  Al8  1  0.60293000  0.62181000  0.91863000  1.0 1.4506979706
Al  Al9  1  0.33792000  0.33792000  0.00000000  1.0 1.3063032898
Al  Al10  1  0.66208000  0.66208000  0.00000000  1.0 1.3063032898
Al  Al11  1  0.16208000  0.83792000  0.50000000  1.0 1.3063032898
Al  Al12  1  0.83792000  0.16208000  0.50000000  1.0 1.3063032898
Al  Al13  1  0.50000000  0.50000000  0.11518000  1.0 1.65244886
Al  Al14  1  0.00000000  0.00000000  0.61518000  1.0 1.65244886
Al  Al15  1  0.00000000  0.00000000  0.38482000  1.0 1.65244886
Al  Al16  1  0.50000000  0.50000000  0.88482000  1.0 1.65244886
B  B1  1  0.06670000  0.62770000  0.07450000  0.15 0.2277081879
B  B2  1  0.05500000  0.59800000  0.08540000  0.15 0.1789267557
B  B3  1  0.93330000  0.37230000  0.07450000  0.15 0.2277081879
B  B4  1  0.94500000  0.40200000  0.08540000  0.15 0.1789267557
B  B5  1  0.87230000  0.56670000  0.57450000  0.15 0.2277081879
B  B6  1  0.90200000  0.55500000  0.58540000  0.15 0.1789267557
B  B7  1  0.12770000  0.43330000  0.57450000  0.15 0.2277081879
B  B8  1  0.09800000  0.44500000  0.58540000  0.15 0.1789267557
B  B9  1  0.43330000  0.12770000  0.42550000  0.15 0.2277081879
B  B10  1  0.44500000  0.09800000  0.41460000  0.15 0.1789267557
B  B11  1  0.56670000  0.87230000  0.42550000  0.15 0.2277081879
B  B12  1  0.55500000  0.90200000  0.41460000  0.15 0.1789267557
B  B13  1  0.62770000  0.06670000  0.92550000  0.15 0.2277081879
B  B14  1  0.59800000  0.05500000  0.91460000  0.15 0.1789267557
B  B15  1  0.37230000  0.93330000  0.92550000  0.15 0.2277081879
B  B16  1  0.40200000  0.94500000  0.91460000  0.15 0.1789267557
B  B17  1  0.19050000  0.71000000  0.02370000  0.2 0.7023085402
B  B18  1  0.80950000  0.29000000  0.02370000  0.2 0.7023085402
B  B19  1  0.79000000  0.69050000  0.52370000  0.2 0.7023085402
B  B20  1  0.21000000  0.30950000  0.52370000  0.2 0.7023085402
B  B21  1  0.30950000  0.21000000  0.47630000  0.2 0.7023085402
B  B22  1  0.69050000  0.79000000  0.47630000  0.2 0.7023085402
B  B23  1  0.71000000  0.19050000  0.97630000  0.2 0.7023085402
B  B24  1  0.29000000  0.80950000  0.97630000  0.2 0.7023085402
H  H1  1  0.43243000  0.50215000  0.05829000  1.0 0.4033832448
H  H2  1  0.44907000  0.36849000  0.02773000  1.0 0.4033832448
H  H3  1  0.63842000  0.34317000  0.14080000  1.0 0.1201452691
H  H4  1  0.91912000  0.99859000  0.28014000  1.0 0.1201452691
H  H5  1  0.48228000  0.21709000  0.10779000  1.0 0.1201452691
H  H6  1  0.71202000  0.86251000  0.04151000  1.0 0.1201452691
H  H7  1  0.68833000  0.75999000  0.13843000  1.0 0.1201452691
H  H8  1  0.86514000  0.00081000  0.22206000  1.0 0.1201452691
H  H9  1  0.64973000  0.04971000  0.11129000  1.0 0.1297788533
H  H10  1  0.54855000  0.12051000  0.12398000  1.0 0.1109376035
H  H11  1  0.76920000  0.95614000  0.18841000  1.0 0.1109376035
H  H12  1  0.70441000  0.24665000  0.15686000  1.0 0.1201452691
H  H13  1  0.70642000  0.11130000  0.26576000  1.0 0.1201452691
H  H14  1  0.72088000  0.96669000  0.07322000  1.0 0.1297788533
H  H15  1  0.69209000  0.86442000  0.17027000  1.0 0.1109376035
H  H16  1  0.76013000  0.10798000  0.32361000  1.0 0.1407054141
H  H17  1  0.71009000  0.15486000  0.20260000  1.0 0.1201452691
H  H18  1  0.56757000  0.49785000  0.05829000  1.0 0.4033832448
H  H19  1  0.55093000  0.63151000  0.02773000  1.0 0.4033832448
H  H20  1  0.36158000  0.65683000  0.14080000  1.0 0.1201452691
H  H21  1  0.08088000  0.00141000  0.28014000  1.0 0.1201452691
H  H22  1  0.51772000  0.78291000  0.10779000  1.0 0.1201452691
H  H23  1  0.28798000  0.13749000  0.04151000  1.0 0.1201452691
H  H24  1  0.31167000  0.24001000  0.13843000  1.0 0.1201452691
H  H25  1  0.13486000  0.99919000  0.22206000  1.0 0.1201452691
H  H26  1  0.35027000  0.95029000  0.11129000  1.0 0.1297788533
H  H27  1  0.45145000  0.87949000  0.12398000  1.0 0.1109376035
H  H28  1  0.23080000  0.04386000  0.18841000  1.0 0.1109376035
H  H29  1  0.29559000  0.75335000  0.15686000  1.0 0.1201452691
H  H30  1  0.29358000  0.88870000  0.26576000  1.0 0.1201452691
H  H31  1  0.27912000  0.03331000  0.07322000  1.0 0.1297788533
H  H32  1  0.30791000  0.13558000  0.17027000  1.0 0.1109376035
H  H33  1  0.23987000  0.89202000  0.32361000  1.0 0.1407054141
H  H34  1  0.28991000  0.84514000  0.20260000  1.0 0.1201452691
H  H35  1  0.99785000  0.93243000  0.55829000  1.0 0.4033832448
H  H36  1  0.13151000  0.94907000  0.52773000  1.0 0.4033832448
H  H37  1  0.15683000  0.13842000  0.64080000  1.0 0.1201452691
H  H38  1  0.50141000  0.41912000  0.78014000  1.0 0.1201452691
H  H39  1  0.28291000  0.98228000  0.60779000  1.0 0.1201452691
H  H40  1  0.63749000  0.21202000  0.54151000  1.0 0.1201452691
H  H41  1  0.74001000  0.18833000  0.63843000  1.0 0.1201452691
H  H42  1  0.49919000  0.36514000  0.72206000  1.0 0.1201452691
H  H43  1  0.45029000  0.14973000  0.61129000  1.0 0.1297788533
H  H44  1  0.37949000  0.04855000  0.62398000  1.0 0.1109376035
H  H45  1  0.54386000  0.26920000  0.68841000  1.0 0.1109376035
H  H46  1  0.25335000  0.20441000  0.65686000  1.0 0.1201452691
H  H47  1  0.38870000  0.20642000  0.76576000  1.0 0.1201452691
H  H48  1  0.53331000  0.22088000  0.57322000  1.0 0.1297788533
H  H49  1  0.63558000  0.19209000  0.67027000  1.0 0.1109376035
H  H50  1  0.39202000  0.26013000  0.82361000  1.0 0.1407054141
H  H51  1  0.34514000  0.21009000  0.70260000  1.0 0.1201452691
H  H52  1  0.00215000  0.06757000  0.55829000  1.0 0.4033832448
H  H53  1  0.86849000  0.05093000  0.52773000  1.0 0.4033832448
H  H54  1  0.84317000  0.86158000  0.64080000  1.0 0.1201452691
H  H55  1  0.49859000  0.58088000  0.78014000  1.0 0.1201452691
H  H56  1  0.71709000  0.01772000  0.60779000  1.0 0.1201452691
H  H57  1  0.36251000  0.78798000  0.54151000  1.0 0.1201452691
H  H58  1  0.25999000  0.81167000  0.63843000  1.0 0.1201452691
H  H59  1  0.50081000  0.63486000  0.72206000  1.0 0.1201452691
H  H60  1  0.54971000  0.85027000  0.61129000  1.0 0.1297788533
H  H61  1  0.62051000  0.95145000  0.62398000  1.0 0.1109376035
H  H62  1  0.45614000  0.73080000  0.68841000  1.0 0.1109376035
H  H63  1  0.74665000  0.79559000  0.65686000  1.0 0.1201452691
H  H64  1  0.61130000  0.79358000  0.76576000  1.0 0.1201452691
H  H65  1  0.46669000  0.77912000  0.57322000  1.0 0.1297788533
H  H66  1  0.36442000  0.80791000  0.67027000  1.0 0.1109376035
H  H67  1  0.60798000  0.73987000  0.82361000  1.0 0.1407054141
H  H68  1  0.65486000  0.78991000  0.70260000  1.0 0.1201452691
H  H69  1  0.06757000  0.00215000  0.44171000  1.0 0.4033832448
H  H70  1  0.05093000  0.86849000  0.47227000  1.0 0.4033832448
H  H71  1  0.86158000  0.84317000  0.35920000  1.0 0.1201452691
H  H72  1  0.58088000  0.49859000  0.21986000  1.0 0.1201452691
H  H73  1  0.01772000  0.71709000  0.39221000  1.0 0.1201452691
H  H74  1  0.78798000  0.36251000  0.45849000  1.0 0.1201452691
H  H75  1  0.81167000  0.25999000  0.36157000  1.0 0.1201452691
H  H76  1  0.63486000  0.50081000  0.27794000  1.0 0.1201452691
H  H77  1  0.85027000  0.54971000  0.38871000  1.0 0.1297788533
H  H78  1  0.95145000  0.62051000  0.37602000  1.0 0.1109376035
H  H79  1  0.73080000  0.45614000  0.31159000  1.0 0.1109376035
H  H80  1  0.79559000  0.74665000  0.34314000  1.0 0.1201452691
H  H81  1  0.79358000  0.61130000  0.23424000  1.0 0.1201452691
H  H82  1  0.77912000  0.46669000  0.42678000  1.0 0.1297788533
H  H83  1  0.80791000  0.36442000  0.32973000  1.0 0.1109376035
H  H84  1  0.73987000  0.60798000  0.17639000  1.0 0.1407054141
H  H85  1  0.78991000  0.65486000  0.29740000  1.0 0.1201452691
H  H86  1  0.93243000  0.99785000  0.44171000  1.0 0.4033832448
H  H87  1  0.94907000  0.13151000  0.47227000  1.0 0.4033832448
H  H88  1  0.13842000  0.15683000  0.35920000  1.0 0.1201452691
H  H89  1  0.41912000  0.50141000  0.21986000  1.0 0.1201452691
H  H90  1  0.98228000  0.28291000  0.39221000  1.0 0.1201452691
H  H91  1  0.21202000  0.63749000  0.45849000  1.0 0.1201452691
H  H92  1  0.18833000  0.74001000  0.36157000  1.0 0.1201452691
H  H93  1  0.36514000  0.49919000  0.27794000  1.0 0.1201452691
H  H94  1  0.14973000  0.45029000  0.38871000  1.0 0.1297788533
H  H95  1  0.04855000  0.37949000  0.37602000  1.0 0.1109376035
H  H96  1  0.26920000  0.54386000  0.31159000  1.0 0.1109376035
H  H97  1  0.20441000  0.25335000  0.34314000  1.0 0.1201452691
H  H98  1  0.20642000  0.38870000  0.23424000  1.0 0.1201452691
H  H99  1  0.22088000  0.53331000  0.42678000  1.0 0.1297788533
H  H100  1  0.19209000  0.63558000  0.32973000  1.0 0.1109376035
H  H101  1  0.26013000  0.39202000  0.17639000  1.0 0.1407054141
H  H102  1  0.21009000  0.34514000  0.29740000  1.0 0.1201452691
H  H103  1  0.50215000  0.43243000  0.94171000  1.0 0.4033832448
H  H104  1  0.36849000  0.44907000  0.97227000  1.0 0.4033832448
H  H105  1  0.34317000  0.63842000  0.85920000  1.0 0.1201452691
H  H106  1  0.99859000  0.91912000  0.71986000  1.0 0.1201452691
H  H107  1  0.21709000  0.48228000  0.89221000  1.0 0.1201452691
H  H108  1  0.86251000  0.71202000  0.95849000  1.0 0.1201452691
H  H109  1  0.75999000  0.68833000  0.86157000  1.0 0.1201452691
H  H110  1  0.00081000  0.86514000  0.77794000  1.0 0.1201452691
H  H111  1  0.04971000  0.64973000  0.88871000  1.0 0.1297788533
H  H112  1  0.12051000  0.54855000  0.87602000  1.0 0.1109376035
H  H113  1  0.95614000  0.76920000  0.81159000  1.0 0.1109376035
H  H114  1  0.24665000  0.70441000  0.84314000  1.0 0.1201452691
H  H115  1  0.11130000  0.70642000  0.73424000  1.0 0.1201452691
H  H116  1  0.96669000  0.72088000  0.92678000  1.0 0.1297788533
H  H117  1  0.86442000  0.69209000  0.82973000  1.0 0.1109376035
H  H118  1  0.10798000  0.76013000  0.67639000  1.0 0.1407054141
H  H119  1  0.15486000  0.71009000  0.79740000  1.0 0.1201452691
H  H120  1  0.49785000  0.56757000  0.94171000  1.0 0.4033832448
H  H121  1  0.63151000  0.55093000  0.97227000  1.0 0.4033832448
H  H122  1  0.65683000  0.36158000  0.85920000  1.0 0.1201452691
H  H123  1  0.00141000  0.08088000  0.71986000  1.0 0.1201452691
H  H124  1  0.78291000  0.51772000  0.89221000  1.0 0.1201452691
H  H125  1  0.13749000  0.28798000  0.95849000  1.0 0.1201452691
H  H126  1  0.24001000  0.31167000  0.86157000  1.0 0.1201452691
H  H127  1  0.99919000  0.13486000  0.77794000  1.0 0.1201452691
H  H128  1  0.95029000  0.35027000  0.88871000  1.0 0.1297788533
H  H129  1  0.87949000  0.45145000  0.87602000  1.0 0.1109376035
H  H130  1  0.04386000  0.23080000  0.81159000  1.0 0.1109376035
H  H131  1  0.75335000  0.29559000  0.84314000  1.0 0.1201452691
H  H132  1  0.88870000  0.29358000  0.73424000  1.0 0.1201452691
H  H133  1  0.03331000  0.27912000  0.92678000  1.0 0.1297788533
H  H134  1  0.13558000  0.30791000  0.82973000  1.0 0.1109376035
H  H135  1  0.89202000  0.23987000  0.67639000  1.0 0.1407054141
H  H136  1  0.84514000  0.28991000  0.79740000  1.0 0.1201452691
H  H137  1  0.96388000  0.80665000  0.08214000  0.15 0.0797929214
H  H138  1  0.04370000  0.80678000  0.09421000  0.15 0.0408482778
H  H139  1  0.02050000  0.76905000  0.05671000  0.15 0.0408482778
H  H140  1  0.90387000  0.71703000  0.13616000  0.15 0.0917080604
H  H141  1  0.92760000  0.63848000  0.12965000  0.15 0.0619479444
H  H142  1  0.96727000  0.68567000  0.15933000  0.15 0.0917080604
H  H143  1  0.86215000  0.71209000  0.06268000  0.15 0.0797929214
H  H144  1  0.91484000  0.70148000  0.02890000  0.15 0.0619479444
H  H145  1  0.86828000  0.63805000  0.04295000  0.15 0.069236387
H  H146  1  0.87559000  0.61339000  0.11297000  0.15 0.0797929214
H  H147  1  0.89322000  0.56598000  0.07781000  0.15 0.1297788533
H  H148  1  0.94526000  0.56837000  0.11233000  0.15 0.1109376035
H  H149  1  0.88228000  0.75129000  0.04640000  0.15 0.069236387
H  H150  1  0.89873000  0.69424000  0.01543000  0.15 0.0619479444
H  H151  1  0.87606000  0.67062000  0.05618000  0.15 0.069236387
H  H152  1  0.99422000  0.80282000  0.02916000  0.15 0.0917080604
H  H153  1  0.06425000  0.75839000  0.03012000  0.15 0.1109376035
H  H154  1  0.00531000  0.74068000  0.00038000  0.15 0.1297788533
H  H155  1  0.01466000  0.84406000  0.10048000  0.15 0.0515868439
H  H156  1  0.05539000  0.80130000  0.13163000  0.15 0.0515868439
H  H157  1  0.08918000  0.81169000  0.09151000  0.15 0.0992748095
H  H158  1  0.94308000  0.79030000  0.12741000  0.15 0.0408482778
H  H159  1  0.96032000  0.71381000  0.14189000  0.15 0.0065038122
H  H160  1  0.01649000  0.77432000  0.14622000  0.15 0.069236387
H  H161  1  0.03612000  0.19335000  0.08214000  0.15 0.0797929214
H  H162  1  0.95630000  0.19322000  0.09421000  0.15 0.0408482778
H  H163  1  0.97950000  0.23095000  0.05671000  0.15 0.0408482778
H  H164  1  0.09613000  0.28297000  0.13616000  0.15 0.0917080604
H  H165  1  0.07240000  0.36152000  0.12965000  0.15 0.0619479444
H  H166  1  0.03273000  0.31433000  0.15933000  0.15 0.0917080604
H  H167  1  0.13785000  0.28791000  0.06268000  0.15 0.0797929214
H  H168  1  0.08516000  0.29852000  0.02890000  0.15 0.0619479444
H  H169  1  0.13172000  0.36195000  0.04295000  0.15 0.069236387
H  H170  1  0.12441000  0.38661000  0.11297000  0.15 0.0797929214
H  H171  1  0.10678000  0.43402000  0.07781000  0.15 0.1297788533
H  H172  1  0.05474000  0.43163000  0.11233000  0.15 0.1109376035
H  H173  1  0.11772000  0.24871000  0.04640000  0.15 0.069236387
H  H174  1  0.10127000  0.30576000  0.01543000  0.15 0.0619479444
H  H175  1  0.12394000  0.32938000  0.05618000  0.15 0.069236387
H  H176  1  0.00578000  0.19718000  0.02916000  0.15 0.0917080604
H  H177  1  0.93575000  0.24161000  0.03012000  0.15 0.1109376035
H  H178  1  0.99469000  0.25932000  0.00038000  0.15 0.1297788533
H  H179  1  0.98534000  0.15594000  0.10048000  0.15 0.0515868439
H  H180  1  0.94461000  0.19870000  0.13163000  0.15 0.0515868439
H  H181  1  0.91082000  0.18831000  0.09151000  0.15 0.0992748095
H  H182  1  0.05692000  0.20970000  0.12741000  0.15 0.0408482778
H  H183  1  0.03968000  0.28619000  0.14189000  0.15 0.0065038122
H  H184  1  0.98351000  0.22568000  0.14622000  0.15 0.069236387
H  H185  1  0.69335000  0.46388000  0.58214000  0.15 0.0797929214
H  H186  1  0.69322000  0.54370000  0.59421000  0.15 0.0408482778
H  H187  1  0.73095000  0.52050000  0.55671000  0.15 0.0408482778
H  H188  1  0.78297000  0.40387000  0.63616000  0.15 0.0917080604
H  H189  1  0.86152000  0.42760000  0.62965000  0.15 0.0619479444
H  H190  1  0.81433000  0.46727000  0.65933000  0.15 0.0917080604
H  H191  1  0.78791000  0.36215000  0.56268000  0.15 0.0797929214
H  H192  1  0.79852000  0.41484000  0.52890000  0.15 0.0619479444
H  H193  1  0.86195000  0.36828000  0.54295000  0.15 0.069236387
H  H194  1  0.88661000  0.37559000  0.61297000  0.15 0.0797929214
H  H195  1  0.93402000  0.39322000  0.57781000  0.15 0.1297788533
H  H196  1  0.93163000  0.44526000  0.61233000  0.15 0.1109376035
H  H197  1  0.74871000  0.38228000  0.54640000  0.15 0.069236387
H  H198  1  0.80576000  0.39873000  0.51543000  0.15 0.0619479444
H  H199  1  0.82938000  0.37606000  0.55618000  0.15 0.069236387
H  H200  1  0.69718000  0.49422000  0.52916000  0.15 0.0917080604
H  H201  1  0.74161000  0.56425000  0.53012000  0.15 0.1109376035
H  H202  1  0.75932000  0.50531000  0.50038000  0.15 0.1297788533
H  H203  1  0.65594000  0.51466000  0.60048000  0.15 0.0515868439
H  H204  1  0.69870000  0.55539000  0.63163000  0.15 0.0515868439
H  H205  1  0.68831000  0.58918000  0.59151000  0.15 0.0992748095
H  H206  1  0.70970000  0.44308000  0.62741000  0.15 0.0408482778
H  H207  1  0.78619000  0.46032000  0.64189000  0.15 0.0065038122
H  H208  1  0.72568000  0.51649000  0.64622000  0.15 0.069236387
H  H209  1  0.30665000  0.53612000  0.58214000  0.15 0.0797929214
H  H210  1  0.30678000  0.45630000  0.59421000  0.15 0.0408482778
H  H211  1  0.26905000  0.47950000  0.55671000  0.15 0.0408482778
H  H212  1  0.21703000  0.59613000  0.63616000  0.15 0.0917080604
H  H213  1  0.13848000  0.57240000  0.62965000  0.15 0.0619479444
H  H214  1  0.18567000  0.53273000  0.65933000  0.15 0.0917080604
H  H215  1  0.21209000  0.63785000  0.56268000  0.15 0.0797929214
H  H216  1  0.20148000  0.58516000  0.52890000  0.15 0.0619479444
H  H217  1  0.13805000  0.63172000  0.54295000  0.15 0.069236387
H  H218  1  0.11339000  0.62441000  0.61297000  0.15 0.0797929214
H  H219  1  0.06598000  0.60678000  0.57781000  0.15 0.1297788533
H  H220  1  0.06837000  0.55474000  0.61233000  0.15 0.1109376035
H  H221  1  0.25129000  0.61772000  0.54640000  0.15 0.069236387
H  H222  1  0.19424000  0.60127000  0.51543000  0.15 0.0619479444
H  H223  1  0.17062000  0.62394000  0.55618000  0.15 0.069236387
H  H224  1  0.30282000  0.50578000  0.52916000  0.15 0.0917080604
H  H225  1  0.25839000  0.43575000  0.53012000  0.15 0.1109376035
H  H226  1  0.24068000  0.49469000  0.50038000  0.15 0.1297788533
H  H227  1  0.34406000  0.48534000  0.60048000  0.15 0.0515868439
H  H228  1  0.30130000  0.44461000  0.63163000  0.15 0.0515868439
H  H229  1  0.31169000  0.41082000  0.59151000  0.15 0.0992748095
H  H230  1  0.29030000  0.55692000  0.62741000  0.15 0.0408482778
H  H231  1  0.21381000  0.53968000  0.64189000  0.15 0.0065038122
H  H232  1  0.27432000  0.48351000  0.64622000  0.15 0.069236387
H  H233  1  0.53612000  0.30665000  0.41786000  0.15 0.0797929214
H  H234  1  0.45630000  0.30678000  0.40579000  0.15 0.0408482778
H  H235  1  0.47950000  0.26905000  0.44329000  0.15 0.0408482778
H  H236  1  0.59613000  0.21703000  0.36384000  0.15 0.0917080604
H  H237  1  0.57240000  0.13848000  0.37035000  0.15 0.0619479444
H  H238  1  0.53273000  0.18567000  0.34067000  0.15 0.0917080604
H  H239  1  0.63785000  0.21209000  0.43732000  0.15 0.0797929214
H  H240  1  0.58516000  0.20148000  0.47110000  0.15 0.0619479444
H  H241  1  0.63172000  0.13805000  0.45705000  0.15 0.069236387
H  H242  1  0.62441000  0.11339000  0.38703000  0.15 0.0797929214
H  H243  1  0.60678000  0.06598000  0.42219000  0.15 0.1297788533
H  H244  1  0.55474000  0.06837000  0.38767000  0.15 0.1109376035
H  H245  1  0.61772000  0.25129000  0.45360000  0.15 0.069236387
H  H246  1  0.60127000  0.19424000  0.48457000  0.15 0.0619479444
H  H247  1  0.62394000  0.17062000  0.44382000  0.15 0.069236387
H  H248  1  0.50578000  0.30282000  0.47084000  0.15 0.0917080604
H  H249  1  0.43575000  0.25839000  0.46988000  0.15 0.1109376035
H  H250  1  0.49469000  0.24068000  0.49962000  0.15 0.1297788533
H  H251  1  0.48534000  0.34406000  0.39952000  0.15 0.0515868439
H  H252  1  0.44461000  0.30130000  0.36837000  0.15 0.0515868439
H  H253  1  0.41082000  0.31169000  0.40849000  0.15 0.0992748095
H  H254  1  0.55692000  0.29030000  0.37259000  0.15 0.0408482778
H  H255  1  0.53968000  0.21381000  0.35811000  0.15 0.0065038122
H  H256  1  0.48351000  0.27432000  0.35378000  0.15 0.069236387
H  H257  1  0.46388000  0.69335000  0.41786000  0.15 0.0797929214
H  H258  1  0.54370000  0.69322000  0.40579000  0.15 0.0408482778
H  H259  1  0.52050000  0.73095000  0.44329000  0.15 0.0408482778
H  H260  1  0.40387000  0.78297000  0.36384000  0.15 0.0917080604
H  H261  1  0.42760000  0.86152000  0.37035000  0.15 0.0619479444
H  H262  1  0.46727000  0.81433000  0.34067000  0.15 0.0917080604
H  H263  1  0.36215000  0.78791000  0.43732000  0.15 0.0797929214
H  H264  1  0.41484000  0.79852000  0.47110000  0.15 0.0619479444
H  H265  1  0.36828000  0.86195000  0.45705000  0.15 0.069236387
H  H266  1  0.37559000  0.88661000  0.38703000  0.15 0.0797929214
H  H267  1  0.39322000  0.93402000  0.42219000  0.15 0.1297788533
H  H268  1  0.44526000  0.93163000  0.38767000  0.15 0.1109376035
H  H269  1  0.38228000  0.74871000  0.45360000  0.15 0.069236387
H  H270  1  0.39873000  0.80576000  0.48457000  0.15 0.0619479444
H  H271  1  0.37606000  0.82938000  0.44382000  0.15 0.069236387
H  H272  1  0.49422000  0.69718000  0.47084000  0.15 0.0917080604
H  H273  1  0.56425000  0.74161000  0.46988000  0.15 0.1109376035
H  H274  1  0.50531000  0.75932000  0.49962000  0.15 0.1297788533
H  H275  1  0.51466000  0.65594000  0.39952000  0.15 0.0515868439
H  H276  1  0.55539000  0.69870000  0.36837000  0.15 0.0515868439
H  H277  1  0.58918000  0.68831000  0.40849000  0.15 0.0992748095
H  H278  1  0.44308000  0.70970000  0.37259000  0.15 0.0408482778
H  H279  1  0.46032000  0.78619000  0.35811000  0.15 0.0065038122
H  H280  1  0.51649000  0.72568000  0.35378000  0.15 0.069236387
H  H281  1  0.80665000  0.96388000  0.91786000  0.15 0.0797929214
H  H282  1  0.80678000  0.04370000  0.90579000  0.15 0.0408482778
H  H283  1  0.76905000  0.02050000  0.94329000  0.15 0.0408482778
H  H284  1  0.71703000  0.90387000  0.86384000  0.15 0.0917080604
H  H285  1  0.63848000  0.92760000  0.87035000  0.15 0.0619479444
H  H286  1  0.68567000  0.96727000  0.84067000  0.15 0.0917080604
H  H287  1  0.71209000  0.86215000  0.93732000  0.15 0.0797929214
H  H288  1  0.70148000  0.91484000  0.97110000  0.15 0.0619479444
H  H289  1  0.63805000  0.86828000  0.95705000  0.15 0.069236387
H  H290  1  0.61339000  0.87559000  0.88703000  0.15 0.0797929214
H  H291  1  0.56598000  0.89322000  0.92219000  0.15 0.1297788533
H  H292  1  0.56837000  0.94526000  0.88767000  0.15 0.1109376035
H  H293  1  0.75129000  0.88228000  0.95360000  0.15 0.069236387
H  H294  1  0.69424000  0.89873000  0.98457000  0.15 0.0619479444
H  H295  1  0.67062000  0.87606000  0.94382000  0.15 0.069236387
H  H296  1  0.80282000  0.99422000  0.97084000  0.15 0.0917080604
H  H297  1  0.75839000  0.06425000  0.96988000  0.15 0.1109376035
H  H298  1  0.74068000  0.00531000  0.99962000  0.15 0.1297788533
H  H299  1  0.84406000  0.01466000  0.89952000  0.15 0.0515868439
H  H300  1  0.80130000  0.05539000  0.86837000  0.15 0.0515868439
H  H301  1  0.81169000  0.08918000  0.90849000  0.15 0.0992748095
H  H302  1  0.79030000  0.94308000  0.87259000  0.15 0.0408482778
H  H303  1  0.71381000  0.96032000  0.85811000  0.15 0.0065038122
H  H304  1  0.77432000  0.01649000  0.85378000  0.15 0.069236387
H  H305  1  0.19335000  0.03612000  0.91786000  0.15 0.0797929214
H  H306  1  0.19322000  0.95630000  0.90579000  0.15 0.0408482778
H  H307  1  0.23095000  0.97950000  0.94329000  0.15 0.0408482778
H  H308  1  0.28297000  0.09613000  0.86384000  0.15 0.0917080604
H  H309  1  0.36152000  0.07240000  0.87035000  0.15 0.0619479444
H  H310  1  0.31433000  0.03273000  0.84067000  0.15 0.0917080604
H  H311  1  0.28791000  0.13785000  0.93732000  0.15 0.0797929214
H  H312  1  0.29852000  0.08516000  0.97110000  0.15 0.0619479444
H  H313  1  0.36195000  0.13172000  0.95705000  0.15 0.069236387
H  H314  1  0.38661000  0.12441000  0.88703000  0.15 0.0797929214
H  H315  1  0.43402000  0.10678000  0.92219000  0.15 0.1297788533
H  H316  1  0.43163000  0.05474000  0.88767000  0.15 0.1109376035
H  H317  1  0.24871000  0.11772000  0.95360000  0.15 0.069236387
H  H318  1  0.30576000  0.10127000  0.98457000  0.15 0.0619479444
H  H319  1  0.32938000  0.12394000  0.94382000  0.15 0.069236387
H  H320  1  0.19718000  0.00578000  0.97084000  0.15 0.0917080604
H  H321  1  0.24161000  0.93575000  0.96988000  0.15 0.1109376035
H  H322  1  0.25932000  0.99469000  0.99962000  0.15 0.1297788533
H  H323  1  0.15594000  0.98534000  0.89952000  0.15 0.0515868439
H  H324  1  0.19870000  0.94461000  0.86837000  0.15 0.0515868439
H  H325  1  0.18831000  0.91082000  0.90849000  0.15 0.0992748095
H  H326  1  0.20970000  0.05692000  0.87259000  0.15 0.0408482778
H  H327  1  0.28619000  0.03968000  0.85811000  0.15 0.0065038122
H  H328  1  0.22568000  0.98351000  0.85378000  0.15 0.069236387
H  H329  1  0.31910000  0.56072000  0.09686000  0.2 0.0797929214
H  H330  1  0.16633000  0.58597000  0.99736000  0.2 0.1109376035
H  H331  1  0.25444000  0.66301000  0.08850000  0.2 0.0992748095
H  H332  1  0.22083000  0.44935000  0.97916000  0.2 0.0619479444
H  H333  1  0.16174000  0.93192000  0.02365000  0.2 0.1407054141
H  H334  1  0.12973000  0.88593000  0.05635000  0.2 0.1485631876
H  H335  1  0.20883000  0.91063000  0.05834000  0.2 0.1611863571
H  H336  1  0.68090000  0.43928000  0.09686000  0.2 0.0797929214
H  H337  1  0.83367000  0.41403000  0.99736000  0.2 0.1109376035
H  H338  1  0.74556000  0.33699000  0.08850000  0.2 0.0992748095
H  H339  1  0.77917000  0.55065000  0.97916000  0.2 0.0619479444
H  H340  1  0.83826000  0.06808000  0.02365000  0.2 0.1407054141
H  H341  1  0.87027000  0.11407000  0.05635000  0.2 0.1485631876
H  H342  1  0.79117000  0.08937000  0.05834000  0.2 0.1611863571
H  H343  1  0.93928000  0.81910000  0.59686000  0.2 0.0797929214
H  H344  1  0.91403000  0.66633000  0.49736000  0.2 0.1109376035
H  H345  1  0.83699000  0.75444000  0.58850000  0.2 0.0992748095
H  H346  1  0.05065000  0.72083000  0.47916000  0.2 0.0619479444
H  H347  1  0.56808000  0.66174000  0.52365000  0.2 0.1407054141
H  H348  1  0.61407000  0.62973000  0.55635000  0.2 0.1485631876
H  H349  1  0.58937000  0.70883000  0.55834000  0.2 0.1611863571
H  H350  1  0.06072000  0.18090000  0.59686000  0.2 0.0797929214
H  H351  1  0.08597000  0.33367000  0.49736000  0.2 0.1109376035
H  H352  1  0.16301000  0.24556000  0.58850000  0.2 0.0992748095
H  H353  1  0.94935000  0.27917000  0.47916000  0.2 0.0619479444
H  H354  1  0.43192000  0.33826000  0.52365000  0.2 0.1407054141
H  H355  1  0.38593000  0.37027000  0.55635000  0.2 0.1485631876
H  H356  1  0.41063000  0.29117000  0.55834000  0.2 0.1611863571
H  H357  1  0.18090000  0.06072000  0.40314000  0.2 0.0797929214
H  H358  1  0.33367000  0.08597000  0.50264000  0.2 0.1109376035
H  H359  1  0.24556000  0.16301000  0.41150000  0.2 0.0992748095
H  H360  1  0.27917000  0.94935000  0.52084000  0.2 0.0619479444
H  H361  1  0.33826000  0.43192000  0.47635000  0.2 0.1407054141
H  H362  1  0.37027000  0.38593000  0.44365000  0.2 0.1485631876
H  H363  1  0.29117000  0.41063000  0.44166000  0.2 0.1611863571
H  H364  1  0.81910000  0.93928000  0.40314000  0.2 0.0797929214
H  H365  1  0.66633000  0.91403000  0.50264000  0.2 0.1109376035
H  H366  1  0.75444000  0.83699000  0.41150000  0.2 0.0992748095
H  H367  1  0.72083000  0.05065000  0.52084000  0.2 0.0619479444
H  H368  1  0.66174000  0.56808000  0.47635000  0.2 0.1407054141
H  H369  1  0.62973000  0.61407000  0.44365000  0.2 0.1485631876
H  H370  1  0.70883000  0.58937000  0.44166000  0.2 0.1611863571
H  H371  1  0.56072000  0.31910000  0.90314000  0.2 0.0797929214
H  H372  1  0.58597000  0.16633000  0.00264000  0.2 0.1109376035
H  H373  1  0.66301000  0.25444000  0.91150000  0.2 0.0992748095
H  H374  1  0.44935000  0.22083000  0.02084000  0.2 0.0619479444
H  H375  1  0.93192000  0.16174000  0.97635000  0.2 0.1407054141
H  H376  1  0.88593000  0.12973000  0.94365000  0.2 0.1485631876
H  H377  1  0.91063000  0.20883000  0.94166000  0.2 0.1611863571
H  H378  1  0.43928000  0.68090000  0.90314000  0.2 0.0797929214
H  H379  1  0.41403000  0.83367000  0.00264000  0.2 0.1109376035
H  H380  1  0.33699000  0.74556000  0.91150000  0.2 0.0992748095
H  H381  1  0.55065000  0.77917000  0.02084000  0.2 0.0619479444
H  H382  1  0.06808000  0.83826000  0.97635000  0.2 0.1407054141
H  H383  1  0.11407000  0.87027000  0.94365000  0.2 0.1485631876
H  H384  1  0.08937000  0.79117000  0.94166000  0.2 0.1611863571
H  H385  1  0.18399000  0.41860000  0.99283000  0.31 0.0619479444
H  H386  1  0.27992000  0.54117000  0.11199000  0.31 0.0797929214
H  H387  1  0.18528000  0.61284000  0.11483000  0.31 0.0992748095
H  H388  1  0.09902000  0.52959000  0.02302000  0.31 0.0992748095
H  H389  1  0.81601000  0.58140000  0.99283000  0.31 0.0619479444
H  H390  1  0.72008000  0.45883000  0.11199000  0.31 0.0797929214
H  H391  1  0.81472000  0.38716000  0.11483000  0.31 0.0992748095
H  H392  1  0.90098000  0.47041000  0.02302000  0.31 0.0992748095
H  H393  1  0.08140000  0.68399000  0.49283000  0.31 0.0619479444
H  H394  1  0.95883000  0.77992000  0.61199000  0.31 0.0797929214
H  H395  1  0.88716000  0.68528000  0.61483000  0.31 0.0992748095
H  H396  1  0.97041000  0.59902000  0.52302000  0.31 0.0992748095
H  H397  1  0.91860000  0.31601000  0.49283000  0.31 0.0619479444
H  H398  1  0.04117000  0.22008000  0.61199000  0.31 0.0797929214
H  H399  1  0.11284000  0.31472000  0.61483000  0.31 0.0992748095
H  H400  1  0.02959000  0.40098000  0.52302000  0.31 0.0992748095
H  H401  1  0.31601000  0.91860000  0.50717000  0.31 0.0619479444
H  H402  1  0.22008000  0.04117000  0.38801000  0.31 0.0797929214
H  H403  1  0.31472000  0.11284000  0.38517000  0.31 0.0992748095
H  H404  1  0.40098000  0.02959000  0.47698000  0.31 0.0992748095
H  H405  1  0.68399000  0.08140000  0.50717000  0.31 0.0619479444
H  H406  1  0.77992000  0.95883000  0.38801000  0.31 0.0797929214
H  H407  1  0.68528000  0.88716000  0.38517000  0.31 0.0992748095
H  H408  1  0.59902000  0.97041000  0.47698000  0.31 0.0992748095
H  H409  1  0.41860000  0.18399000  0.00717000  0.31 0.0619479444
H  H410  1  0.54117000  0.27992000  0.88801000  0.31 0.0797929214
H  H411  1  0.61284000  0.18528000  0.88517000  0.31 0.0992748095
H  H412  1  0.52959000  0.09902000  0.97698000  0.31 0.0992748095
H  H413  1  0.58140000  0.81601000  0.00717000  0.31 0.0619479444
H  H414  1  0.45883000  0.72008000  0.88801000  0.31 0.0797929214
H  H415  1  0.38716000  0.81472000  0.88517000  0.31 0.0992748095
H  H416  1  0.47041000  0.90098000  0.97698000  0.31 0.0992748095
H  H417  1  0.22178000  0.46574000  0.04222000  0.49 0.0619479444
H  H418  1  0.77822000  0.53426000  0.04222000  0.49 0.0619479444
H  H419  1  0.03426000  0.72178000  0.54222000  0.49 0.0619479444
H  H420  1  0.96574000  0.27822000  0.54222000  0.49 0.0619479444
H  H421  1  0.27822000  0.96574000  0.45778000  0.49 0.0619479444
H  H422  1  0.72178000  0.03426000  0.45778000  0.49 0.0619479444
H  H423  1  0.46574000  0.22178000  0.95778000  0.49 0.0619479444
H  H424  1  0.53426000  0.77822000  0.95778000  0.49 0.0619479444
C  C1  1  0.51130000  0.35153000  0.11345000  1.0 0.6264720233
C  C2  1  0.69890000  0.80129000  0.08685000  1.0 -0.0266088266
C  C3  1  0.68911000  0.73466000  0.06722000  1.0 0.5236842903
C  C4  1  0.55380000  0.28912000  0.12301000  1.0 -0.0425555957
C  C5  1  0.62000000  0.29790000  0.13749000  1.0 -0.0986531149
C  C6  1  0.87590000  0.02150000  0.27720000  1.0 -0.0986531149
C  C7  1  0.52730000  0.22312000  0.11790000  1.0 -0.0986531149
C  C8  1  0.70860000  0.86302000  0.06777000  1.0 -0.125684225
C  C9  1  0.70690000  0.92640000  0.12509000  1.0 0.0515868439
C  C10  1  0.69390000  0.80220000  0.12518000  1.0 -0.0986531149
C  C11  1  0.87960000  0.05264000  0.34405000  1.0 0.6216200264
C  C12  1  0.63300000  0.17330000  0.14255000  1.0 0.069236387
C  C13  1  0.84360000  0.02300000  0.24258000  1.0 -0.1589337274
C  C14  1  0.84490000  0.05353000  0.30724000  1.0 -0.0523083722
C  C15  1  0.67390000  0.05120000  0.13421000  1.0 -0.2000748748
C  C16  1  0.56690000  0.16570000  0.12761000  1.0 -0.1589337274
C  C17  1  0.74480000  0.99590000  0.18000000  1.0 -0.2086061845
C  C18  1  0.65910000  0.24040000  0.14707000  1.0 -0.1428048899
C  C19  1  0.78100000  0.05610000  0.23777000  1.0 0.069236387
C  C20  1  0.74960000  0.08830000  0.26857000  1.0 -0.1485371791
C  C21  1  0.74490000  0.05530000  0.20165000  1.0 0.0797929214
C  C22  1  0.71330000  0.92487000  0.08652000  1.0 -0.1589337274
C  C23  1  0.69690000  0.86410000  0.14407000  1.0 -0.1589337274
C  C24  1  0.67280000  0.11190000  0.15514000  1.0 0.0797929214
C  C25  1  0.78170000  0.08650000  0.30292000  1.0 -0.1100929002
C  C26  1  0.70940000  0.11330000  0.18847000  1.0 -0.2086061845
C  C27  1  0.70980000  0.99290000  0.14624000  1.0 0.0797929214
C  C28  1  0.48870000  0.64847000  0.11345000  1.0 0.6264720233
C  C29  1  0.30110000  0.19871000  0.08685000  1.0 -0.0266088266
C  C30  1  0.31089000  0.26534000  0.06722000  1.0 0.5236842903
C  C31  1  0.44620000  0.71088000  0.12301000  1.0 -0.0425555957
C  C32  1  0.38000000  0.70210000  0.13749000  1.0 -0.0986531149
C  C33  1  0.12410000  0.97850000  0.27720000  1.0 -0.0986531149
C  C34  1  0.47270000  0.77688000  0.11790000  1.0 -0.0986531149
C  C35  1  0.29140000  0.13698000  0.06777000  1.0 -0.125684225
C  C36  1  0.29310000  0.07360000  0.12509000  1.0 0.0515868439
C  C37  1  0.30610000  0.19780000  0.12518000  1.0 -0.0986531149
C  C38  1  0.12040000  0.94736000  0.34405000  1.0 0.6216200264
C  C39  1  0.36700000  0.82670000  0.14255000  1.0 0.069236387
C  C40  1  0.15640000  0.97700000  0.24258000  1.0 -0.1589337274
C  C41  1  0.15510000  0.94647000  0.30724000  1.0 -0.0523083722
C  C42  1  0.32610000  0.94880000  0.13421000  1.0 -0.2000748748
C  C43  1  0.43310000  0.83430000  0.12761000  1.0 -0.1589337274
C  C44  1  0.25520000  0.00410000  0.18000000  1.0 -0.2086061845
C  C45  1  0.34090000  0.75960000  0.14707000  1.0 -0.1428048899
C  C46  1  0.21900000  0.94390000  0.23777000  1.0 0.069236387
C  C47  1  0.25040000  0.91170000  0.26857000  1.0 -0.1485371791
C  C48  1  0.25510000  0.94470000  0.20165000  1.0 0.0797929214
C  C49  1  0.28670000  0.07513000  0.08652000  1.0 -0.1589337274
C  C50  1  0.30310000  0.13590000  0.14407000  1.0 -0.1589337274
C  C51  1  0.32720000  0.88810000  0.15514000  1.0 0.0797929214
C  C52  1  0.21830000  0.91350000  0.30292000  1.0 -0.1100929002
C  C53  1  0.29060000  0.88670000  0.18847000  1.0 -0.2086061845
C  C54  1  0.29020000  0.00710000  0.14624000  1.0 0.0797929214
C  C55  1  0.14847000  0.01130000  0.61345000  1.0 0.6264720233
C  C56  1  0.69871000  0.19890000  0.58685000  1.0 -0.0266088266
C  C57  1  0.76534000  0.18911000  0.56722000  1.0 0.5236842903
C  C58  1  0.21088000  0.05380000  0.62301000  1.0 -0.0425555957
C  C59  1  0.20210000  0.12000000  0.63749000  1.0 -0.0986531149
C  C60  1  0.47850000  0.37590000  0.77720000  1.0 -0.0986531149
C  C61  1  0.27688000  0.02730000  0.61790000  1.0 -0.0986531149
C  C62  1  0.63698000  0.20860000  0.56777000  1.0 -0.125684225
C  C63  1  0.57360000  0.20690000  0.62509000  1.0 0.0515868439
C  C64  1  0.69780000  0.19390000  0.62518000  1.0 -0.0986531149
C  C65  1  0.44736000  0.37960000  0.84405000  1.0 0.6216200264
C  C66  1  0.32670000  0.13300000  0.64255000  1.0 0.069236387
C  C67  1  0.47700000  0.34360000  0.74258000  1.0 -0.1589337274
C  C68  1  0.44647000  0.34490000  0.80724000  1.0 -0.0523083722
C  C69  1  0.44880000  0.17390000  0.63421000  1.0 -0.2000748748
C  C70  1  0.33430000  0.06690000  0.62761000  1.0 -0.1589337274
C  C71  1  0.50410000  0.24480000  0.68000000  1.0 -0.2086061845
C  C72  1  0.25960000  0.15910000  0.64707000  1.0 -0.1428048899
C  C73  1  0.44390000  0.28100000  0.73777000  1.0 0.069236387
C  C74  1  0.41170000  0.24960000  0.76857000  1.0 -0.1485371791
C  C75  1  0.44470000  0.24490000  0.70165000  1.0 0.0797929214
C  C76  1  0.57513000  0.21330000  0.58652000  1.0 -0.1589337274
C  C77  1  0.63590000  0.19690000  0.64407000  1.0 -0.1589337274
C  C78  1  0.38810000  0.17280000  0.65514000  1.0 0.0797929214
C  C79  1  0.41350000  0.28170000  0.80292000  1.0 -0.1100929002
C  C80  1  0.38670000  0.20940000  0.68847000  1.0 -0.2086061845
C  C81  1  0.50710000  0.20980000  0.64624000  1.0 0.0797929214
C  C82  1  0.85153000  0.98870000  0.61345000  1.0 0.6264720233
C  C83  1  0.30129000  0.80110000  0.58685000  1.0 -0.0266088266
C  C84  1  0.23466000  0.81089000  0.56722000  1.0 0.5236842903
C  C85  1  0.78912000  0.94620000  0.62301000  1.0 -0.0425555957
C  C86  1  0.79790000  0.88000000  0.63749000  1.0 -0.0986531149
C  C87  1  0.52150000  0.62410000  0.77720000  1.0 -0.0986531149
C  C88  1  0.72312000  0.97270000  0.61790000  1.0 -0.0986531149
C  C89  1  0.36302000  0.79140000  0.56777000  1.0 -0.125684225
C  C90  1  0.42640000  0.79310000  0.62509000  1.0 0.0515868439
C  C91  1  0.30220000  0.80610000  0.62518000  1.0 -0.0986531149
C  C92  1  0.55264000  0.62040000  0.84405000  1.0 0.6216200264
C  C93  1  0.67330000  0.86700000  0.64255000  1.0 0.069236387
C  C94  1  0.52300000  0.65640000  0.74258000  1.0 -0.1589337274
C  C95  1  0.55353000  0.65510000  0.80724000  1.0 -0.0523083722
C  C96  1  0.55120000  0.82610000  0.63421000  1.0 -0.2000748748
C  C97  1  0.66570000  0.93310000  0.62761000  1.0 -0.1589337274
C  C98  1  0.49590000  0.75520000  0.68000000  1.0 -0.2086061845
C  C99  1  0.74040000  0.84090000  0.64707000  1.0 -0.1428048899
C  C100  1  0.55610000  0.71900000  0.73777000  1.0 0.069236387
C  C101  1  0.58830000  0.75040000  0.76857000  1.0 -0.1485371791
C  C102  1  0.55530000  0.75510000  0.70165000  1.0 0.0797929214
C  C103  1  0.42487000  0.78670000  0.58652000  1.0 -0.1589337274
C  C104  1  0.36410000  0.80310000  0.64407000  1.0 -0.1589337274
C  C105  1  0.61190000  0.82720000  0.65514000  1.0 0.0797929214
C  C106  1  0.58650000  0.71830000  0.80292000  1.0 -0.1100929002
C  C107  1  0.61330000  0.79060000  0.68847000  1.0 -0.2086061845
C  C108  1  0.49290000  0.79020000  0.64624000  1.0 0.0797929214
C  C109  1  0.98870000  0.85153000  0.38655000  1.0 0.6264720233
C  C110  1  0.80110000  0.30129000  0.41315000  1.0 -0.0266088266
C  C111  1  0.81089000  0.23466000  0.43278000  1.0 0.5236842903
C  C112  1  0.94620000  0.78912000  0.37699000  1.0 -0.0425555957
C  C113  1  0.88000000  0.79790000  0.36251000  1.0 -0.0986531149
C  C114  1  0.62410000  0.52150000  0.22280000  1.0 -0.0986531149
C  C115  1  0.97270000  0.72312000  0.38210000  1.0 -0.0986531149
C  C116  1  0.79140000  0.36302000  0.43223000  1.0 -0.125684225
C  C117  1  0.79310000  0.42640000  0.37491000  1.0 0.0515868439
C  C118  1  0.80610000  0.30220000  0.37482000  1.0 -0.0986531149
C  C119  1  0.62040000  0.55264000  0.15595000  1.0 0.6216200264
C  C120  1  0.86700000  0.67330000  0.35745000  1.0 0.069236387
C  C121  1  0.65640000  0.52300000  0.25742000  1.0 -0.1589337274
C  C122  1  0.65510000  0.55353000  0.19276000  1.0 -0.0523083722
C  C123  1  0.82610000  0.55120000  0.36579000  1.0 -0.2000748748
C  C124  1  0.93310000  0.66570000  0.37239000  1.0 -0.1589337274
C  C125  1  0.75520000  0.49590000  0.32000000  1.0 -0.2086061845
C  C126  1  0.84090000  0.74040000  0.35293000  1.0 -0.1428048899
C  C127  1  0.71900000  0.55610000  0.26223000  1.0 0.069236387
C  C128  1  0.75040000  0.58830000  0.23143000  1.0 -0.1485371791
C  C129  1  0.75510000  0.55530000  0.29835000  1.0 0.0797929214
C  C130  1  0.78670000  0.42487000  0.41348000  1.0 -0.1589337274
C  C131  1  0.80310000  0.36410000  0.35593000  1.0 -0.1589337274
C  C132  1  0.82720000  0.61190000  0.34486000  1.0 0.0797929214
C  C133  1  0.71830000  0.58650000  0.19708000  1.0 -0.1100929002
C  C134  1  0.79060000  0.61330000  0.31153000  1.0 -0.2086061845
C  C135  1  0.79020000  0.49290000  0.35376000  1.0 0.0797929214
C  C136  1  0.01130000  0.14847000  0.38655000  1.0 0.6264720233
C  C137  1  0.19890000  0.69871000  0.41315000  1.0 -0.0266088266
C  C138  1  0.18911000  0.76534000  0.43278000  1.0 0.5236842903
C  C139  1  0.05380000  0.21088000  0.37699000  1.0 -0.0425555957
C  C140  1  0.12000000  0.20210000  0.36251000  1.0 -0.0986531149
C  C141  1  0.37590000  0.47850000  0.22280000  1.0 -0.0986531149
C  C142  1  0.02730000  0.27688000  0.38210000  1.0 -0.0986531149
C  C143  1  0.20860000  0.63698000  0.43223000  1.0 -0.125684225
C  C144  1  0.20690000  0.57360000  0.37491000  1.0 0.0515868439
C  C145  1  0.19390000  0.69780000  0.37482000  1.0 -0.0986531149
C  C146  1  0.37960000  0.44736000  0.15595000  1.0 0.6216200264
C  C147  1  0.13300000  0.32670000  0.35745000  1.0 0.069236387
C  C148  1  0.34360000  0.47700000  0.25742000  1.0 -0.1589337274
C  C149  1  0.34490000  0.44647000  0.19276000  1.0 -0.0523083722
C  C150  1  0.17390000  0.44880000  0.36579000  1.0 -0.2000748748
C  C151  1  0.06690000  0.33430000  0.37239000  1.0 -0.1589337274
C  C152  1  0.24480000  0.50410000  0.32000000  1.0 -0.2086061845
C  C153  1  0.15910000  0.25960000  0.35293000  1.0 -0.1428048899
C  C154  1  0.28100000  0.44390000  0.26223000  1.0 0.069236387
C  C155  1  0.24960000  0.41170000  0.23143000  1.0 -0.1485371791
C  C156  1  0.24490000  0.44470000  0.29835000  1.0 0.0797929214
C  C157  1  0.21330000  0.57513000  0.41348000  1.0 -0.1589337274
C  C158  1  0.19690000  0.63590000  0.35593000  1.0 -0.1589337274
C  C159  1  0.17280000  0.38810000  0.34486000  1.0 0.0797929214
C  C160  1  0.28170000  0.41350000  0.19708000  1.0 -0.1100929002
C  C161  1  0.20940000  0.38670000  0.31153000  1.0 -0.2086061845
C  C162  1  0.20980000  0.50710000  0.35376000  1.0 0.0797929214
C  C163  1  0.35153000  0.51130000  0.88655000  1.0 0.6264720233
C  C164  1  0.80129000  0.69890000  0.91315000  1.0 -0.0266088266
C  C165  1  0.73466000  0.68911000  0.93278000  1.0 0.5236842903
C  C166  1  0.28912000  0.55380000  0.87699000  1.0 -0.0425555957
C  C167  1  0.29790000  0.62000000  0.86251000  1.0 -0.0986531149
C  C168  1  0.02150000  0.87590000  0.72280000  1.0 -0.0986531149
C  C169  1  0.22312000  0.52730000  0.88210000  1.0 -0.0986531149
C  C170  1  0.86302000  0.70860000  0.93223000  1.0 -0.125684225
C  C171  1  0.92640000  0.70690000  0.87491000  1.0 0.0515868439
C  C172  1  0.80220000  0.69390000  0.87482000  1.0 -0.0986531149
C  C173  1  0.05264000  0.87960000  0.65595000  1.0 0.6216200264
C  C174  1  0.17330000  0.63300000  0.85745000  1.0 0.069236387
C  C175  1  0.02300000  0.84360000  0.75742000  1.0 -0.1589337274
C  C176  1  0.05353000  0.84490000  0.69276000  1.0 -0.0523083722
C  C177  1  0.05120000  0.67390000  0.86579000  1.0 -0.2000748748
C  C178  1  0.16570000  0.56690000  0.87239000  1.0 -0.1589337274
C  C179  1  0.99590000  0.74480000  0.82000000  1.0 -0.2086061845
C  C180  1  0.24040000  0.65910000  0.85293000  1.0 -0.1428048899
C  C181  1  0.05610000  0.78100000  0.76223000  1.0 0.069236387
C  C182  1  0.08830000  0.74960000  0.73143000  1.0 -0.1485371791
C  C183  1  0.05530000  0.74490000  0.79835000  1.0 0.0797929214
C  C184  1  0.92487000  0.71330000  0.91348000  1.0 -0.1589337274
C  C185  1  0.86410000  0.69690000  0.85593000  1.0 -0.1589337274
C  C186  1  0.11190000  0.67280000  0.84486000  1.0 0.0797929214
C  C187  1  0.08650000  0.78170000  0.69708000  1.0 -0.1100929002
C  C188  1  0.11330000  0.70940000  0.81153000  1.0 -0.2086061845
C  C189  1  0.99290000  0.70980000  0.85376000  1.0 0.0797929214
C  C190  1  0.64847000  0.48870000  0.88655000  1.0 0.6264720233
C  C191  1  0.19871000  0.30110000  0.91315000  1.0 -0.0266088266
C  C192  1  0.26534000  0.31089000  0.93278000  1.0 0.5236842903
C  C193  1  0.71088000  0.44620000  0.87699000  1.0 -0.0425555957
C  C194  1  0.70210000  0.38000000  0.86251000  1.0 -0.0986531149
C  C195  1  0.97850000  0.12410000  0.72280000  1.0 -0.0986531149
C  C196  1  0.77688000  0.47270000  0.88210000  1.0 -0.0986531149
C  C197  1  0.13698000  0.29140000  0.93223000  1.0 -0.125684225
C  C198  1  0.07360000  0.29310000  0.87491000  1.0 0.0515868439
C  C199  1  0.19780000  0.30610000  0.87482000  1.0 -0.0986531149
C  C200  1  0.94736000  0.12040000  0.65595000  1.0 0.6216200264
C  C201  1  0.82670000  0.36700000  0.85745000  1.0 0.069236387
C  C202  1  0.97700000  0.15640000  0.75742000  1.0 -0.1589337274
C  C203  1  0.94647000  0.15510000  0.69276000  1.0 -0.0523083722
C  C204  1  0.94880000  0.32610000  0.86579000  1.0 -0.2000748748
C  C205  1  0.83430000  0.43310000  0.87239000  1.0 -0.1589337274
C  C206  1  0.00410000  0.25520000  0.82000000  1.0 -0.2086061845
C  C207  1  0.75960000  0.34090000  0.85293000  1.0 -0.1428048899
C  C208  1  0.94390000  0.21900000  0.76223000  1.0 0.069236387
C  C209  1  0.91170000  0.25040000  0.73143000  1.0 -0.1485371791
C  C210  1  0.94470000  0.25510000  0.79835000  1.0 0.0797929214
C  C211  1  0.07513000  0.28670000  0.91348000  1.0 -0.1589337274
C  C212  1  0.13590000  0.30310000  0.85593000  1.0 -0.1589337274
C  C213  1  0.88810000  0.32720000  0.84486000  1.0 0.0797929214
C  C214  1  0.91350000  0.21830000  0.69708000  1.0 -0.1100929002
C  C215  1  0.88670000  0.29060000  0.81153000  1.0 -0.2086061845
C  C216  1  0.00710000  0.29020000  0.85376000  1.0 0.0797929214
C  C217  1  0.99500000  0.71010000  0.10430000  0.15 0.1297788533
C  C218  1  0.00700000  0.78000000  0.08230000  0.15 -0.1485371791
C  C219  1  0.94400000  0.68600000  0.13530000  0.15 -0.2663258342
C  C220  1  0.89400000  0.67900000  0.05070000  0.15 -0.1765641449
C  C221  1  0.98000000  0.70400000  0.05410000  0.15 0.1297788533
C  C222  1  0.91300000  0.59600000  0.09700000  0.15 -0.5080897836
C  C223  1  0.01000000  0.73700000  0.09150000  0.15 0.0797929214
C  C224  1  0.95300000  0.65800000  0.07880000  0.15 0.1485631876
C  C225  1  0.90200000  0.70500000  0.04200000  0.15 -0.2158843008
C  C226  1  0.01400000  0.75700000  0.02570000  0.15 -0.425289259
C  C227  1  0.04600000  0.80500000  0.10500000  0.15 -0.1589337274
C  C228  1  0.98000000  0.75600000  0.13000000  0.15 -0.1485371791
C  C229  1  0.00500000  0.28990000  0.10430000  0.15 0.1297788533
C  C230  1  0.99300000  0.22000000  0.08230000  0.15 -0.1485371791
C  C231  1  0.05600000  0.31400000  0.13530000  0.15 -0.2663258342
C  C232  1  0.10600000  0.32100000  0.05070000  0.15 -0.1765641449
C  C233  1  0.02000000  0.29600000  0.05410000  0.15 0.1297788533
C  C234  1  0.08700000  0.40400000  0.09700000  0.15 -0.5080897836
C  C235  1  0.99000000  0.26300000  0.09150000  0.15 0.0797929214
C  C236  1  0.04700000  0.34200000  0.07880000  0.15 0.1485631876
C  C237  1  0.09800000  0.29500000  0.04200000  0.15 -0.2158843008
C  C238  1  0.98600000  0.24300000  0.02570000  0.15 -0.4248699872
C  C239  1  0.95400000  0.19500000  0.10500000  0.15 -0.1589337274
C  C240  1  0.02000000  0.24400000  0.13000000  0.15 -0.1485371791
C  C241  1  0.78990000  0.49500000  0.60430000  0.15 0.1407054141
C  C242  1  0.72000000  0.50700000  0.58230000  0.15 -0.1485371791
C  C243  1  0.81400000  0.44400000  0.63530000  0.15 -0.2663258342
C  C244  1  0.82100000  0.39400000  0.55070000  0.15 -0.1765641449
C  C245  1  0.79600000  0.48000000  0.55410000  0.15 0.1297788533
C  C246  1  0.90400000  0.41300000  0.59700000  0.15 -0.5080897836
C  C247  1  0.76300000  0.51000000  0.59150000  0.15 0.0797929214
C  C248  1  0.84200000  0.45300000  0.57880000  0.15 0.1485631876
C  C249  1  0.79500000  0.40200000  0.54200000  0.15 -0.2158843008
C  C250  1  0.74300000  0.51400000  0.52570000  0.15 -0.425289259
C  C251  1  0.69500000  0.54600000  0.60500000  0.15 -0.1589337274
C  C252  1  0.74400000  0.48000000  0.63000000  0.15 -0.1485371791
C  C253  1  0.21010000  0.50500000  0.60430000  0.15 0.1407054141
C  C254  1  0.28000000  0.49300000  0.58230000  0.15 -0.1485371791
C  C255  1  0.18600000  0.55600000  0.63530000  0.15 -0.2663258342
C  C256  1  0.17900000  0.60600000  0.55070000  0.15 -0.1765641449
C  C257  1  0.20400000  0.52000000  0.55410000  0.15 0.1297788533
C  C258  1  0.09600000  0.58700000  0.59700000  0.15 -0.5080897836
C  C259  1  0.23700000  0.49000000  0.59150000  0.15 0.0797929214
C  C260  1  0.15800000  0.54700000  0.57880000  0.15 0.1485631876
C  C261  1  0.20500000  0.59800000  0.54200000  0.15 -0.2158843008
C  C262  1  0.25700000  0.48600000  0.52570000  0.15 -0.425289259
C  C263  1  0.30500000  0.45400000  0.60500000  0.15 -0.1589337274
C  C264  1  0.25600000  0.52000000  0.63000000  0.15 -0.1485371791
C  C265  1  0.50500000  0.21010000  0.39570000  0.15 0.1297788533
C  C266  1  0.49300000  0.28000000  0.41770000  0.15 -0.1485371791
C  C267  1  0.55600000  0.18600000  0.36470000  0.15 -0.2663258342
C  C268  1  0.60600000  0.17900000  0.44930000  0.15 -0.1765641449
C  C269  1  0.52000000  0.20400000  0.44590000  0.15 0.1297788533
C  C270  1  0.58700000  0.09600000  0.40300000  0.15 -0.5080897836
C  C271  1  0.49000000  0.23700000  0.40850000  0.15 0.0797929214
C  C272  1  0.54700000  0.15800000  0.42120000  0.15 0.1485631876
C  C273  1  0.59800000  0.20500000  0.45800000  0.15 -0.2158843008
C  C274  1  0.48600000  0.25700000  0.47430000  0.15 -0.425289259
C  C275  1  0.45400000  0.30500000  0.39500000  0.15 -0.1589337274
C  C276  1  0.52000000  0.25600000  0.37000000  0.15 -0.1485371791
C  C277  1  0.49500000  0.78990000  0.39570000  0.15 0.1297788533
C  C278  1  0.50700000  0.72000000  0.41770000  0.15 -0.1485371791
C  C279  1  0.44400000  0.81400000  0.36470000  0.15 -0.2663258342
C  C280  1  0.39400000  0.82100000  0.44930000  0.15 -0.1765641449
C  C281  1  0.48000000  0.79600000  0.44590000  0.15 0.1297788533
C  C282  1  0.41300000  0.90400000  0.40300000  0.15 -0.5080897836
C  C283  1  0.51000000  0.76300000  0.40850000  0.15 0.0797929214
C  C284  1  0.45300000  0.84200000  0.42120000  0.15 0.1485631876
C  C285  1  0.40200000  0.79500000  0.45800000  0.15 -0.2158843008
C  C286  1  0.51400000  0.74300000  0.47430000  0.15 -0.425289259
C  C287  1  0.54600000  0.69500000  0.39500000  0.15 -0.1589337274
C  C288  1  0.48000000  0.74400000  0.37000000  0.15 -0.1485371791
C  C289  1  0.71010000  0.99500000  0.89570000  0.15 0.1407054141
C  C290  1  0.78000000  0.00700000  0.91770000  0.15 -0.1485371791
C  C291  1  0.68600000  0.94400000  0.86470000  0.15 -0.2663258342
C  C292  1  0.67900000  0.89400000  0.94930000  0.15 -0.1765641449
C  C293  1  0.70400000  0.98000000  0.94590000  0.15 0.1297788533
C  C294  1  0.59600000  0.91300000  0.90300000  0.15 -0.5080897836
C  C295  1  0.73700000  0.01000000  0.90850000  0.15 0.0797929214
C  C296  1  0.65800000  0.95300000  0.92120000  0.15 0.1485631876
C  C297  1  0.70500000  0.90200000  0.95800000  0.15 -0.2158843008
C  C298  1  0.75700000  0.01400000  0.97430000  0.15 -0.425289259
C  C299  1  0.80500000  0.04600000  0.89500000  0.15 -0.1589337274
C  C300  1  0.75600000  0.98000000  0.87000000  0.15 -0.1485371791
C  C301  1  0.28990000  0.00500000  0.89570000  0.15 0.1297788533
C  C302  1  0.22000000  0.99300000  0.91770000  0.15 -0.1485371791
C  C303  1  0.31400000  0.05600000  0.86470000  0.15 -0.2663258342
C  C304  1  0.32100000  0.10600000  0.94930000  0.15 -0.1765641449
C  C305  1  0.29600000  0.02000000  0.94590000  0.15 0.1297788533
C  C306  1  0.40400000  0.08700000  0.90300000  0.15 -0.5080897836
C  C307  1  0.26300000  0.99000000  0.90850000  0.15 0.0917080604
C  C308  1  0.34200000  0.04700000  0.92120000  0.15 0.1485631876
C  C309  1  0.29500000  0.09800000  0.95800000  0.15 -0.2158843008
C  C310  1  0.24300000  0.98600000  0.97430000  0.15 -0.425289259
C  C311  1  0.19500000  0.95400000  0.89500000  0.15 -0.1589337274
C  C312  1  0.24400000  0.02000000  0.87000000  0.15 -0.1485371791
C  C313  1  0.22860000  0.51610000  0.02490000  0.2 -0.018904509
C  C314  1  0.28680000  0.56470000  0.07710000  0.2 -0.1100929002
C  C315  1  0.20770000  0.63990000  0.03860000  0.2 -0.1589337274
C  C316  1  0.19690000  0.58240000  0.01790000  0.2 -0.0785219026
C  C317  1  0.25040000  0.62710000  0.07060000  0.2 -0.0266088266
C  C318  1  0.23710000  0.45520000  0.00380000  0.2 0.0619479444
C  C319  1  0.27370000  0.51040000  0.05410000  0.2 0.0797929214
C  C320  1  0.19370000  0.83010000  0.02170000  0.2 0.510502425
C  C321  1  0.17200000  0.89500000  0.04180000  0.2 -0.5911500184
C  C322  1  0.77140000  0.48390000  0.02490000  0.2 -0.018904509
C  C323  1  0.71320000  0.43530000  0.07710000  0.2 -0.1100929002
C  C324  1  0.79230000  0.36010000  0.03860000  0.2 -0.1589337274
C  C325  1  0.80310000  0.41760000  0.01790000  0.2 -0.0785219026
C  C326  1  0.74960000  0.37290000  0.07060000  0.2 -0.0266088266
C  C327  1  0.76290000  0.54480000  0.00380000  0.2 0.0619479444
C  C328  1  0.72630000  0.48960000  0.05410000  0.2 0.0797929214
C  C329  1  0.80630000  0.16990000  0.02170000  0.2 0.510502425
C  C330  1  0.82800000  0.10500000  0.04180000  0.2 -0.5911500184
C  C331  1  0.98390000  0.72860000  0.52490000  0.2 -0.018904509
C  C332  1  0.93530000  0.78680000  0.57710000  0.2 -0.1100929002
C  C333  1  0.86010000  0.70770000  0.53860000  0.2 -0.1589337274
C  C334  1  0.91760000  0.69690000  0.51790000  0.2 -0.0785219026
C  C335  1  0.87290000  0.75040000  0.57060000  0.2 -0.0266088266
C  C336  1  0.04480000  0.73710000  0.50380000  0.2 0.0619479444
C  C337  1  0.98960000  0.77370000  0.55410000  0.2 0.0797929214
C  C338  1  0.66990000  0.69370000  0.52170000  0.2 0.510502425
C  C339  1  0.60500000  0.67200000  0.54180000  0.2 -0.5911500184
C  C340  1  0.01610000  0.27140000  0.52490000  0.2 -0.018904509
C  C341  1  0.06470000  0.21320000  0.57710000  0.2 -0.1100929002
C  C342  1  0.13990000  0.29230000  0.53860000  0.2 -0.1589337274
C  C343  1  0.08240000  0.30310000  0.51790000  0.2 -0.0785219026
C  C344  1  0.12710000  0.24960000  0.57060000  0.2 -0.0266088266
C  C345  1  0.95520000  0.26290000  0.50380000  0.2 0.0619479444
C  C346  1  0.01040000  0.22630000  0.55410000  0.2 0.0797929214
C  C347  1  0.33010000  0.30630000  0.52170000  0.2 0.510502425
C  C348  1  0.39500000  0.32800000  0.54180000  0.2 -0.5911500184
C  C349  1  0.27140000  0.01610000  0.47510000  0.2 -0.018904509
C  C350  1  0.21320000  0.06470000  0.42290000  0.2 -0.1100929002
C  C351  1  0.29230000  0.13990000  0.46140000  0.2 -0.1589337274
C  C352  1  0.30310000  0.08240000  0.48210000  0.2 -0.0785219026
C  C353  1  0.24960000  0.12710000  0.42940000  0.2 -0.0266088266
C  C354  1  0.26290000  0.95520000  0.49620000  0.2 0.0619479444
C  C355  1  0.22630000  0.01040000  0.44590000  0.2 0.0797929214
C  C356  1  0.30630000  0.33010000  0.47830000  0.2 0.510502425
C  C357  1  0.32800000  0.39500000  0.45820000  0.2 -0.5911500184
C  C358  1  0.72860000  0.98390000  0.47510000  0.2 -0.018904509
C  C359  1  0.78680000  0.93530000  0.42290000  0.2 -0.1100929002
C  C360  1  0.70770000  0.86010000  0.46140000  0.2 -0.1589337274
C  C361  1  0.69690000  0.91760000  0.48210000  0.2 -0.0785219026
C  C362  1  0.75040000  0.87290000  0.42940000  0.2 -0.0266088266
C  C363  1  0.73710000  0.04480000  0.49620000  0.2 0.0619479444
C  C364  1  0.77370000  0.98960000  0.44590000  0.2 0.0797929214
C  C365  1  0.69370000  0.66990000  0.47830000  0.2 0.510502425
C  C366  1  0.67200000  0.60500000  0.45820000  0.2 -0.5911500184
C  C367  1  0.51610000  0.22860000  0.97510000  0.2 -0.018904509
C  C368  1  0.56470000  0.28680000  0.92290000  0.2 -0.1100929002
C  C369  1  0.63990000  0.20770000  0.96140000  0.2 -0.1589337274
C  C370  1  0.58240000  0.19690000  0.98210000  0.2 -0.0785219026
C  C371  1  0.62710000  0.25040000  0.92940000  0.2 -0.0266088266
C  C372  1  0.45520000  0.23710000  0.99620000  0.2 0.0619479444
C  C373  1  0.51040000  0.27370000  0.94590000  0.2 0.0797929214
C  C374  1  0.83010000  0.19370000  0.97830000  0.2 0.510502425
C  C375  1  0.89500000  0.17200000  0.95820000  0.2 -0.5911500184
C  C376  1  0.48390000  0.77140000  0.97510000  0.2 -0.018904509
C  C377  1  0.43530000  0.71320000  0.92290000  0.2 -0.1100929002
C  C378  1  0.36010000  0.79230000  0.96140000  0.2 -0.1589337274
C  C379  1  0.41760000  0.80310000  0.98210000  0.2 -0.0785219026
C  C380  1  0.37290000  0.74960000  0.92940000  0.2 -0.0266088266
C  C381  1  0.54480000  0.76290000  0.99620000  0.2 0.0619479444
C  C382  1  0.48960000  0.72630000  0.94590000  0.2 0.0797929214
C  C383  1  0.16990000  0.80630000  0.97830000  0.2 0.510502425
C  C384  1  0.10500000  0.82800000  0.95820000  0.2 -0.5911500184
C  C385  1  0.19250000  0.48650000  0.03840000  0.31 -0.0087686747
C  C386  1  0.21100000  0.43320000  0.01340000  0.31 0.0619479444
C  C387  1  0.24390000  0.48880000  0.06480000  0.31 0.0515868439
C  C388  1  0.24320000  0.53760000  0.09460000  0.31 -0.063894642
C  C389  1  0.18620000  0.57840000  0.09600000  0.31 -0.0865016491
C  C390  1  0.13390000  0.53030000  0.04160000  0.31 -0.0986531149
C  C391  1  0.12740000  0.57470000  0.07220000  0.31 -0.1765641449
C  C392  1  0.80750000  0.51350000  0.03840000  0.31 -0.0087686747
C  C393  1  0.78900000  0.56680000  0.01340000  0.31 0.0619479444
C  C394  1  0.75610000  0.51120000  0.06480000  0.31 0.0515868439
C  C395  1  0.75680000  0.46240000  0.09460000  0.31 -0.063894642
C  C396  1  0.81380000  0.42160000  0.09600000  0.31 -0.0865016491
C  C397  1  0.86610000  0.46970000  0.04160000  0.31 -0.0986531149
C  C398  1  0.87260000  0.42530000  0.07220000  0.31 -0.1765641449
C  C399  1  0.01350000  0.69250000  0.53840000  0.31 -0.0087686747
C  C400  1  0.06680000  0.71100000  0.51340000  0.31 0.0619479444
C  C401  1  0.01120000  0.74390000  0.56480000  0.31 0.0515868439
C  C402  1  0.96240000  0.74320000  0.59460000  0.31 -0.063894642
C  C403  1  0.92160000  0.68620000  0.59600000  0.31 -0.0865016491
C  C404  1  0.96970000  0.63390000  0.54160000  0.31 -0.0986531149
C  C405  1  0.92530000  0.62740000  0.57220000  0.31 -0.1765641449
C  C406  1  0.98650000  0.30750000  0.53840000  0.31 -0.0087686747
C  C407  1  0.93320000  0.28900000  0.51340000  0.31 0.0619479444
C  C408  1  0.98880000  0.25610000  0.56480000  0.31 0.0515868439
C  C409  1  0.03760000  0.25680000  0.59460000  0.31 -0.063894642
C  C410  1  0.07840000  0.31380000  0.59600000  0.31 -0.0865016491
C  C411  1  0.03030000  0.36610000  0.54160000  0.31 -0.0986531149
C  C412  1  0.07470000  0.37260000  0.57220000  0.31 -0.1765641449
C  C413  1  0.30750000  0.98650000  0.46160000  0.31 -0.0087686747
C  C414  1  0.28900000  0.93320000  0.48660000  0.31 0.0619479444
C  C415  1  0.25610000  0.98880000  0.43520000  0.31 0.0515868439
C  C416  1  0.25680000  0.03760000  0.40540000  0.31 -0.063894642
C  C417  1  0.31380000  0.07840000  0.40400000  0.31 -0.0865016491
C  C418  1  0.36610000  0.03030000  0.45840000  0.31 -0.0986531149
C  C419  1  0.37260000  0.07470000  0.42780000  0.31 -0.1765641449
C  C420  1  0.69250000  0.01350000  0.46160000  0.31 -0.0087686747
C  C421  1  0.71100000  0.06680000  0.48660000  0.31 0.0619479444
C  C422  1  0.74390000  0.01120000  0.43520000  0.31 0.0515868439
C  C423  1  0.74320000  0.96240000  0.40540000  0.31 -0.063894642
C  C424  1  0.68620000  0.92160000  0.40400000  0.31 -0.0865016491
C  C425  1  0.63390000  0.96970000  0.45840000  0.31 -0.0986531149
C  C426  1  0.62740000  0.92530000  0.42780000  0.31 -0.1765641449
C  C427  1  0.48650000  0.19250000  0.96160000  0.31 -0.0087686747
C  C428  1  0.43320000  0.21100000  0.98660000  0.31 0.0619479444
C  C429  1  0.48880000  0.24390000  0.93520000  0.31 0.0515868439
C  C430  1  0.53760000  0.24320000  0.90540000  0.31 -0.063894642
C  C431  1  0.57840000  0.18620000  0.90400000  0.31 -0.0865016491
C  C432  1  0.53030000  0.13390000  0.95840000  0.31 -0.0986531149
C  C433  1  0.57470000  0.12740000  0.92780000  0.31 -0.1765641449
C  C434  1  0.51350000  0.80750000  0.96160000  0.31 -0.0087686747
C  C435  1  0.56680000  0.78900000  0.98660000  0.31 0.0619479444
C  C436  1  0.51120000  0.75610000  0.93520000  0.31 0.0515868439
C  C437  1  0.46240000  0.75680000  0.90540000  0.31 -0.063894642
C  C438  1  0.42160000  0.81380000  0.90400000  0.31 -0.0865016491
C  C439  1  0.46970000  0.86610000  0.95840000  0.31 -0.0986531149
C  C440  1  0.42530000  0.87260000  0.92780000  0.31 -0.1765641449
C  C441  1  0.26350000  0.43960000  0.04240000  0.49 0.1973239007
C  C442  1  0.73650000  0.56040000  0.04240000  0.49 0.1973239007
C  C443  1  0.06040000  0.76350000  0.54240000  0.49 0.1973239007
C  C444  1  0.93960000  0.23650000  0.54240000  0.49 0.1973239007
C  C445  1  0.23650000  0.93960000  0.45760000  0.49 0.1973239007
C  C446  1  0.76350000  0.06040000  0.45760000  0.49 0.1973239007
C  C447  1  0.43960000  0.26350000  0.95760000  0.49 0.1973239007
C  C448  1  0.56040000  0.73650000  0.95760000  0.49 0.1973239007
N  N1  1  0.27090000  0.40710000  0.02300000  0.51 -0.2086061845
N  N2  1  0.29990000  0.44500000  0.05410000  0.51 -0.0743804052
N  N3  1  0.72910000  0.59290000  0.02300000  0.51 -0.2086061845
N  N4  1  0.70010000  0.55500000  0.05410000  0.51 -0.0743804052
N  N5  1  0.09290000  0.77090000  0.52300000  0.51 -0.2086061845
N  N6  1  0.05500000  0.79990000  0.55410000  0.51 -0.0743804052
N  N7  1  0.90710000  0.22910000  0.52300000  0.51 -0.2086061845
N  N8  1  0.94500000  0.20010000  0.55410000  0.51 -0.0743804052
N  N9  1  0.22910000  0.90710000  0.47700000  0.51 -0.2086061845
N  N10  1  0.20010000  0.94500000  0.44590000  0.51 -0.0743804052
N  N11  1  0.77090000  0.09290000  0.47700000  0.51 -0.2086061845
N  N12  1  0.79990000  0.05500000  0.44590000  0.51 -0.0743804052
N  N13  1  0.40710000  0.27090000  0.97700000  0.51 -0.2086061845
N  N14  1  0.44500000  0.29990000  0.94590000  0.51 -0.0743804052
N  N15  1  0.59290000  0.72910000  0.97700000  0.51 -0.2086061845
N  N16  1  0.55500000  0.70010000  0.94590000  0.51 -0.0743804052
O  O1  1  0.43596000  0.47351000  0.07962000  1.0 -0.9464349923
O  O2  1  0.40150000  0.36799000  0.03454000  1.0 -0.8461715532
O  O3  1  0.53941000  0.40982000  0.11706000  1.0 -0.6066844874
O  O4  1  0.44978000  0.34109000  0.10253000  1.0 -0.6066844874
O  O5  1  0.67891000  0.68202000  0.08706000  1.0 -0.5802824153
O  O6  1  0.93862000  0.02493000  0.34593000  1.0 -0.5802824153
O  O7  1  0.84665000  0.07933000  0.37085000  1.0 -0.6258717803
O  O8  1  0.69072000  0.73455000  0.03202000  1.0 -0.5695236502
O  O9  1  0.56404000  0.52649000  0.07962000  1.0 -0.9464349923
O  O10  1  0.59850000  0.63201000  0.03454000  1.0 -0.8461715532
O  O11  1  0.46059000  0.59018000  0.11706000  1.0 -0.6066844874
O  O12  1  0.55022000  0.65891000  0.10253000  1.0 -0.6066844874
O  O13  1  0.32109000  0.31798000  0.08706000  1.0 -0.5802824153
O  O14  1  0.06138000  0.97507000  0.34593000  1.0 -0.5802824153
O  O15  1  0.15335000  0.92067000  0.37085000  1.0 -0.6258717803
O  O16  1  0.30928000  0.26545000  0.03202000  1.0 -0.5695236502
O  O17  1  0.02649000  0.93596000  0.57962000  1.0 -0.9464349923
O  O18  1  0.13201000  0.90150000  0.53454000  1.0 -0.8461715532
O  O19  1  0.09018000  0.03941000  0.61706000  1.0 -0.6066844874
O  O20  1  0.15891000  0.94978000  0.60253000  1.0 -0.6066844874
O  O21  1  0.81798000  0.17891000  0.58706000  1.0 -0.5802824153
O  O22  1  0.47507000  0.43862000  0.84593000  1.0 -0.5802824153
O  O23  1  0.42067000  0.34665000  0.87085000  1.0 -0.6258717803
O  O24  1  0.76545000  0.19072000  0.53202000  1.0 -0.5695236502
O  O25  1  0.97351000  0.06404000  0.57962000  1.0 -0.9464349923
O  O26  1  0.86799000  0.09850000  0.53454000  1.0 -0.8461715532
O  O27  1  0.90982000  0.96059000  0.61706000  1.0 -0.6066844874
O  O28  1  0.84109000  0.05022000  0.60253000  1.0 -0.6047907797
O  O29  1  0.18202000  0.82109000  0.58706000  1.0 -0.5802824153
O  O30  1  0.52493000  0.56138000  0.84593000  1.0 -0.5802824153
O  O31  1  0.57933000  0.65335000  0.87085000  1.0 -0.6258717803
O  O32  1  0.23455000  0.80928000  0.53202000  1.0 -0.5695236502
O  O33  1  0.06404000  0.97351000  0.42038000  1.0 -0.9464349923
O  O34  1  0.09850000  0.86799000  0.46546000  1.0 -0.8461715532
O  O35  1  0.96059000  0.90982000  0.38294000  1.0 -0.6066844874
O  O36  1  0.05022000  0.84109000  0.39747000  1.0 -0.6066844874
O  O37  1  0.82109000  0.18202000  0.41294000  1.0 -0.5802824153
O  O38  1  0.56138000  0.52493000  0.15407000  1.0 -0.5802824153
O  O39  1  0.65335000  0.57933000  0.12915000  1.0 -0.6258717803
O  O40  1  0.80928000  0.23455000  0.46798000  1.0 -0.5695236502
O  O41  1  0.93596000  0.02649000  0.42038000  1.0 -0.9464349923
O  O42  1  0.90150000  0.13201000  0.46546000  1.0 -0.8461715532
O  O43  1  0.03941000  0.09018000  0.38294000  1.0 -0.6066844874
O  O44  1  0.94978000  0.15891000  0.39747000  1.0 -0.6066844874
O  O45  1  0.17891000  0.81798000  0.41294000  1.0 -0.5802824153
O  O46  1  0.43862000  0.47507000  0.15407000  1.0 -0.5802824153
O  O47  1  0.34665000  0.42067000  0.12915000  1.0 -0.6258717803
O  O48  1  0.19072000  0.76545000  0.46798000  1.0 -0.5695236502
O  O49  1  0.47351000  0.43596000  0.92038000  1.0 -0.9464349923
O  O50  1  0.36799000  0.40150000  0.96546000  1.0 -0.8461715532
O  O51  1  0.40982000  0.53941000  0.88294000  1.0 -0.6066844874
O  O52  1  0.34109000  0.44978000  0.89747000  1.0 -0.6066844874
O  O53  1  0.68202000  0.67891000  0.91294000  1.0 -0.5802824153
O  O54  1  0.02493000  0.93862000  0.65407000  1.0 -0.5802824153
O  O55  1  0.07933000  0.84665000  0.62915000  1.0 -0.6258717803
O  O56  1  0.73455000  0.69072000  0.96798000  1.0 -0.5695236502
O  O57  1  0.52649000  0.56404000  0.92038000  1.0 -0.9464349923
O  O58  1  0.63201000  0.59850000  0.96546000  1.0 -0.8461715532
O  O59  1  0.59018000  0.46059000  0.88294000  1.0 -0.6066844874
O  O60  1  0.65891000  0.55022000  0.89747000  1.0 -0.6047907797
O  O61  1  0.31798000  0.32109000  0.91294000  1.0 -0.5802824153
O  O62  1  0.97507000  0.06138000  0.65407000  1.0 -0.5802824153
O  O63  1  0.92067000  0.15335000  0.62915000  1.0 -0.6258717803
O  O64  1  0.26545000  0.30928000  0.96798000  1.0 -0.5695236502
O  O65  1  0.20980000  0.77180000  0.04530000  0.2 -0.5172566501
O  O66  1  0.14390000  0.72830000  0.99120000  0.2 -0.5080897836
O  O67  1  0.79020000  0.22820000  0.04530000  0.2 -0.5172566501
O  O68  1  0.85610000  0.27170000  0.99120000  0.2 -0.5080897836
O  O69  1  0.72820000  0.70980000  0.54530000  0.2 -0.5172566501
O  O70  1  0.77170000  0.64390000  0.49120000  0.2 -0.5080897836
O  O71  1  0.27180000  0.29020000  0.54530000  0.2 -0.5172566501
O  O72  1  0.22830000  0.35610000  0.49120000  0.2 -0.5080897836
O  O73  1  0.29020000  0.27180000  0.45470000  0.2 -0.5172566501
O  O74  1  0.35610000  0.22830000  0.50880000  0.2 -0.5080897836
O  O75  1  0.70980000  0.72820000  0.45470000  0.2 -0.5172566501
O  O76  1  0.64390000  0.77170000  0.50880000  0.2 -0.5080897836
O  O77  1  0.77180000  0.20980000  0.95470000  0.2 -0.5172566501
O  O78  1  0.72830000  0.14390000  0.00880000  0.2 -0.5080897836
O  O79  1  0.22820000  0.79020000  0.95470000  0.2 -0.5172566501
O  O80  1  0.27170000  0.85610000  0.00880000  0.2 -0.5080897836
O  O81  1  0.26990000  0.39790000  0.01670000  0.49 -0.2354367701
O  O82  1  0.30370000  0.45230000  0.06840000  0.49 -0.1169943651
O  O83  1  0.73010000  0.60210000  0.01670000  0.49 -0.2354367701
O  O84  1  0.69630000  0.54770000  0.06840000  0.49 -0.1169943651
O  O85  1  0.10210000  0.76990000  0.51670000  0.49 -0.2348293839
O  O86  1  0.04770000  0.80370000  0.56840000  0.49 -0.1169943651
O  O87  1  0.89790000  0.23010000  0.51670000  0.49 -0.2354367701
O  O88  1  0.95230000  0.19630000  0.56840000  0.49 -0.1169943651
O  O89  1  0.23010000  0.89790000  0.48330000  0.49 -0.2354367701
O  O90  1  0.19630000  0.95230000  0.43160000  0.49 -0.1169943651
O  O91  1  0.76990000  0.10210000  0.48330000  0.49 -0.2354367701
O  O92  1  0.80370000  0.04770000  0.43160000  0.49 -0.1169943651
O  O93  1  0.39790000  0.26990000  0.98330000  0.49 -0.2354367701
O  O94  1  0.45230000  0.30370000  0.93160000  0.49 -0.1169943651
O  O95  1  0.60210000  0.73010000  0.98330000  0.49 -0.2354367701
O  O96  1  0.54770000  0.69630000  0.93160000  0.49 -0.1169943651
O  O97  1  0.00100000  0.60740000  0.05900000  0.15 -0.1169943651
O  O98  1  0.04440000  0.64980000  0.11300000  0.15 -0.1589337274
O  O99  1  0.06640000  0.68250000  0.10100000  0.15 -0.1653437493
O  O100  1  0.01290000  0.63280000  0.04750000  0.15 -0.0865016491
O  O101  1  0.99900000  0.39260000  0.05900000  0.15 -0.1169943651
O  O102  1  0.95560000  0.35020000  0.11300000  0.15 -0.1589337274
O  O103  1  0.93360000  0.31750000  0.10100000  0.15 -0.1653437493
O  O104  1  0.98710000  0.36720000  0.04750000  0.15 -0.0865016491
O  O105  1  0.89260000  0.50100000  0.55900000  0.15 -0.1169943651
O  O106  1  0.85020000  0.54440000  0.61300000  0.15 -0.1589337274
O  O107  1  0.81750000  0.56640000  0.60100000  0.15 -0.1653437493
O  O108  1  0.86720000  0.51290000  0.54750000  0.15 -0.0865016491
O  O109  1  0.10740000  0.49900000  0.55900000  0.15 -0.1169943651
O  O110  1  0.14980000  0.45560000  0.61300000  0.15 -0.1589337274
O  O111  1  0.18250000  0.43360000  0.60100000  0.15 -0.1653437493
O  O112  1  0.13280000  0.48710000  0.54750000  0.15 -0.0865016491
O  O113  1  0.49900000  0.10740000  0.44100000  0.15 -0.1169943651
O  O114  1  0.45560000  0.14980000  0.38700000  0.15 -0.1589337274
O  O115  1  0.43360000  0.18250000  0.39900000  0.15 -0.1653437493
O  O116  1  0.48710000  0.13280000  0.45250000  0.15 -0.0865016491
O  O117  1  0.50100000  0.89260000  0.44100000  0.15 -0.1169943651
O  O118  1  0.54440000  0.85020000  0.38700000  0.15 -0.1589337274
O  O119  1  0.56640000  0.81750000  0.39900000  0.15 -0.1653437493
O  O120  1  0.51290000  0.86720000  0.45250000  0.15 -0.0865016491
O  O121  1  0.60740000  0.00100000  0.94100000  0.15 -0.1169943651
O  O122  1  0.64980000  0.04440000  0.88700000  0.15 -0.1589337274
O  O123  1  0.68250000  0.06640000  0.89900000  0.15 -0.1653437493
O  O124  1  0.63280000  0.01290000  0.95250000  0.15 -0.0865016491
O  O125  1  0.39260000  0.99900000  0.94100000  0.15 -0.1169943651
O  O126  1  0.35020000  0.95560000  0.88700000  0.15 -0.1589337274
O  O127  1  0.31750000  0.93360000  0.89900000  0.15 -0.1653437493
O  O128  1  0.36720000  0.98710000  0.95250000  0.15 -0.0865016491
