# DDEC6 charges by PACMAN v1.1 (https://github.com/mtap-research/PACMAN-charge/)
data_2021[Zn][zst]3[FSR]1
_chemical_formula_sum              "Zn8 H128 C216 N32 O32"
_cell_length_a       8.403
_cell_length_b       24.858
_cell_length_c       33.616
_cell_angle_alpha    90
_cell_angle_beta     90
_cell_angle_gamma    90

_symmetry_space_group_name_H-M    "P 1"
_symmetry_Int_Tables_number       1

loop_
  _symmetry_equiv_pos_as_xyz
  'x, y, z'

loop_
  _atom_site_type_symbol
  _atom_site_label
  _atom_site_symmetry_multiplicity
  _atom_site_fract_x
  _atom_site_fract_y
  _atom_site_fract_z
  _atom_site_occupancy
  _atom_site_charge
Zn  Zn1       1.0  0.01199  0.38715  0.94472  1.0000 0.7656867427
Zn  Zn2       1.0  0.48801  0.88715  0.44472  1.0000 0.7656867427
Zn  Zn3       1.0  0.57808  0.40061  0.05630  1.0000 0.793895058
Zn  Zn4       1.0  0.92192  0.90061  0.55630  1.0000 0.793895058
Zn  Zn5       1.0  0.98801  0.61285  0.44472  1.0000 0.7656867427
Zn  Zn6       1.0  0.51199  0.11285  0.94472  1.0000 0.7656867427
Zn  Zn7       1.0  0.42192  0.59939  0.55630  1.0000 0.793895058
Zn  Zn8       1.0  0.07808  0.09939  0.05630  1.0000 0.793895058
H   H1        1.0  0.58710  0.67730  0.65840  1.0000 0.3009462279
H   H2        1.0  0.91290  0.17730  0.15840  1.0000 0.3009462279
H   H3        1.0  0.36960  0.77460  0.47220  1.0000 0.101036438
H   H4        1.0  0.13040  0.27460  0.97220  1.0000 0.101036438
H   H5        1.0  0.77300  0.65060  0.34810  1.0000 0.2946249467
H   H6        1.0  0.72700  0.15060  0.84810  1.0000 0.2946249467
H   H7        1.0  0.41000  0.68380  0.45930  1.0000 0.1301661313
H   H8        1.0  0.09000  0.18380  0.95930  1.0000 0.1301661313
H   H9        1.0  0.58050  0.66040  0.40740  1.0000 0.1301661313
H   H10       1.0  0.91950  0.16040  0.90740  1.0000 0.1301661313
H   H11       1.0  0.76130  0.67870  0.59630  1.0000 0.1301661313
H   H12       1.0  0.73870  0.17870  0.09630  1.0000 0.1301661313
H   H13       1.0  0.00780  0.53230  0.26360  1.0000 0.1122768125
H   H14       1.0  0.49220  0.03230  0.76360  1.0000 0.1122768125
H   H15       1.0  0.68400  0.96250  0.38200  1.0000 0.101036438
H   H16       1.0  0.81600  0.46250  0.88200  1.0000 0.101036438
H   H17       1.0  0.84550  0.95230  0.32680  1.0000 0.1195148926
H   H18       1.0  0.65450  0.45230  0.82680  1.0000 0.1195148926
H   H19       1.0  0.93710  0.69510  0.54420  1.0000 0.1377020699
H   H20       1.0  0.56290  0.19510  0.04420  1.0000 0.1377020699
H   H21       1.0  0.33650  0.42870  0.19560  1.0000 0.1122768125
H   H22       1.0  0.16350  0.92870  0.69560  1.0000 0.1122768125
H   H23       1.0  0.31240  0.54060  0.10920  1.0000 0.1301661313
H   H24       1.0  0.18760  0.04060  0.60920  1.0000 0.1301661313
H   H25       1.0  0.90380  0.86590  0.30370  1.0000 0.1301661313
H   H26       1.0  0.59620  0.36590  0.80370  1.0000 0.1301661313
H   H27       1.0  0.99800  0.78350  0.52740  1.0000 0.101036438
H   H28       1.0  0.50200  0.28350  0.02740  1.0000 0.101036438
H   H29       1.0  0.40890  0.62600  0.69140  1.0000 0.1122768125
H   H30       1.0  0.09110  0.12600  0.19140  1.0000 0.1122768125
H   H31       1.0  0.31220  0.42770  0.99230  1.0000 0.1195148926
H   H32       1.0  0.18780  0.92770  0.49230  1.0000 0.1195148926
H   H33       1.0  0.36440  0.45570  0.84050  1.0000 0.1122768125
H   H34       1.0  0.13560  0.95570  0.34050  1.0000 0.1122768125
H   H35       1.0  0.23410  0.49090  0.24050  1.0000 0.1195148926
H   H36       1.0  0.26590  0.99090  0.74050  1.0000 0.1195148926
H   H37       1.0  0.20600  0.65810  0.20680  1.0000 0.1195148926
H   H38       1.0  0.29400  0.15810  0.70680  1.0000 0.1195148926
H   H39       1.0  0.54260  0.98060  0.66170  1.0000 0.1195148926
H   H40       1.0  0.95740  0.48060  0.16170  1.0000 0.1195148926
H   H41       1.0  0.08830  0.71510  0.25040  1.0000 0.1301661313
H   H42       1.0  0.41170  0.21510  0.75040  1.0000 0.1301661313
H   H43       1.0  0.47840  0.90010  0.69070  1.0000 0.1301661313
H   H44       1.0  0.02160  0.40010  0.19070  1.0000 0.1301661313
H   H45       1.0  0.41850  0.51900  0.79390  1.0000 0.1195148926
H   H46       1.0  0.08150  0.01900  0.29390  1.0000 0.1195148926
H   H47       1.0  0.12380  0.62140  0.84890  1.0000 0.1195148926
H   H48       1.0  0.37620  0.12140  0.34890  1.0000 0.1195148926
H   H49       1.0  0.88500  0.59160  0.30620  1.0000 0.1122768125
H   H50       1.0  0.61500  0.09160  0.80620  1.0000 0.1122768125
H   H51       1.0  0.70890  0.98350  0.60740  1.0000 0.1195148926
H   H52       1.0  0.79110  0.48350  0.10740  1.0000 0.1195148926
H   H53       1.0  0.07120  0.55780  0.89580  1.0000 0.1301661313
H   H54       1.0  0.42880  0.05780  0.39580  1.0000 0.1301661313
H   H55       1.0  0.19890  0.59910  0.15320  1.0000 0.1122768125
H   H56       1.0  0.30110  0.09910  0.65320  1.0000 0.1122768125
H   H57       1.0  0.38290  0.74560  0.76960  1.0000 0.1301661313
H   H58       1.0  0.11710  0.24560  0.26960  1.0000 0.1301661313
H   H59       1.0  0.81370  0.46880  0.97490  1.0000 0.101036438
H   H60       1.0  0.68630  0.96880  0.47490  1.0000 0.101036438
H   H61       1.0  0.33210  0.56670  0.73900  1.0000 0.1122768125
H   H62       1.0  0.16790  0.06670  0.23900  1.0000 0.1122768125
H   H63       1.0  0.30410  0.68580  0.81770  1.0000 0.1195148926
H   H64       1.0  0.19590  0.18580  0.31770  1.0000 0.1195148926
H   H65       1.0  0.41290  0.32270  0.15840  1.0000 0.3009462279
H   H66       1.0  0.08710  0.82270  0.65840  1.0000 0.3009462279
H   H67       1.0  0.63040  0.22540  0.97220  1.0000 0.101036438
H   H68       1.0  0.86960  0.72540  0.47220  1.0000 0.101036438
H   H69       1.0  0.22700  0.34940  0.84810  1.0000 0.2946249467
H   H70       1.0  0.27300  0.84940  0.34810  1.0000 0.2946249467
H   H71       1.0  0.59000  0.31620  0.95930  1.0000 0.1301661313
H   H72       1.0  0.91000  0.81620  0.45930  1.0000 0.1301661313
H   H73       1.0  0.41950  0.33960  0.90740  1.0000 0.1301661313
H   H74       1.0  0.08050  0.83960  0.40740  1.0000 0.1301661313
H   H75       1.0  0.23870  0.32130  0.09630  1.0000 0.1301661313
H   H76       1.0  0.26130  0.82130  0.59630  1.0000 0.1301661313
H   H77       1.0  0.99220  0.46770  0.76360  1.0000 0.1122768125
H   H78       1.0  0.50780  0.96770  0.26360  1.0000 0.1122768125
H   H79       1.0  0.31600  0.03750  0.88200  1.0000 0.101036438
H   H80       1.0  0.18400  0.53750  0.38200  1.0000 0.101036438
H   H81       1.0  0.15450  0.04770  0.82680  1.0000 0.1195148926
H   H82       1.0  0.34550  0.54770  0.32680  1.0000 0.1195148926
H   H83       1.0  0.06290  0.30490  0.04420  1.0000 0.1377020699
H   H84       1.0  0.43710  0.80490  0.54420  1.0000 0.1377020699
H   H85       1.0  0.66350  0.57130  0.69560  1.0000 0.1122768125
H   H86       1.0  0.83650  0.07130  0.19560  1.0000 0.1122768125
H   H87       1.0  0.68760  0.45940  0.60920  1.0000 0.1301661313
H   H88       1.0  0.81240  0.95940  0.10920  1.0000 0.1301661313
H   H89       1.0  0.09620  0.13410  0.80370  1.0000 0.1301661313
H   H90       1.0  0.40380  0.63410  0.30370  1.0000 0.1301661313
H   H91       1.0  0.00200  0.21650  0.02740  1.0000 0.101036438
H   H92       1.0  0.49800  0.71650  0.52740  1.0000 0.101036438
H   H93       1.0  0.59110  0.37400  0.19140  1.0000 0.1122768125
H   H94       1.0  0.90890  0.87400  0.69140  1.0000 0.1122768125
H   H95       1.0  0.68780  0.57230  0.49230  1.0000 0.1195148926
H   H96       1.0  0.81220  0.07230  0.99230  1.0000 0.1195148926
H   H97       1.0  0.63560  0.54430  0.34050  1.0000 0.1122768125
H   H98       1.0  0.86440  0.04430  0.84050  1.0000 0.1122768125
H   H99       1.0  0.76590  0.50910  0.74050  1.0000 0.1195148926
H   H100      1.0  0.73410  0.00910  0.24050  1.0000 0.1195148926
H   H101      1.0  0.79400  0.34190  0.70680  1.0000 0.1195148926
H   H102      1.0  0.70600  0.84190  0.20680  1.0000 0.1195148926
H   H103      1.0  0.45740  0.01940  0.16170  1.0000 0.1195148926
H   H104      1.0  0.04260  0.51940  0.66170  1.0000 0.1195148926
H   H105      1.0  0.91170  0.28490  0.75040  1.0000 0.1301661313
H   H106      1.0  0.58830  0.78490  0.25040  1.0000 0.1301661313
H   H107      1.0  0.52160  0.09990  0.19070  1.0000 0.1301661313
H   H108      1.0  0.97840  0.59990  0.69070  1.0000 0.1301661313
H   H109      1.0  0.58150  0.48100  0.29390  1.0000 0.1195148926
H   H110      1.0  0.91850  0.98100  0.79390  1.0000 0.1195148926
H   H111      1.0  0.87620  0.37860  0.34890  1.0000 0.1195148926
H   H112      1.0  0.62380  0.87860  0.84890  1.0000 0.1195148926
H   H113      1.0  0.11500  0.40840  0.80620  1.0000 0.1122768125
H   H114      1.0  0.38500  0.90840  0.30620  1.0000 0.1122768125
H   H115      1.0  0.29110  0.01650  0.10740  1.0000 0.1195148926
H   H116      1.0  0.20890  0.51650  0.60740  1.0000 0.1195148926
H   H117      1.0  0.92880  0.44220  0.39580  1.0000 0.1301661313
H   H118      1.0  0.57120  0.94220  0.89580  1.0000 0.1301661313
H   H119      1.0  0.80110  0.40090  0.65320  1.0000 0.1122768125
H   H120      1.0  0.69890  0.90090  0.15320  1.0000 0.1122768125
H   H121      1.0  0.61710  0.25440  0.26960  1.0000 0.1301661313
H   H122      1.0  0.88290  0.75440  0.76960  1.0000 0.1301661313
H   H123      1.0  0.18630  0.53120  0.47490  1.0000 0.101036438
H   H124      1.0  0.31370  0.03120  0.97490  1.0000 0.101036438
H   H125      1.0  0.66790  0.43330  0.23900  1.0000 0.1122768125
H   H126      1.0  0.83210  0.93330  0.73900  1.0000 0.1122768125
H   H127      1.0  0.69590  0.31420  0.31770  1.0000 0.1195148926
H   H128      1.0  0.80410  0.81420  0.81770  1.0000 0.1195148926
C   C1        1.0  0.43830  0.76509  0.45173  1.0000 0.0883809977
C   C2        1.0  0.06170  0.26509  0.95173  1.0000 0.0883809977
C   C3        1.0  0.62310  0.75450  0.64446  1.0000 0.0714556747
C   C4        1.0  0.87690  0.25450  0.14446  1.0000 0.0714556747
C   C5        1.0  0.56620  0.79890  0.66435  1.0000 0.0714556747
C   C6        1.0  0.93380  0.29890  0.16435  1.0000 0.0714556747
C   C7        1.0  0.63630  0.73784  0.39096  1.0000 -0.0109142475
C   C8        1.0  0.86370  0.23784  0.89096  1.0000 -0.0109142475
C   C9        1.0  0.46090  0.71000  0.44416  1.0000 -0.1688338297
C   C10       1.0  0.03910  0.21000  0.94416  1.0000 -0.1688338297
C   C11       1.0  0.60590  0.79130  0.40101  1.0000 0.101036438
C   C12       1.0  0.89410  0.29130  0.90101  1.0000 0.101036438
C   C13       1.0  0.56150  0.69640  0.41345  1.0000 -0.0776438188
C   C14       1.0  0.93850  0.19640  0.91345  1.0000 -0.0776438188
C   C15       1.0  0.67700  0.83579  0.37913  1.0000 0.101036438
C   C16       1.0  0.82300  0.33579  0.87913  1.0000 0.101036438
C   C17       1.0  0.72770  0.75810  0.61024  1.0000 -0.0172076694
C   C18       1.0  0.77230  0.25810  0.11024  1.0000 -0.0172076694
C   C19       1.0  0.74010  0.72980  0.35737  1.0000 0.0714556747
C   C20       1.0  0.75990  0.22980  0.85737  1.0000 0.0714556747
C   C21       1.0  0.16400  0.45420  0.90116  1.0000 0.5463818532
C   C22       1.0  0.33600  0.95420  0.40116  1.0000 0.5463818532
C   C23       1.0  0.88650  0.69790  0.30873  1.0000 0.274152599
C   C24       1.0  0.61350  0.19790  0.80873  1.0000 0.274152599
C   C25       1.0  0.77620  0.82680  0.34637  1.0000 0.0058919645
C   C26       1.0  0.72380  0.32680  0.84637  1.0000 0.0058919645
C   C27       1.0  0.48380  0.72920  0.69644  1.0000 0.2839904648
C   C28       1.0  0.01620  0.22920  0.19644  1.0000 0.2839904648
C   C29       1.0  0.41600  0.69300  0.72613  1.0000 0.0188116838
C   C30       1.0  0.08400  0.19300  0.22613  1.0000 0.0188116838
C   C31       1.0  0.76360  0.81056  0.59726  1.0000 0.101036438
C   C32       1.0  0.73640  0.31056  0.09726  1.0000 0.101036438
C   C33       1.0  0.78920  0.71360  0.58935  1.0000 -0.0688271917
C   C34       1.0  0.71080  0.21360  0.08935  1.0000 -0.0688271917
C   C35       1.0  0.33520  0.47728  0.14751  1.0000 -0.0267162088
C   C36       1.0  0.16480  0.97728  0.64751  1.0000 -0.0267162088
C   C37       1.0  0.20930  0.49870  0.87246  1.0000 -0.0172076694
C   C38       1.0  0.29070  0.99870  0.37246  1.0000 -0.0172076694
C   C39       1.0  0.69720  0.85720  0.61656  1.0000 0.1122768125
C   C40       1.0  0.80280  0.35720  0.11656  1.0000 0.1122768125
C   C41       1.0  0.96830  0.66050  0.28291  1.0000 0.0058919645
C   C42       1.0  0.53170  0.16050  0.78291  1.0000 0.0058919645
C   C43       1.0  0.02400  0.56900  0.26053  1.0000 -0.1579696528
C   C44       1.0  0.47600  0.06900  0.76053  1.0000 -0.1579696528
C   C45       1.0  0.70720  0.92800  0.37309  1.0000 0.0883809977
C   C46       1.0  0.79280  0.42800  0.87309  1.0000 0.0883809977
C   C47       1.0  0.80470  0.92220  0.33966  1.0000 -0.1579696528
C   C48       1.0  0.69530  0.42220  0.83966  1.0000 -0.1579696528
C   C49       1.0  0.89180  0.72340  0.55830  1.0000 -0.1579696528
C   C50       1.0  0.60820  0.22340  0.05830  1.0000 -0.1579696528
C   C51       1.0  0.12290  0.58800  0.23010  1.0000 0.0640592762
C   C52       1.0  0.37710  0.08800  0.73010  1.0000 0.0640592762
C   C53       1.0  0.20020  0.55000  0.20192  1.0000 0.0640592762
C   C54       1.0  0.29980  0.05000  0.70192  1.0000 0.0640592762
C   C55       1.0  0.31030  0.46310  0.18691  1.0000 -0.1117015144
C   C56       1.0  0.18970  0.96310  0.68691  1.0000 -0.1117015144
C   C57       1.0  0.59680  0.85210  0.65019  1.0000 -0.0109142475
C   C58       1.0  0.90320  0.35210  0.15019  1.0000 -0.0109142475
C   C59       1.0  0.40490  0.43720  0.11887  1.0000 0.5463818532
C   C60       1.0  0.09510  0.93720  0.61887  1.0000 0.5463818532
C   C61       1.0  0.29400  0.52980  0.13530  1.0000 -0.1022663138
C   C62       1.0  0.20600  0.02980  0.63530  1.0000 -0.1022663138
C   C63       1.0  0.83970  0.87090  0.32591  1.0000 -0.0776438188
C   C64       1.0  0.66030  0.37090  0.82591  1.0000 -0.0776438188
C   C65       1.0  0.80300  0.77100  0.33566  1.0000 0.0714556747
C   C66       1.0  0.69700  0.27100  0.83566  1.0000 0.0714556747
C   C67       1.0  0.92740  0.77703  0.54815  1.0000 0.101036438
C   C68       1.0  0.57260  0.27703  0.04815  1.0000 0.101036438
C   C69       1.0  0.39240  0.63810  0.71722  1.0000 -0.1394897236
C   C70       1.0  0.10760  0.13810  0.21722  1.0000 -0.1394897236
C   C71       1.0  0.29680  0.39190  0.99951  1.0000 0.4689363983
C   C72       1.0  0.20320  0.89190  0.49951  1.0000 0.4689363983
C   C73       1.0  0.31480  0.48910  0.84218  1.0000 -0.1117015144
C   C74       1.0  0.18520  0.98910  0.34218  1.0000 -0.1117015144
C   C75       1.0  0.24560  0.50050  0.21387  1.0000 -0.1579696528
C   C76       1.0  0.25440  0.00050  0.71387  1.0000 -0.1509347039
C   C77       1.0  0.14230  0.64410  0.22694  1.0000 -0.1509347039
C   C78       1.0  0.35770  0.14410  0.72694  1.0000 -0.1509347039
C   C79       1.0  0.58170  0.94870  0.65103  1.0000 -0.1327139962
C   C80       1.0  0.91830  0.44870  0.15103  1.0000 -0.1327139962
C   C81       1.0  0.06960  0.67840  0.25285  1.0000 -0.1117015144
C   C82       1.0  0.43040  0.17840  0.75285  1.0000 -0.1117015144
C   C83       1.0  0.54120  0.90100  0.66795  1.0000 -0.0776438188
C   C84       1.0  0.95880  0.40100  0.16795  1.0000 -0.0776438188
C   C85       1.0  0.34860  0.52730  0.81450  1.0000 -0.1509347039
C   C86       1.0  0.15140  0.02730  0.31450  1.0000 -0.1509347039
C   C87       1.0  0.17360  0.58810  0.84727  1.0000 -0.1509347039
C   C88       1.0  0.32640  0.08810  0.34727  1.0000 -0.1509347039
C   C89       1.0  0.94970  0.60510  0.28615  1.0000 -0.1394897236
C   C90       1.0  0.55030  0.10510  0.78615  1.0000 -0.1394897236
C   C91       1.0  0.28200  0.57820  0.81599  1.0000 0.080968782
C   C92       1.0  0.21800  0.07820  0.31599  1.0000 0.080968782
C   C93       1.0  0.68070  0.95030  0.61807  1.0000 0.0883809977
C   C94       1.0  0.81930  0.45030  0.11807  1.0000 0.0883809977
C   C95       1.0  0.14030  0.54990  0.87499  1.0000 -0.0945351238
C   C96       1.0  0.35970  0.04990  0.37499  1.0000 -0.0945351238
C   C97       1.0  0.22720  0.56480  0.16174  1.0000 -0.1509347039
C   C98       1.0  0.27280  0.06480  0.66174  1.0000 -0.1509347039
C   C99       1.0  0.37730  0.70920  0.76338  1.0000 -0.1117015144
C   C100      1.0  0.12270  0.20920  0.26338  1.0000 -0.1117015144
C   C101      1.0  0.31900  0.61930  0.78513  1.0000 0.0640592762
C   C102      1.0  0.18100  0.11930  0.28513  1.0000 0.0714556747
C   C103      1.0  0.77590  0.44110  0.99090  1.0000 0.4600491446
C   C104      1.0  0.72410  0.94110  0.49090  1.0000 0.4600491446
C   C105      1.0  0.34610  0.60270  0.74566  1.0000 -0.1394897236
C   C106      1.0  0.15390  0.10270  0.24566  1.0000 -0.1394897236
C   C107      1.0  0.32960  0.67300  0.79250  1.0000 -0.1394897236
C   C108      1.0  0.17040  0.17300  0.29250  1.0000 -0.1394897236
C   C109      1.0  0.56170  0.23491  0.95173  1.0000 0.0883809977
C   C110      1.0  0.93830  0.73491  0.45173  1.0000 0.0883809977
C   C111      1.0  0.37690  0.24550  0.14446  1.0000 0.0714556747
C   C112      1.0  0.12310  0.74550  0.64446  1.0000 0.0714556747
C   C113      1.0  0.43380  0.20110  0.16435  1.0000 0.0714556747
C   C114      1.0  0.06620  0.70110  0.66435  1.0000 0.0714556747
C   C115      1.0  0.36370  0.26216  0.89096  1.0000 -0.0109142475
C   C116      1.0  0.13630  0.76216  0.39096  1.0000 -0.0109142475
C   C117      1.0  0.53910  0.29000  0.94416  1.0000 -0.1688338297
C   C118      1.0  0.96090  0.79000  0.44416  1.0000 -0.1688338297
C   C119      1.0  0.39410  0.20870  0.90101  1.0000 0.101036438
C   C120      1.0  0.10590  0.70870  0.40101  1.0000 0.101036438
C   C121      1.0  0.43850  0.30360  0.91345  1.0000 -0.0776438188
C   C122      1.0  0.06150  0.80360  0.41345  1.0000 -0.0776438188
C   C123      1.0  0.32300  0.16421  0.87913  1.0000 0.101036438
C   C124      1.0  0.17700  0.66421  0.37913  1.0000 0.101036438
C   C125      1.0  0.27230  0.24190  0.11024  1.0000 -0.0172076694
C   C126      1.0  0.22770  0.74190  0.61024  1.0000 -0.0172076694
C   C127      1.0  0.25990  0.27020  0.85737  1.0000 0.0714556747
C   C128      1.0  0.24010  0.77020  0.35737  1.0000 0.0714556747
C   C129      1.0  0.83600  0.54580  0.40116  1.0000 0.5463818532
C   C130      1.0  0.66400  0.04580  0.90116  1.0000 0.5463818532
C   C131      1.0  0.11350  0.30210  0.80873  1.0000 0.274152599
C   C132      1.0  0.38650  0.80210  0.30873  1.0000 0.274152599
C   C133      1.0  0.22380  0.17320  0.84637  1.0000 0.0058919645
C   C134      1.0  0.27620  0.67320  0.34637  1.0000 0.0058919645
C   C135      1.0  0.51620  0.27080  0.19644  1.0000 0.2839904648
C   C136      1.0  0.98380  0.77080  0.69644  1.0000 0.2839904648
C   C137      1.0  0.58400  0.30700  0.22613  1.0000 0.0188116838
C   C138      1.0  0.91600  0.80700  0.72613  1.0000 0.0188116838
C   C139      1.0  0.23640  0.18944  0.09726  1.0000 0.101036438
C   C140      1.0  0.26360  0.68944  0.59726  1.0000 0.101036438
C   C141      1.0  0.21080  0.28640  0.08935  1.0000 -0.0688271917
C   C142      1.0  0.28920  0.78640  0.58935  1.0000 -0.0688271917
C   C143      1.0  0.66480  0.52272  0.64751  1.0000 -0.0267162088
C   C144      1.0  0.83520  0.02272  0.14751  1.0000 -0.0267162088
C   C145      1.0  0.79070  0.50130  0.37246  1.0000 -0.0172076694
C   C146      1.0  0.70930  0.00130  0.87246  1.0000 -0.0172076694
C   C147      1.0  0.30280  0.14280  0.11656  1.0000 0.1122768125
C   C148      1.0  0.19720  0.64280  0.61656  1.0000 0.1122768125
C   C149      1.0  0.03170  0.33950  0.78291  1.0000 0.0058919645
C   C150      1.0  0.46830  0.83950  0.28291  1.0000 0.0058919645
C   C151      1.0  0.97600  0.43100  0.76053  1.0000 -0.1579696528
C   C152      1.0  0.52400  0.93100  0.26053  1.0000 -0.1579696528
C   C153      1.0  0.29280  0.07200  0.87309  1.0000 0.0883809977
C   C154      1.0  0.20720  0.57200  0.37309  1.0000 0.0883809977
C   C155      1.0  0.19530  0.07780  0.83966  1.0000 -0.1579696528
C   C156      1.0  0.30470  0.57780  0.33966  1.0000 -0.1579696528
C   C157      1.0  0.10820  0.27660  0.05830  1.0000 -0.1579696528
C   C158      1.0  0.39180  0.77660  0.55830  1.0000 -0.1579696528
C   C159      1.0  0.87710  0.41200  0.73010  1.0000 0.0640592762
C   C160      1.0  0.62290  0.91200  0.23010  1.0000 0.0640592762
C   C161      1.0  0.79980  0.45000  0.70192  1.0000 0.0640592762
C   C162      1.0  0.70020  0.95000  0.20192  1.0000 0.0640592762
C   C163      1.0  0.68970  0.53690  0.68691  1.0000 -0.1117015144
C   C164      1.0  0.81030  0.03690  0.18691  1.0000 -0.1117015144
C   C165      1.0  0.40320  0.14790  0.15019  1.0000 -0.0109142475
C   C166      1.0  0.09680  0.64790  0.65019  1.0000 -0.0109142475
C   C167      1.0  0.59510  0.56280  0.61887  1.0000 0.5463818532
C   C168      1.0  0.90490  0.06280  0.11887  1.0000 0.5463818532
C   C169      1.0  0.70600  0.47020  0.63530  1.0000 -0.1022663138
C   C170      1.0  0.79400  0.97020  0.13530  1.0000 -0.1022663138
C   C171      1.0  0.16030  0.12910  0.82591  1.0000 -0.0776438188
C   C172      1.0  0.33970  0.62910  0.32591  1.0000 -0.0776438188
C   C173      1.0  0.19700  0.22900  0.83566  1.0000 0.0714556747
C   C174      1.0  0.30300  0.72900  0.33566  1.0000 0.0714556747
C   C175      1.0  0.07260  0.22297  0.04815  1.0000 0.101036438
C   C176      1.0  0.42740  0.72297  0.54815  1.0000 0.101036438
C   C177      1.0  0.60760  0.36190  0.21722  1.0000 -0.1394897236
C   C178      1.0  0.89240  0.86190  0.71722  1.0000 -0.1394897236
C   C179      1.0  0.70320  0.60810  0.49951  1.0000 0.4689363983
C   C180      1.0  0.79680  0.10810  0.99951  1.0000 0.4689363983
C   C181      1.0  0.68520  0.51090  0.34218  1.0000 -0.1117015144
C   C182      1.0  0.81480  0.01090  0.84218  1.0000 -0.1117015144
C   C183      1.0  0.75440  0.49950  0.71387  1.0000 -0.1509347039
C   C184      1.0  0.74560  0.99950  0.21387  1.0000 -0.1579696528
C   C185      1.0  0.85770  0.35590  0.72694  1.0000 -0.1509347039
C   C186      1.0  0.64230  0.85590  0.22694  1.0000 -0.1509347039
C   C187      1.0  0.41830  0.05130  0.15103  1.0000 -0.1327139962
C   C188      1.0  0.08170  0.55130  0.65103  1.0000 -0.1327139962
C   C189      1.0  0.93040  0.32160  0.75285  1.0000 -0.1117015144
C   C190      1.0  0.56960  0.82160  0.25285  1.0000 -0.1117015144
C   C191      1.0  0.45880  0.09900  0.16795  1.0000 -0.0776438188
C   C192      1.0  0.04120  0.59900  0.66795  1.0000 -0.0776438188
C   C193      1.0  0.65140  0.47270  0.31450  1.0000 -0.1509347039
C   C194      1.0  0.84860  0.97270  0.81450  1.0000 -0.1509347039
C   C195      1.0  0.82640  0.41190  0.34727  1.0000 -0.1509347039
C   C196      1.0  0.67360  0.91190  0.84727  1.0000 -0.1509347039
C   C197      1.0  0.05030  0.39490  0.78615  1.0000 -0.1394897236
C   C198      1.0  0.44970  0.89490  0.28615  1.0000 -0.1394897236
C   C199      1.0  0.71800  0.42180  0.31599  1.0000 0.080968782
C   C200      1.0  0.78200  0.92180  0.81599  1.0000 0.080968782
C   C201      1.0  0.31930  0.04970  0.11807  1.0000 0.0883809977
C   C202      1.0  0.18070  0.54970  0.61807  1.0000 0.0883809977
C   C203      1.0  0.85970  0.45010  0.37499  1.0000 -0.0945351238
C   C204      1.0  0.64030  0.95010  0.87499  1.0000 -0.0945351238
C   C205      1.0  0.77280  0.43520  0.66174  1.0000 -0.1509347039
C   C206      1.0  0.72720  0.93520  0.16174  1.0000 -0.1509347039
C   C207      1.0  0.62270  0.29080  0.26338  1.0000 -0.1117015144
C   C208      1.0  0.87730  0.79080  0.76338  1.0000 -0.1117015144
C   C209      1.0  0.68100  0.38070  0.28513  1.0000 0.0640592762
C   C210      1.0  0.81900  0.88070  0.78513  1.0000 0.0640592762
C   C211      1.0  0.22410  0.55890  0.49090  1.0000 0.4600491446
C   C212      1.0  0.27590  0.05890  0.99090  1.0000 0.4600491446
C   C213      1.0  0.65390  0.39730  0.24566  1.0000 -0.1394897236
C   C214      1.0  0.84610  0.89730  0.74566  1.0000 -0.1394897236
C   C215      1.0  0.67040  0.32700  0.29250  1.0000 -0.1394897236
C   C216      1.0  0.82960  0.82700  0.79250  1.0000 -0.1394897236
N   N1        1.0  0.50740  0.80383  0.43183  1.0000 -0.2604973096
N   N2        1.0  0.99260  0.30383  0.93183  1.0000 -0.2604973096
N   N3        1.0  0.57000  0.71038  0.66452  1.0000 -0.2890794057
N   N4        1.0  0.93000  0.21038  0.16452  1.0000 -0.2890794057
N   N5        1.0  0.64620  0.88657  0.39280  1.0000 -0.2729994434
N   N6        1.0  0.85380  0.38657  0.89280  1.0000 -0.2729994434
N   N7        1.0  0.89840  0.75244  0.30486  1.0000 -0.4063531908
N   N8        1.0  0.60160  0.25244  0.80486  1.0000 -0.4063531908
N   N9        1.0  0.86620  0.81735  0.56643  1.0000 -0.2604973096
N   N10       1.0  0.63380  0.31735  0.06643  1.0000 -0.2545045096
N   N11       1.0  0.47970  0.78363  0.69723  1.0000 -0.401553266
N   N12       1.0  0.02030  0.28363  0.19723  1.0000 -0.401553266
N   N13       1.0  0.79360  0.68289  0.34041  1.0000 -0.2965198832
N   N14       1.0  0.70640  0.18289  0.84041  1.0000 -0.2965198832
N   N15       1.0  0.73670  0.90531  0.60116  1.0000 -0.2604973096
N   N16       1.0  0.76330  0.40531  0.10116  1.0000 -0.2604973096
N   N17       1.0  0.49260  0.19617  0.93183  1.0000 -0.2604973096
N   N18       1.0  0.00740  0.69617  0.43183  1.0000 -0.2604973096
N   N19       1.0  0.43000  0.28962  0.16452  1.0000 -0.2890794057
N   N20       1.0  0.07000  0.78962  0.66452  1.0000 -0.2890794057
N   N21       1.0  0.35380  0.11343  0.89280  1.0000 -0.2729994434
N   N22       1.0  0.14620  0.61343  0.39280  1.0000 -0.2729994434
N   N23       1.0  0.10160  0.24756  0.80486  1.0000 -0.4063531908
N   N24       1.0  0.39840  0.74756  0.30486  1.0000 -0.4063531908
N   N25       1.0  0.13380  0.18265  0.06643  1.0000 -0.2545045096
N   N26       1.0  0.36620  0.68265  0.56643  1.0000 -0.2604973096
N   N27       1.0  0.52030  0.21637  0.19723  1.0000 -0.401553266
N   N28       1.0  0.97970  0.71637  0.69723  1.0000 -0.401553266
N   N29       1.0  0.20640  0.31711  0.84041  1.0000 -0.2965198832
N   N30       1.0  0.29360  0.81711  0.34041  1.0000 -0.2965198832
N   N31       1.0  0.26330  0.09469  0.10116  1.0000 -0.2604973096
N   N32       1.0  0.23670  0.59469  0.60116  1.0000 -0.2604973096
O   O1        1.0  0.44830  0.45659  0.08507  1.0000 -0.5403458255
O   O2        1.0  0.05170  0.95659  0.58507  1.0000 -0.5403458255
O   O3        1.0  0.20830  0.40689  0.89387  1.0000 -0.5780620056
O   O4        1.0  0.29170  0.90689  0.39387  1.0000 -0.5780620056
O   O5        1.0  0.07450  0.46681  0.93002  1.0000 -0.5652350861
O   O6        1.0  0.42550  0.96681  0.43002  1.0000 -0.5652350861
O   O7        1.0  0.41600  0.38941  0.12863  1.0000 -0.5633378702
O   O8        1.0  0.08400  0.88941  0.62863  1.0000 -0.5633378702
O   O9        1.0  0.17830  0.37034  0.98640  1.0000 -0.4606797922
O   O10       1.0  0.32170  0.87034  0.48640  1.0000 -0.4606797922
O   O11       1.0  0.83100  0.39664  0.98555  1.0000 -0.4765999916
O   O12       1.0  0.66900  0.89664  0.48555  1.0000 -0.4765999916
O   O13       1.0  0.39690  0.37236  0.02083  1.0000 -0.4606797922
O   O14       1.0  0.10310  0.87236  0.52083  1.0000 -0.4606797922
O   O15       1.0  0.67220  0.45283  0.01621  1.0000 -0.4730656522
O   O16       1.0  0.82780  0.95283  0.51621  1.0000 -0.4730656522
O   O17       1.0  0.55170  0.54341  0.58507  1.0000 -0.5403458255
O   O18       1.0  0.94830  0.04341  0.08507  1.0000 -0.5403458255
O   O19       1.0  0.79170  0.59311  0.39387  1.0000 -0.5780620056
O   O20       1.0  0.70830  0.09311  0.89387  1.0000 -0.5780620056
O   O21       1.0  0.92550  0.53319  0.43002  1.0000 -0.5652350861
O   O22       1.0  0.57450  0.03319  0.93002  1.0000 -0.5652350861
O   O23       1.0  0.58400  0.61059  0.62863  1.0000 -0.5633378702
O   O24       1.0  0.91600  0.11059  0.12863  1.0000 -0.5633378702
O   O25       1.0  0.82170  0.62966  0.48640  1.0000 -0.4606797922
O   O26       1.0  0.67830  0.12966  0.98640  1.0000 -0.4606797922
O   O27       1.0  0.16900  0.60336  0.48555  1.0000 -0.4765999916
O   O28       1.0  0.33100  0.10336  0.98555  1.0000 -0.4765999916
O   O29       1.0  0.60310  0.62764  0.52083  1.0000 -0.4606797922
O   O30       1.0  0.89690  0.12764  0.02083  1.0000 -0.4606797922
O   O31       1.0  0.32780  0.54717  0.51621  1.0000 -0.4730656522
O   O32       1.0  0.17220  0.04717  0.01621  1.0000 -0.4730656522
