# DDEC6 charges by PACMAN v1.1 (https://github.com/mtap-research/PACMAN-charge/)
data_2017[Zn][unc]3[FSR]1
_chemical_formula_sum              "Zn4 H56 C44 N8 O16"
_cell_length_a       12.487
_cell_length_b       12.487
_cell_length_c       9.776
_cell_angle_alpha    90
_cell_angle_beta     90
_cell_angle_gamma    90

_symmetry_space_group_name_H-M    "P 1"
_symmetry_Int_Tables_number       1

loop_
  _symmetry_equiv_pos_as_xyz
  'x, y, z'

loop_
  _atom_site_type_symbol
  _atom_site_label
  _atom_site_symmetry_multiplicity
  _atom_site_fract_x
  _atom_site_fract_y
  _atom_site_fract_z
  _atom_site_occupancy
  _atom_site_charge
Zn  Zn1       1.0  0.98420  0.59020  0.02790  1.0000 0.7434529012
Zn  Zn2       1.0  0.01580  0.40980  0.52790  1.0000 0.7434529012
Zn  Zn3       1.0  0.59020  0.01580  0.77790  1.0000 0.7434529012
Zn  Zn4       1.0  0.40980  0.98420  0.27790  1.0000 0.7434529012
H   H1        1.0  0.57930  0.97240  0.16260  1.0000 0.2546760758
H   H2        1.0  0.42070  0.02760  0.66260  1.0000 0.2546760758
H   H3        1.0  0.97240  0.42070  0.91260  1.0000 0.2546760758
H   H4        1.0  0.02760  0.57930  0.41260  1.0000 0.2546760758
H   H5        1.0  0.83790  0.77460  0.94390  1.0000 0.1114962829
H   H6        1.0  0.16210  0.22540  0.44390  1.0000 0.1114962829
H   H7        1.0  0.77460  0.16210  0.69390  1.0000 0.1114962829
H   H8        1.0  0.22540  0.83790  0.19390  1.0000 0.1114962829
H   H9        1.0  0.68330  0.85540  0.02560  1.0000 0.1385710948
H   H10       1.0  0.31670  0.14460  0.52560  1.0000 0.1385710948
H   H11       1.0  0.85540  0.31670  0.77560  1.0000 0.1385710948
H   H12       1.0  0.14460  0.68330  0.27560  1.0000 0.1385710948
H   H13       1.0  0.68970  0.66340  0.35530  1.0000 0.1385710948
H   H14       1.0  0.31030  0.33660  0.85530  1.0000 0.1385710948
H   H15       1.0  0.66340  0.31030  0.10530  1.0000 0.1385710948
H   H16       1.0  0.33660  0.68970  0.60530  1.0000 0.1385710948
H   H17       1.0  0.84430  0.58260  0.27360  1.0000 0.1114962829
H   H18       1.0  0.15570  0.41740  0.77360  1.0000 0.1114962829
H   H19       1.0  0.58260  0.15570  0.02360  1.0000 0.1114962829
H   H20       1.0  0.41740  0.84430  0.52360  1.0000 0.1114962829
H   H21       1.0  0.51980  0.78690  0.18100  1.0000 0.1385710948
H   H22       1.0  0.48020  0.21310  0.68100  1.0000 0.1385710948
H   H23       1.0  0.78690  0.48020  0.93100  1.0000 0.1385710948
H   H24       1.0  0.21310  0.51980  0.43100  1.0000 0.1385710948
H   H25       1.0  0.56010  0.78380  0.33180  1.0000 0.1239784156
H   H26       1.0  0.43990  0.21620  0.83180  1.0000 0.1239784156
H   H27       1.0  0.78380  0.43990  0.08180  1.0000 0.1239784156
H   H28       1.0  0.21620  0.56010  0.58180  1.0000 0.1239784156
H   H29       1.0  0.69100  0.93010  0.38730  1.0000 0.1114962829
H   H30       1.0  0.30900  0.06990  0.88730  1.0000 0.1114962829
H   H31       1.0  0.93010  0.30900  0.13730  1.0000 0.1114962829
H   H32       1.0  0.06990  0.69100  0.63730  1.0000 0.1114962829
H   H33       1.0  0.74030  0.10320  0.36190  1.0000 0.1297611093
H   H34       1.0  0.25970  0.89680  0.86190  1.0000 0.1297611093
H   H35       1.0  0.10320  0.25970  0.11190  1.0000 0.1297611093
H   H36       1.0  0.89680  0.74030  0.61190  1.0000 0.1297611093
H   H37       1.0  0.73370  0.06060  0.22210  1.0000 0.1297611093
H   H38       1.0  0.26630  0.93940  0.72210  1.0000 0.1297611093
H   H39       1.0  0.06060  0.26630  0.97210  1.0000 0.1297611093
H   H40       1.0  0.93940  0.73370  0.47210  1.0000 0.1297611093
H   H41       1.0  0.64620  0.13540  0.28610  1.0000 0.1385710948
H   H42       1.0  0.35380  0.86460  0.78610  1.0000 0.1385710948
H   H43       1.0  0.13540  0.35380  0.03610  1.0000 0.1385710948
H   H44       1.0  0.86460  0.64620  0.53610  1.0000 0.1385710948
H   H45       1.0  0.32730  0.66990  0.93030  1.0000 0.1500057375
H   H46       1.0  0.67270  0.33010  0.43030  1.0000 0.1500057375
H   H47       1.0  0.66990  0.67270  0.68030  1.0000 0.1500057375
H   H48       1.0  0.33010  0.32730  0.18030  1.0000 0.1500057375
H   H49       1.0  0.25430  0.74490  0.88250  1.0000 0.1297611093
H   H50       1.0  0.74570  0.25510  0.38250  1.0000 0.1297611093
H   H51       1.0  0.74490  0.74570  0.63250  1.0000 0.1297611093
H   H52       1.0  0.25510  0.25430  0.13250  1.0000 0.1297611093
H   H53       1.0  0.28280  0.75180  0.03770  1.0000 0.1500057375
H   H54       1.0  0.71720  0.24820  0.53770  1.0000 0.1500057375
H   H55       1.0  0.75180  0.71720  0.78770  1.0000 0.1500057375
H   H56       1.0  0.24820  0.28280  0.28770  1.0000 0.1500057375
C   C1        1.0  0.80820  0.75230  0.02600  1.0000 0.0831619819
C   C2        1.0  0.19180  0.24770  0.52600  1.0000 0.0831619819
C   C3        1.0  0.75230  0.19180  0.77600  1.0000 0.0831619819
C   C4        1.0  0.24770  0.80820  0.27600  1.0000 0.0831619819
C   C5        1.0  0.71560  0.80070  0.07500  1.0000 -0.1811192128
C   C6        1.0  0.28440  0.19930  0.57500  1.0000 -0.1811192128
C   C7        1.0  0.80070  0.28440  0.82500  1.0000 -0.1811192128
C   C8        1.0  0.19930  0.71560  0.32500  1.0000 -0.1811192128
C   C9        1.0  0.67120  0.76740  0.19900  1.0000 0.1297611093
C   C10       1.0  0.32880  0.23260  0.69900  1.0000 0.1297611093
C   C11       1.0  0.76740  0.32880  0.94900  1.0000 0.1297611093
C   C12       1.0  0.23260  0.67120  0.44900  1.0000 0.1297611093
C   C13       1.0  0.71940  0.68570  0.27300  1.0000 -0.1971969659
C   C14       1.0  0.28060  0.31430  0.77300  1.0000 -0.1971969659
C   C15       1.0  0.68570  0.28060  0.02300  1.0000 -0.1971969659
C   C16       1.0  0.31430  0.71940  0.52300  1.0000 -0.1971969659
C   C17       1.0  0.81200  0.63730  0.22400  1.0000 0.0591150393
C   C18       1.0  0.18800  0.36270  0.72400  1.0000 0.0591150393
C   C19       1.0  0.63730  0.18800  0.97400  1.0000 0.0591150393
C   C20       1.0  0.36270  0.81200  0.47400  1.0000 0.0591150393
C   C21       1.0  0.57600  0.81200  0.24200  1.0000 -0.1811192128
C   C22       1.0  0.42400  0.18800  0.74200  1.0000 -0.1811192128
C   C23       1.0  0.81200  0.42400  0.99200  1.0000 -0.1811192128
C   C24       1.0  0.18800  0.57600  0.49200  1.0000 -0.1811192128
C   C25       1.0  0.64000  0.98500  0.35800  1.0000 0.0218232368
C   C26       1.0  0.36000  0.01500  0.85800  1.0000 0.0218232368
C   C27       1.0  0.98500  0.36000  0.10800  1.0000 0.0218232368
C   C28       1.0  0.01500  0.64000  0.60800  1.0000 0.0218232368
C   C29       1.0  0.69700  0.07900  0.30500  1.0000 -0.4048388953
C   C30       1.0  0.30300  0.92100  0.80500  1.0000 -0.4048388953
C   C31       1.0  0.07900  0.30300  0.05500  1.0000 -0.4048388953
C   C32       1.0  0.92100  0.69700  0.55500  1.0000 -0.4048388953
C   C33       1.0  0.56600  0.01700  0.47600  1.0000 0.5468609576
C   C34       1.0  0.43400  0.98300  0.97600  1.0000 0.5468609576
C   C35       1.0  0.01700  0.43400  0.22600  1.0000 0.5468609576
C   C36       1.0  0.98300  0.56600  0.72600  1.0000 0.5468609576
C   C37       1.0  0.17400  0.64400  0.97330  1.0000 0.6050966029
C   C38       1.0  0.82600  0.35600  0.47330  1.0000 0.6043995266
C   C39       1.0  0.64400  0.82600  0.72330  1.0000 0.6050966029
C   C40       1.0  0.35600  0.17400  0.22330  1.0000 0.6050966029
C   C41       1.0  0.26700  0.71400  0.95400  1.0000 -0.5840541477
C   C42       1.0  0.73300  0.28600  0.45400  1.0000 -0.5840541477
C   C43       1.0  0.71400  0.73300  0.70400  1.0000 -0.5851012225
C   C44       1.0  0.28600  0.26700  0.20400  1.0000 -0.5840541477
N   N1        1.0  0.56310  0.94100  0.25100  1.0000 -0.350316001
N   N2        1.0  0.43690  0.05900  0.75100  1.0000 -0.350316001
N   N3        1.0  0.94100  0.43690  0.00100  1.0000 -0.350316001
N   N4        1.0  0.05900  0.56310  0.50100  1.0000 -0.350316001
N   N5        1.0  0.85640  0.67060  0.10100  1.0000 -0.2818887288
N   N6        1.0  0.14360  0.32940  0.60100  1.0000 -0.2818887288
N   N7        1.0  0.67060  0.14360  0.85100  1.0000 -0.2818887288
N   N8        1.0  0.32940  0.85640  0.35100  1.0000 -0.2818887288
O   O1        1.0  0.62690  0.05250  0.57700  1.0000 -0.5613922085
O   O2        1.0  0.37310  0.94750  0.07700  1.0000 -0.5613922085
O   O3        1.0  0.05250  0.37310  0.32700  1.0000 -0.5613922085
O   O4        1.0  0.94750  0.62690  0.82700  1.0000 -0.5613922085
O   O5        1.0  0.47470  0.02070  0.46900  1.0000 -0.4272868092
O   O6        1.0  0.52530  0.97930  0.96900  1.0000 -0.4272868092
O   O7        1.0  0.02070  0.52530  0.21900  1.0000 -0.4272868092
O   O8        1.0  0.97930  0.47470  0.71900  1.0000 -0.4272868092
O   O9        1.0  0.09880  0.68480  0.02400  1.0000 -0.4506281967
O   O10       1.0  0.90120  0.31520  0.52400  1.0000 -0.4506281967
O   O11       1.0  0.68480  0.90120  0.77400  1.0000 -0.4506281967
O   O12       1.0  0.31520  0.09880  0.27400  1.0000 -0.4506281967
O   O13       1.0  0.17400  0.55100  0.93800  1.0000 -0.5257179345
O   O14       1.0  0.82600  0.44900  0.43800  1.0000 -0.5257179345
O   O15       1.0  0.55100  0.82600  0.68800  1.0000 -0.5257179345
O   O16       1.0  0.44900  0.17400  0.18800  1.0000 -0.5257179345
