# DDEC6 charges by PACMAN v1.1 (https://github.com/mtap-research/PACMAN-charge/)
data_2018[Zn][sql]2[ASR]1
_chemical_formula_sum              "Zn16 H344 C408 N24 O88"
_cell_length_a       18.2686
_cell_length_b       24.5267
_cell_length_c       29.5609
_cell_angle_alpha    90
_cell_angle_beta     90
_cell_angle_gamma    90

_symmetry_space_group_name_H-M    "P 1"
_symmetry_Int_Tables_number       1

loop_
  _symmetry_equiv_pos_as_xyz
  'x, y, z'

loop_
  _atom_site_type_symbol
  _atom_site_label
  _atom_site_symmetry_multiplicity
  _atom_site_fract_x
  _atom_site_fract_y
  _atom_site_fract_z
  _atom_site_occupancy
  _atom_site_charge
Zn  Zn1       1.0  0.32176  0.19538  0.51438  1.0000 0.9572786484
Zn  Zn2       1.0  0.32502  0.19290  0.08805  1.0000 0.9432362709
Zn  Zn3       1.0  0.67824  0.30462  0.01438  1.0000 0.9572786484
Zn  Zn4       1.0  0.67498  0.30710  0.58805  1.0000 0.9432362709
Zn  Zn5       1.0  0.17824  0.19538  0.01438  1.0000 0.9572786484
Zn  Zn6       1.0  0.17498  0.19290  0.58805  1.0000 0.9432362709
Zn  Zn7       1.0  0.82176  0.30462  0.51438  1.0000 0.9572786484
Zn  Zn8       1.0  0.82502  0.30710  0.08805  1.0000 0.9432362709
Zn  Zn9       1.0  0.82176  0.80462  0.98562  1.0000 0.9572786484
Zn  Zn10      1.0  0.82502  0.80710  0.41195  1.0000 0.9432362709
Zn  Zn11      1.0  0.17824  0.69538  0.48562  1.0000 0.9572786484
Zn  Zn12      1.0  0.17498  0.69290  0.91195  1.0000 0.9432362709
Zn  Zn13      1.0  0.67824  0.80462  0.48562  1.0000 0.9572786484
Zn  Zn14      1.0  0.67498  0.80710  0.91195  1.0000 0.9432362709
Zn  Zn15      1.0  0.32176  0.69538  0.98562  1.0000 0.9572786484
Zn  Zn16      1.0  0.32502  0.69290  0.41195  1.0000 0.9432362709
H   H1        1.0  0.55975  0.24701  0.32043  1.0000 0.269559491
H   H2        1.0  0.51356  0.20506  0.30192  1.0000 0.2753864471
H   H3        1.0  0.72562  0.11757  0.23520  1.0000 0.1298250569
H   H4        1.0  0.54670  0.23218  0.50075  1.0000 0.1396206878
H   H5        1.0  0.24064  0.88312  0.54367  1.0000 0.1204817596
H   H6        1.0  0.31587  0.07179  0.29971  1.0000 0.1298250569
H   H7        1.0  0.37374  0.08577  0.26076  1.0000 0.1396206878
H   H8        1.0  0.31185  0.04078  0.25214  1.0000 0.1298250569
H   H9        1.0  0.14464  0.02615  0.57658  1.0000 0.1298250569
H   H10       1.0  0.34218  0.92946  0.51693  1.0000 0.1204817596
H   H11       1.0  0.29289  0.99749  0.44021  1.0000 0.1204817596
H   H12       1.0  0.50092  0.07421  0.28038  1.0000 0.1023330301
H   H13       1.0  0.52217  0.09091  0.33091  1.0000 0.0918784267
H   H14       1.0  0.71379  0.21483  0.19308  1.0000 0.1298250569
H   H15       1.0  0.52276  0.06624  0.39621  1.0000 0.1470008536
H   H16       1.0  0.36893  0.04699  0.60193  1.0000 0.1204817596
H   H17       1.0  0.61880  0.18529  0.57846  1.0000 0.1102642676
H   H18       1.0  0.65010  0.19554  0.62821  1.0000 0.1023330301
H   H19       1.0  0.51273  0.15707  0.22241  1.0000 0.1102642676
H   H20       1.0  0.82162  0.07168  0.27696  1.0000 0.1298250569
H   H21       1.0  0.82933  0.08260  0.33012  1.0000 0.1396206878
H   H22       1.0  0.77542  0.03596  0.31214  1.0000 0.1396206878
H   H23       1.0  0.57961  0.12313  0.53770  1.0000 0.1470008536
H   H24       1.0  0.72339  0.11588  0.62197  1.0000 0.1298250569
H   H25       1.0  0.69198  0.10552  0.57217  1.0000 0.1204817596
H   H26       1.0  0.74228  0.15761  0.58202  1.0000 0.1470008536
H   H27       1.0  0.72153  0.12315  0.37078  1.0000 0.1204817596
H   H28       1.0  0.14197  0.93081  0.57425  1.0000 0.1204817596
H   H29       1.0  0.54448  0.09955  0.68350  1.0000 0.0845930967
H   H30       1.0  0.62415  0.12646  0.68645  1.0000 0.1023330301
H   H31       1.0  0.71179  0.21265  0.41055  1.0000 0.1298250569
H   H32       1.0  0.55040  0.23218  0.10197  1.0000 0.1396206878
H   H33       1.0  0.53971  0.17764  0.72871  1.0000 0.1396206878
H   H34       1.0  0.57130  0.21379  0.68809  1.0000 0.1396206878
H   H35       1.0  0.49145  0.18735  0.68425  1.0000 0.1396206878
H   H36       1.0  0.50551  0.17098  0.37626  1.0000 0.1102642676
H   H37       1.0  0.45148  0.09004  0.64768  1.0000 0.1298250569
H   H38       1.0  0.42437  0.99808  0.26726  1.0000 0.1023330301
H   H39       1.0  0.36557  0.98296  0.30530  1.0000 0.0918784267
H   H40       1.0  0.32587  0.99887  0.36498  1.0000 0.1204817596
H   H41       1.0  0.59068  0.01348  0.33882  1.0000 0.1298250569
H   H42       1.0  0.56582  0.99282  0.28982  1.0000 0.1396206878
H   H43       1.0  0.61671  0.04563  0.29453  1.0000 0.1396206878
H   H44       1.0  0.44025  0.25299  0.82043  1.0000 0.269559491
H   H45       1.0  0.48644  0.29494  0.80192  1.0000 0.2753864471
H   H46       1.0  0.27438  0.38243  0.73520  1.0000 0.1298250569
H   H47       1.0  0.45330  0.26782  0.00075  1.0000 0.1396206878
H   H48       1.0  0.75936  0.61688  0.04367  1.0000 0.1204817596
H   H49       1.0  0.68413  0.42821  0.79971  1.0000 0.1298250569
H   H50       1.0  0.62626  0.41423  0.76076  1.0000 0.1396206878
H   H51       1.0  0.68815  0.45922  0.75214  1.0000 0.1298250569
H   H52       1.0  0.85536  0.47385  0.07658  1.0000 0.1298250569
H   H53       1.0  0.65782  0.57054  0.01693  1.0000 0.1204817596
H   H54       1.0  0.70711  0.50251  0.94021  1.0000 0.1204817596
H   H55       1.0  0.49908  0.42579  0.78038  1.0000 0.1023330301
H   H56       1.0  0.47783  0.40909  0.83091  1.0000 0.0918784267
H   H57       1.0  0.28621  0.28517  0.69308  1.0000 0.1298250569
H   H58       1.0  0.47724  0.43376  0.89621  1.0000 0.1470008536
H   H59       1.0  0.63107  0.45301  0.10193  1.0000 0.1204817596
H   H60       1.0  0.38120  0.31471  0.07846  1.0000 0.1102642676
H   H61       1.0  0.34990  0.30446  0.12821  1.0000 0.1023330301
H   H62       1.0  0.48727  0.34293  0.72241  1.0000 0.1102642676
H   H63       1.0  0.17838  0.42832  0.77696  1.0000 0.1298250569
H   H64       1.0  0.17067  0.41740  0.83012  1.0000 0.1396206878
H   H65       1.0  0.22458  0.46404  0.81214  1.0000 0.1396206878
H   H66       1.0  0.42039  0.37687  0.03770  1.0000 0.1470008536
H   H67       1.0  0.27661  0.38412  0.12197  1.0000 0.1298250569
H   H68       1.0  0.30802  0.39448  0.07217  1.0000 0.1204817596
H   H69       1.0  0.25772  0.34239  0.08202  1.0000 0.1470008536
H   H70       1.0  0.27847  0.37685  0.87078  1.0000 0.1204817596
H   H71       1.0  0.85803  0.56919  0.07425  1.0000 0.1204817596
H   H72       1.0  0.45552  0.40045  0.18350  1.0000 0.0845930967
H   H73       1.0  0.37585  0.37354  0.18645  1.0000 0.1023330301
H   H74       1.0  0.28821  0.28735  0.91055  1.0000 0.1298250569
H   H75       1.0  0.44960  0.26782  0.60197  1.0000 0.1396206878
H   H76       1.0  0.46029  0.32236  0.22871  1.0000 0.1298250569
H   H77       1.0  0.42870  0.28621  0.18809  1.0000 0.1396206878
H   H78       1.0  0.50855  0.31265  0.18425  1.0000 0.1396206878
H   H79       1.0  0.49449  0.32902  0.87626  1.0000 0.1102642676
H   H80       1.0  0.54852  0.40996  0.14768  1.0000 0.1298250569
H   H81       1.0  0.57563  0.50192  0.76726  1.0000 0.1023330301
H   H82       1.0  0.63443  0.51704  0.80530  1.0000 0.0918784267
H   H83       1.0  0.67413  0.50113  0.86498  1.0000 0.1204817596
H   H84       1.0  0.40932  0.48652  0.83882  1.0000 0.1298250569
H   H85       1.0  0.43418  0.50718  0.78982  1.0000 0.1396206878
H   H86       1.0  0.38329  0.45437  0.79453  1.0000 0.1396206878
H   H87       1.0  0.94025  0.24701  0.82043  1.0000 0.269559491
H   H88       1.0  0.98644  0.20506  0.80192  1.0000 0.2753864471
H   H89       1.0  0.77438  0.11757  0.73520  1.0000 0.1298250569
H   H90       1.0  0.95330  0.23218  0.00075  1.0000 0.1396206878
H   H91       1.0  0.25936  0.88312  0.04367  1.0000 0.1204817596
H   H92       1.0  0.18413  0.07179  0.79971  1.0000 0.1298250569
H   H93       1.0  0.12626  0.08577  0.76076  1.0000 0.1396206878
H   H94       1.0  0.18815  0.04078  0.75214  1.0000 0.1298250569
H   H95       1.0  0.35536  0.02615  0.07658  1.0000 0.1298250569
H   H96       1.0  0.15782  0.92946  0.01693  1.0000 0.1204817596
H   H97       1.0  0.20711  0.99749  0.94021  1.0000 0.1204817596
H   H98       1.0  0.99908  0.07421  0.78038  1.0000 0.1023330301
H   H99       1.0  0.97783  0.09091  0.83091  1.0000 0.0918784267
H   H100      1.0  0.78621  0.21483  0.69308  1.0000 0.1298250569
H   H101      1.0  0.97724  0.06624  0.89621  1.0000 0.1470008536
H   H102      1.0  0.13107  0.04699  0.10193  1.0000 0.1204817596
H   H103      1.0  0.88120  0.18529  0.07846  1.0000 0.1102642676
H   H104      1.0  0.84990  0.19554  0.12821  1.0000 0.1023330301
H   H105      1.0  0.98727  0.15707  0.72241  1.0000 0.1102642676
H   H106      1.0  0.67838  0.07168  0.77696  1.0000 0.1298250569
H   H107      1.0  0.67067  0.08260  0.83012  1.0000 0.1396206878
H   H108      1.0  0.72458  0.03596  0.81214  1.0000 0.1396206878
H   H109      1.0  0.92039  0.12313  0.03770  1.0000 0.1470008536
H   H110      1.0  0.77661  0.11588  0.12197  1.0000 0.1298250569
H   H111      1.0  0.80802  0.10552  0.07217  1.0000 0.1204817596
H   H112      1.0  0.75772  0.15761  0.08202  1.0000 0.1470008536
H   H113      1.0  0.77847  0.12315  0.87078  1.0000 0.1204817596
H   H114      1.0  0.35803  0.93081  0.07425  1.0000 0.1204817596
H   H115      1.0  0.95552  0.09955  0.18350  1.0000 0.0845930967
H   H116      1.0  0.87585  0.12646  0.18645  1.0000 0.1023330301
H   H117      1.0  0.78821  0.21265  0.91055  1.0000 0.1298250569
H   H118      1.0  0.94960  0.23218  0.60197  1.0000 0.1396206878
H   H119      1.0  0.96029  0.17764  0.22871  1.0000 0.1298250569
H   H120      1.0  0.92870  0.21379  0.18809  1.0000 0.1396206878
H   H121      1.0  0.00855  0.18735  0.18425  1.0000 0.1396206878
H   H122      1.0  0.99449  0.17098  0.87626  1.0000 0.1102642676
H   H123      1.0  0.04852  0.09004  0.14768  1.0000 0.1298250569
H   H124      1.0  0.07563  0.99808  0.76726  1.0000 0.1023330301
H   H125      1.0  0.13443  0.98296  0.80530  1.0000 0.0918784267
H   H126      1.0  0.17413  0.99887  0.86498  1.0000 0.1204817596
H   H127      1.0  0.90932  0.01348  0.83882  1.0000 0.1298250569
H   H128      1.0  0.93418  0.99282  0.78982  1.0000 0.1396206878
H   H129      1.0  0.88329  0.04563  0.79453  1.0000 0.1396206878
H   H130      1.0  0.05975  0.25299  0.32043  1.0000 0.269559491
H   H131      1.0  0.01356  0.29494  0.30192  1.0000 0.2753864471
H   H132      1.0  0.22562  0.38243  0.23520  1.0000 0.1298250569
H   H133      1.0  0.04670  0.26782  0.50075  1.0000 0.1396206878
H   H134      1.0  0.74064  0.61688  0.54367  1.0000 0.1204817596
H   H135      1.0  0.81587  0.42821  0.29971  1.0000 0.1298250569
H   H136      1.0  0.87374  0.41423  0.26076  1.0000 0.1396206878
H   H137      1.0  0.81185  0.45922  0.25214  1.0000 0.1298250569
H   H138      1.0  0.64464  0.47385  0.57658  1.0000 0.1298250569
H   H139      1.0  0.84218  0.57054  0.51693  1.0000 0.1204817596
H   H140      1.0  0.79289  0.50251  0.44021  1.0000 0.1204817596
H   H141      1.0  0.00092  0.42579  0.28038  1.0000 0.1023330301
H   H142      1.0  0.02217  0.40909  0.33091  1.0000 0.0918784267
H   H143      1.0  0.21379  0.28517  0.19308  1.0000 0.1298250569
H   H144      1.0  0.02276  0.43376  0.39621  1.0000 0.1470008536
H   H145      1.0  0.86893  0.45301  0.60193  1.0000 0.1204817596
H   H146      1.0  0.11880  0.31471  0.57846  1.0000 0.1102642676
H   H147      1.0  0.15010  0.30446  0.62821  1.0000 0.1023330301
H   H148      1.0  0.01273  0.34293  0.22241  1.0000 0.1102642676
H   H149      1.0  0.32162  0.42832  0.27696  1.0000 0.1298250569
H   H150      1.0  0.32933  0.41740  0.33012  1.0000 0.1396206878
H   H151      1.0  0.27542  0.46404  0.31214  1.0000 0.1396206878
H   H152      1.0  0.07961  0.37687  0.53770  1.0000 0.1470008536
H   H153      1.0  0.22339  0.38412  0.62197  1.0000 0.1298250569
H   H154      1.0  0.19198  0.39448  0.57217  1.0000 0.1204817596
H   H155      1.0  0.24228  0.34239  0.58202  1.0000 0.1470008536
H   H156      1.0  0.22153  0.37685  0.37078  1.0000 0.1204817596
H   H157      1.0  0.64197  0.56919  0.57425  1.0000 0.1204817596
H   H158      1.0  0.04448  0.40045  0.68350  1.0000 0.0845930967
H   H159      1.0  0.12415  0.37354  0.68645  1.0000 0.1023330301
H   H160      1.0  0.21179  0.28735  0.41055  1.0000 0.1298250569
H   H161      1.0  0.05040  0.26782  0.10197  1.0000 0.1396206878
H   H162      1.0  0.03971  0.32236  0.72871  1.0000 0.1396206878
H   H163      1.0  0.07130  0.28621  0.68809  1.0000 0.1396206878
H   H164      1.0  0.99145  0.31265  0.68425  1.0000 0.1396206878
H   H165      1.0  0.00551  0.32902  0.37626  1.0000 0.1102642676
H   H166      1.0  0.95148  0.40996  0.64768  1.0000 0.1298250569
H   H167      1.0  0.92437  0.50192  0.26726  1.0000 0.1023330301
H   H168      1.0  0.86557  0.51704  0.30530  1.0000 0.0918784267
H   H169      1.0  0.82587  0.50113  0.36498  1.0000 0.1204817596
H   H170      1.0  0.09068  0.48652  0.33882  1.0000 0.1298250569
H   H171      1.0  0.06582  0.50718  0.28982  1.0000 0.1396206878
H   H172      1.0  0.11671  0.45437  0.29453  1.0000 0.1396206878
H   H173      1.0  0.05975  0.75299  0.17957  1.0000 0.269559491
H   H174      1.0  0.01356  0.79494  0.19808  1.0000 0.2753864471
H   H175      1.0  0.22562  0.88243  0.26480  1.0000 0.1298250569
H   H176      1.0  0.04670  0.76782  0.99925  1.0000 0.1396206878
H   H177      1.0  0.74064  0.11688  0.95633  1.0000 0.1204817596
H   H178      1.0  0.81587  0.92821  0.20029  1.0000 0.1298250569
H   H179      1.0  0.87374  0.91423  0.23924  1.0000 0.1396206878
H   H180      1.0  0.81185  0.95922  0.24786  1.0000 0.1298250569
H   H181      1.0  0.64464  0.97385  0.92342  1.0000 0.1298250569
H   H182      1.0  0.84218  0.07054  0.98307  1.0000 0.1204817596
H   H183      1.0  0.79289  0.00251  0.05979  1.0000 0.1204817596
H   H184      1.0  0.00092  0.92579  0.21962  1.0000 0.1023330301
H   H185      1.0  0.02217  0.90909  0.16909  1.0000 0.0918784267
H   H186      1.0  0.21379  0.78517  0.30692  1.0000 0.1298250569
H   H187      1.0  0.02276  0.93376  0.10379  1.0000 0.1470008536
H   H188      1.0  0.86893  0.95301  0.89807  1.0000 0.1204817596
H   H189      1.0  0.11880  0.81471  0.92154  1.0000 0.1023330301
H   H190      1.0  0.15010  0.80446  0.87179  1.0000 0.1023330301
H   H191      1.0  0.01273  0.84293  0.27759  1.0000 0.1204817596
H   H192      1.0  0.32162  0.92832  0.22304  1.0000 0.1298250569
H   H193      1.0  0.32933  0.91740  0.16988  1.0000 0.1396206878
H   H194      1.0  0.27542  0.96404  0.18786  1.0000 0.1396206878
H   H195      1.0  0.07961  0.87687  0.96230  1.0000 0.1470008536
H   H196      1.0  0.22339  0.88412  0.87803  1.0000 0.1298250569
H   H197      1.0  0.19198  0.89448  0.92783  1.0000 0.1204817596
H   H198      1.0  0.24228  0.84239  0.91798  1.0000 0.1470008536
H   H199      1.0  0.22153  0.87685  0.12922  1.0000 0.1204817596
H   H200      1.0  0.64197  0.06919  0.92575  1.0000 0.1204817596
H   H201      1.0  0.04448  0.90045  0.81650  1.0000 0.0845930967
H   H202      1.0  0.12415  0.87354  0.81355  1.0000 0.1023330301
H   H203      1.0  0.21179  0.78735  0.08945  1.0000 0.1298250569
H   H204      1.0  0.05040  0.76782  0.39803  1.0000 0.1396206878
H   H205      1.0  0.03971  0.82236  0.77129  1.0000 0.1396206878
H   H206      1.0  0.07130  0.78621  0.81191  1.0000 0.1396206878
H   H207      1.0  0.99145  0.81265  0.81575  1.0000 0.1396206878
H   H208      1.0  0.00551  0.82902  0.12374  1.0000 0.1102642676
H   H209      1.0  0.95148  0.90996  0.85232  1.0000 0.1298250569
H   H210      1.0  0.92437  0.00192  0.23274  1.0000 0.1023330301
H   H211      1.0  0.86557  0.01704  0.19470  1.0000 0.0918784267
H   H212      1.0  0.82587  0.00113  0.13502  1.0000 0.1204817596
H   H213      1.0  0.09068  0.98652  0.16118  1.0000 0.1298250569
H   H214      1.0  0.06582  0.00718  0.21018  1.0000 0.1396206878
H   H215      1.0  0.11671  0.95437  0.20547  1.0000 0.1396206878
H   H216      1.0  0.94025  0.74701  0.67957  1.0000 0.269559491
H   H217      1.0  0.98644  0.70506  0.69808  1.0000 0.269559491
H   H218      1.0  0.77438  0.61757  0.76480  1.0000 0.1298250569
H   H219      1.0  0.95330  0.73218  0.49925  1.0000 0.1396206878
H   H220      1.0  0.25936  0.38312  0.45633  1.0000 0.1204817596
H   H221      1.0  0.18413  0.57179  0.70029  1.0000 0.1298250569
H   H222      1.0  0.12626  0.58577  0.73924  1.0000 0.1396206878
H   H223      1.0  0.18815  0.54078  0.74786  1.0000 0.1298250569
H   H224      1.0  0.35536  0.52615  0.42342  1.0000 0.1298250569
H   H225      1.0  0.15782  0.42946  0.48307  1.0000 0.1204817596
H   H226      1.0  0.20711  0.49749  0.55979  1.0000 0.1204817596
H   H227      1.0  0.99908  0.57421  0.71962  1.0000 0.1023330301
H   H228      1.0  0.97783  0.59091  0.66909  1.0000 0.0918784267
H   H229      1.0  0.78621  0.71483  0.80692  1.0000 0.1298250569
H   H230      1.0  0.97724  0.56624  0.60379  1.0000 0.1470008536
H   H231      1.0  0.13107  0.54699  0.39807  1.0000 0.1204817596
H   H232      1.0  0.88120  0.68529  0.42154  1.0000 0.1023330301
H   H233      1.0  0.84990  0.69554  0.37179  1.0000 0.1023330301
H   H234      1.0  0.98727  0.65707  0.77759  1.0000 0.1102642676
H   H235      1.0  0.67838  0.57168  0.72304  1.0000 0.1298250569
H   H236      1.0  0.67067  0.58260  0.66988  1.0000 0.1396206878
H   H237      1.0  0.72458  0.53596  0.68786  1.0000 0.1396206878
H   H238      1.0  0.92039  0.62313  0.46230  1.0000 0.1470008536
H   H239      1.0  0.77661  0.61588  0.37803  1.0000 0.1298250569
H   H240      1.0  0.80802  0.60552  0.42783  1.0000 0.1204817596
H   H241      1.0  0.75772  0.65761  0.41798  1.0000 0.1470008536
H   H242      1.0  0.77847  0.62315  0.62922  1.0000 0.1204817596
H   H243      1.0  0.35803  0.43081  0.42575  1.0000 0.1204817596
H   H244      1.0  0.95552  0.59955  0.31650  1.0000 0.0845930967
H   H245      1.0  0.87585  0.62646  0.31355  1.0000 0.1023330301
H   H246      1.0  0.78821  0.71265  0.58945  1.0000 0.1298250569
H   H247      1.0  0.94960  0.73218  0.89803  1.0000 0.1396206878
H   H248      1.0  0.96029  0.67764  0.27129  1.0000 0.1396206878
H   H249      1.0  0.92870  0.71379  0.31191  1.0000 0.1396206878
H   H250      1.0  0.00855  0.68735  0.31575  1.0000 0.1396206878
H   H251      1.0  0.99449  0.67098  0.62374  1.0000 0.1102642676
H   H252      1.0  0.04852  0.59004  0.35232  1.0000 0.1298250569
H   H253      1.0  0.07563  0.49808  0.73274  1.0000 0.1023330301
H   H254      1.0  0.13443  0.48296  0.69470  1.0000 0.0918784267
H   H255      1.0  0.17413  0.49887  0.63502  1.0000 0.1204817596
H   H256      1.0  0.90932  0.51348  0.66118  1.0000 0.1298250569
H   H257      1.0  0.93418  0.49282  0.71018  1.0000 0.1396206878
H   H258      1.0  0.88329  0.54563  0.70547  1.0000 0.1396206878
H   H259      1.0  0.44025  0.75299  0.67957  1.0000 0.269559491
H   H260      1.0  0.48644  0.79494  0.69808  1.0000 0.2753864471
H   H261      1.0  0.27438  0.88243  0.76480  1.0000 0.1298250569
H   H262      1.0  0.45330  0.76782  0.49925  1.0000 0.1396206878
H   H263      1.0  0.75936  0.11688  0.45633  1.0000 0.1204817596
H   H264      1.0  0.68413  0.92821  0.70029  1.0000 0.1298250569
H   H265      1.0  0.62626  0.91423  0.73924  1.0000 0.1396206878
H   H266      1.0  0.68815  0.95922  0.74786  1.0000 0.1298250569
H   H267      1.0  0.85536  0.97385  0.42342  1.0000 0.1298250569
H   H268      1.0  0.65782  0.07054  0.48307  1.0000 0.1204817596
H   H269      1.0  0.70711  0.00251  0.55979  1.0000 0.1204817596
H   H270      1.0  0.49908  0.92579  0.71962  1.0000 0.1023330301
H   H271      1.0  0.47783  0.90909  0.66909  1.0000 0.0918784267
H   H272      1.0  0.28621  0.78517  0.80692  1.0000 0.1298250569
H   H273      1.0  0.47724  0.93376  0.60379  1.0000 0.1470008536
H   H274      1.0  0.63107  0.95301  0.39807  1.0000 0.1204817596
H   H275      1.0  0.38120  0.81471  0.42154  1.0000 0.1023330301
H   H276      1.0  0.34990  0.80446  0.37179  1.0000 0.1023330301
H   H277      1.0  0.48727  0.84293  0.77759  1.0000 0.1102642676
H   H278      1.0  0.17838  0.92832  0.72304  1.0000 0.1298250569
H   H279      1.0  0.17067  0.91740  0.66988  1.0000 0.1396206878
H   H280      1.0  0.22458  0.96404  0.68786  1.0000 0.1396206878
H   H281      1.0  0.42039  0.87687  0.46230  1.0000 0.1470008536
H   H282      1.0  0.27661  0.88412  0.37803  1.0000 0.1298250569
H   H283      1.0  0.30802  0.89448  0.42783  1.0000 0.1204817596
H   H284      1.0  0.25772  0.84239  0.41798  1.0000 0.1470008536
H   H285      1.0  0.27847  0.87685  0.62922  1.0000 0.1204817596
H   H286      1.0  0.85803  0.06919  0.42575  1.0000 0.1204817596
H   H287      1.0  0.45552  0.90045  0.31650  1.0000 0.0845930967
H   H288      1.0  0.37585  0.87354  0.31355  1.0000 0.1023330301
H   H289      1.0  0.28821  0.78735  0.58945  1.0000 0.1298250569
H   H290      1.0  0.44960  0.76782  0.89803  1.0000 0.1396206878
H   H291      1.0  0.46029  0.82236  0.27129  1.0000 0.1396206878
H   H292      1.0  0.42870  0.78621  0.31191  1.0000 0.1396206878
H   H293      1.0  0.50855  0.81265  0.31575  1.0000 0.1396206878
H   H294      1.0  0.49449  0.82902  0.62374  1.0000 0.1102642676
H   H295      1.0  0.54852  0.90996  0.35232  1.0000 0.1298250569
H   H296      1.0  0.57563  0.00192  0.73274  1.0000 0.1023330301
H   H297      1.0  0.63443  0.01704  0.69470  1.0000 0.0918784267
H   H298      1.0  0.67413  0.00113  0.63502  1.0000 0.1204817596
H   H299      1.0  0.40932  0.98652  0.66118  1.0000 0.1298250569
H   H300      1.0  0.43418  0.00718  0.71018  1.0000 0.1396206878
H   H301      1.0  0.38329  0.95437  0.70547  1.0000 0.1396206878
H   H302      1.0  0.55975  0.74701  0.17957  1.0000 0.269559491
H   H303      1.0  0.51356  0.70506  0.19808  1.0000 0.269559491
H   H304      1.0  0.72562  0.61757  0.26480  1.0000 0.1298250569
H   H305      1.0  0.54670  0.73218  0.99925  1.0000 0.1396206878
H   H306      1.0  0.24064  0.38312  0.95633  1.0000 0.1204817596
H   H307      1.0  0.31587  0.57179  0.20029  1.0000 0.1298250569
H   H308      1.0  0.37374  0.58577  0.23924  1.0000 0.1396206878
H   H309      1.0  0.31185  0.54078  0.24786  1.0000 0.1298250569
H   H310      1.0  0.14464  0.52615  0.92342  1.0000 0.1298250569
H   H311      1.0  0.34218  0.42946  0.98307  1.0000 0.1204817596
H   H312      1.0  0.29289  0.49749  0.05979  1.0000 0.1204817596
H   H313      1.0  0.50092  0.57421  0.21962  1.0000 0.1023330301
H   H314      1.0  0.52217  0.59091  0.16909  1.0000 0.0918784267
H   H315      1.0  0.71379  0.71483  0.30692  1.0000 0.1298250569
H   H316      1.0  0.52276  0.56624  0.10379  1.0000 0.1470008536
H   H317      1.0  0.36893  0.54699  0.89807  1.0000 0.1204817596
H   H318      1.0  0.61880  0.68529  0.92154  1.0000 0.1023330301
H   H319      1.0  0.65010  0.69554  0.87179  1.0000 0.1023330301
H   H320      1.0  0.51273  0.65707  0.27759  1.0000 0.1204817596
H   H321      1.0  0.82162  0.57168  0.22304  1.0000 0.1298250569
H   H322      1.0  0.82933  0.58260  0.16988  1.0000 0.1396206878
H   H323      1.0  0.77542  0.53596  0.18786  1.0000 0.1396206878
H   H324      1.0  0.57961  0.62313  0.96230  1.0000 0.1470008536
H   H325      1.0  0.72339  0.61588  0.87803  1.0000 0.1298250569
H   H326      1.0  0.69198  0.60552  0.92783  1.0000 0.1204817596
H   H327      1.0  0.74228  0.65761  0.91798  1.0000 0.1470008536
H   H328      1.0  0.72153  0.62315  0.12922  1.0000 0.1204817596
H   H329      1.0  0.14197  0.43081  0.92575  1.0000 0.1204817596
H   H330      1.0  0.54448  0.59955  0.81650  1.0000 0.0845930967
H   H331      1.0  0.62415  0.62646  0.81355  1.0000 0.1023330301
H   H332      1.0  0.71179  0.71265  0.08945  1.0000 0.1298250569
H   H333      1.0  0.55040  0.73218  0.39803  1.0000 0.1396206878
H   H334      1.0  0.53971  0.67764  0.77129  1.0000 0.1396206878
H   H335      1.0  0.57130  0.71379  0.81191  1.0000 0.1396206878
H   H336      1.0  0.49145  0.68735  0.81575  1.0000 0.1396206878
H   H337      1.0  0.50551  0.67098  0.12374  1.0000 0.1102642676
H   H338      1.0  0.45148  0.59004  0.85232  1.0000 0.1298250569
H   H339      1.0  0.42437  0.49808  0.23274  1.0000 0.1023330301
H   H340      1.0  0.36557  0.48296  0.19470  1.0000 0.0918784267
H   H341      1.0  0.32587  0.49887  0.13502  1.0000 0.1204817596
H   H342      1.0  0.59068  0.51348  0.16118  1.0000 0.1298250569
H   H343      1.0  0.56582  0.49282  0.21018  1.0000 0.1396206878
H   H344      1.0  0.61671  0.54563  0.20547  1.0000 0.1396206878
C   C1        1.0  0.52580  0.11070  0.59790  1.0000 0.2414918663
C   C2        1.0  0.64210  0.16900  0.34180  1.0000 -0.0200622566
C   C3        1.0  0.61230  0.18870  0.38620  1.0000 0.0726157035
C   C4        1.0  0.70440  0.13050  0.26250  1.0000 -0.2253773715
C   C5        1.0  0.56340  0.22120  0.47170  1.0000 -0.1195918646
C   C6        1.0  0.69000  0.25870  0.11220  1.0000 0.5915241781
C   C7        1.0  0.51440  0.19950  0.44060  1.0000 -0.0113164204
C   C8        1.0  0.48780  0.08050  0.52440  1.0000 0.2414918663
C   C9        1.0  0.24180  0.92180  0.54480  1.0000 -0.0988273337
C   C10       1.0  0.45590  0.05370  0.44970  1.0000 0.2499851081
C   C11       1.0  0.42840  0.03210  0.37240  1.0000 0.2286062632
C   C12       1.0  0.34480  0.05670  0.27470  1.0000 -0.3996653427
C   C13       1.0  0.18480  0.00660  0.56420  1.0000 -0.0988273337
C   C14       1.0  0.73380  0.11310  0.30350  1.0000 0.1693095062
C   C15       1.0  0.52040  0.19200  0.15970  1.0000 -0.0113164204
C   C16       1.0  0.61800  0.18350  0.21480  1.0000 0.0726157035
C   C17       1.0  0.30180  0.94940  0.52860  1.0000 -0.1495133629
C   C18       1.0  0.33940  0.01150  0.43160  1.0000 -0.0891425384
C   C19       1.0  0.51130  0.05960  0.31090  1.0000 -0.071466574
C   C20       1.0  0.66390  0.20960  0.18510  1.0000 -0.1495133629
C   C21       1.0  0.47610  0.05280  0.40500  1.0000 -0.320952056
C   C22       1.0  0.38850  0.03180  0.46540  1.0000 -0.0373126164
C   C23       1.0  0.41180  0.06220  0.58880  1.0000 -0.0891425384
C   C24       1.0  0.24530  0.03480  0.54730  1.0000 -0.071466574
C   C25       1.0  0.63630  0.16690  0.60620  1.0000 -0.0488979952
C   C26       1.0  0.54540  0.17480  0.20220  1.0000 -0.1575707552
C   C27       1.0  0.64580  0.16570  0.26000  1.0000 -0.0010079813
C   C28       1.0  0.79540  0.07230  0.30590  1.0000 -0.4577145707
C   C29       1.0  0.24410  0.09590  0.54800  1.0000 0.6081646178
C   C30       1.0  0.44210  0.18200  0.14640  1.0000 0.5521315876
C   C31       1.0  0.53740  0.10710  0.55090  1.0000 -0.3297805246
C   C32       1.0  0.70470  0.13350  0.59450  1.0000 -0.4181390014
C   C33       1.0  0.70190  0.13360  0.34230  1.0000 -0.208819652
C   C34       1.0  0.18320  0.95000  0.56280  1.0000 -0.1107746251
C   C35       1.0  0.57390  0.13170  0.67470  1.0000 -0.0607548095
C   C36       1.0  0.37130  0.03270  0.51160  1.0000 0.0272183255
C   C37       1.0  0.63730  0.22700  0.46040  1.0000 -0.0284429435
C   C38       1.0  0.66130  0.20990  0.41800  1.0000 -0.1575707552
C   C39       1.0  0.56750  0.21960  0.13050  1.0000 -0.1259469247
C   C40       1.0  0.54120  0.18200  0.69580  1.0000 -0.3996653427
C   C41       1.0  0.53940  0.18450  0.39790  1.0000 -0.1685458869
C   C42       1.0  0.46070  0.08760  0.61610  1.0000 -0.208819652
C   C43       1.0  0.39540  0.01300  0.29270  1.0000 -0.0786016714
C   C44       1.0  0.63920  0.22840  0.14340  1.0000 -0.0284429435
C   C45       1.0  0.42230  0.05740  0.54170  1.0000 -0.0373126164
C   C46       1.0  0.30440  0.00620  0.52910  1.0000 0.0586508643
C   C47       1.0  0.35930  0.01220  0.38700  1.0000 -0.2035002821
C   C48       1.0  0.61370  0.18570  0.30010  1.0000 0.1396206878
C   C49       1.0  0.57650  0.02500  0.30830  1.0000 -0.4181390014
C   C50       1.0  0.43630  0.19070  0.45410  1.0000 0.5521315876
C   C51       1.0  0.31150  0.24640  0.99260  1.0000 0.6017231736
C   C52       1.0  0.47420  0.38930  0.09790  1.0000 0.2414918663
C   C53       1.0  0.35790  0.33100  0.84180  1.0000 -0.0200622566
C   C54       1.0  0.38770  0.31130  0.88620  1.0000 0.0726157035
C   C55       1.0  0.29560  0.36950  0.76250  1.0000 -0.2253773715
C   C56       1.0  0.43660  0.27880  0.97170  1.0000 -0.1195918646
C   C57       1.0  0.31000  0.24130  0.61220  1.0000 0.5915241781
C   C58       1.0  0.48560  0.30050  0.94060  1.0000 -0.0113164204
C   C59       1.0  0.51220  0.41950  0.02440  1.0000 0.2414918663
C   C60       1.0  0.75820  0.57820  0.04480  1.0000 -0.0891425384
C   C61       1.0  0.54410  0.44630  0.94970  1.0000 0.2499851081
C   C62       1.0  0.57160  0.46790  0.87240  1.0000 0.2286062632
C   C63       1.0  0.65520  0.44330  0.77470  1.0000 -0.3996653427
C   C64       1.0  0.81520  0.49340  0.06420  1.0000 -0.0988273337
C   C65       1.0  0.26620  0.38690  0.80350  1.0000 0.1693095062
C   C66       1.0  0.47960  0.30800  0.65970  1.0000 -0.0113164204
C   C67       1.0  0.38200  0.31650  0.71480  1.0000 0.0726157035
C   C68       1.0  0.69820  0.55060  0.02860  1.0000 -0.1495133629
C   C69       1.0  0.66060  0.48850  0.93160  1.0000 -0.0891425384
C   C70       1.0  0.48870  0.44040  0.81090  1.0000 -0.071466574
C   C71       1.0  0.33610  0.29040  0.68510  1.0000 -0.1495133629
C   C72       1.0  0.52390  0.44720  0.90500  1.0000 -0.320952056
C   C73       1.0  0.61150  0.46820  0.96540  1.0000 -0.0373126164
C   C74       1.0  0.58820  0.43780  0.08880  1.0000 -0.0891425384
C   C75       1.0  0.75470  0.46520  0.04730  1.0000 -0.071466574
C   C76       1.0  0.36370  0.33310  0.10620  1.0000 -0.0488979952
C   C77       1.0  0.45460  0.32520  0.70220  1.0000 -0.1575707552
C   C78       1.0  0.35420  0.33430  0.76000  1.0000 -0.0010079813
C   C79       1.0  0.20460  0.42770  0.80590  1.0000 -0.4577145707
C   C80       1.0  0.75590  0.40410  0.04800  1.0000 0.6081646178
C   C81       1.0  0.55790  0.31800  0.64640  1.0000 0.5521315876
C   C82       1.0  0.46260  0.39290  0.05090  1.0000 -0.3297805246
C   C83       1.0  0.29530  0.36650  0.09450  1.0000 -0.4181390014
C   C84       1.0  0.29810  0.36640  0.84230  1.0000 -0.208819652
C   C85       1.0  0.81680  0.55000  0.06280  1.0000 -0.1107746251
C   C86       1.0  0.42610  0.36830  0.17470  1.0000 -0.0607548095
C   C87       1.0  0.62870  0.46730  0.01160  1.0000 0.0272183255
C   C88       1.0  0.36270  0.27300  0.96040  1.0000 -0.0373126164
C   C89       1.0  0.33870  0.29010  0.91800  1.0000 -0.1575707552
C   C90       1.0  0.43250  0.28040  0.63050  1.0000 -0.1259469247
C   C91       1.0  0.45880  0.31800  0.19580  1.0000 -0.3996653427
C   C92       1.0  0.46060  0.31550  0.89790  1.0000 -0.1685458869
C   C93       1.0  0.53930  0.41240  0.11610  1.0000 -0.208819652
C   C94       1.0  0.60460  0.48700  0.79270  1.0000 -0.0786016714
C   C95       1.0  0.36080  0.27160  0.64340  1.0000 -0.0284429435
C   C96       1.0  0.57770  0.44260  0.04170  1.0000 -0.0373126164
C   C97       1.0  0.69560  0.49380  0.02910  1.0000 0.0586508643
C   C98       1.0  0.64070  0.48780  0.88700  1.0000 -0.2035002821
C   C99       1.0  0.38630  0.31430  0.80010  1.0000 0.1396206878
C   C100      1.0  0.42350  0.47500  0.80830  1.0000 -0.4181390014
C   C101      1.0  0.56370  0.30930  0.95410  1.0000 0.5521315876
C   C102      1.0  0.68850  0.25360  0.49260  1.0000 0.6017231736
C   C103      1.0  0.97420  0.11070  0.09790  1.0000 0.2414918663
C   C104      1.0  0.85790  0.16900  0.84180  1.0000 -0.0200622566
C   C105      1.0  0.88770  0.18870  0.88620  1.0000 0.0726157035
C   C106      1.0  0.79560  0.13050  0.76250  1.0000 -0.2253773715
C   C107      1.0  0.93660  0.22120  0.97170  1.0000 -0.1195918646
C   C108      1.0  0.81000  0.25870  0.61220  1.0000 0.5915241781
C   C109      1.0  0.98560  0.19950  0.94060  1.0000 -0.0113164204
C   C110      1.0  0.01220  0.08050  0.02440  1.0000 0.2414918663
C   C111      1.0  0.25820  0.92180  0.04480  1.0000 -0.0891425384
C   C112      1.0  0.04410  0.05370  0.94970  1.0000 0.2499851081
C   C113      1.0  0.07160  0.03210  0.87240  1.0000 0.2286062632
C   C114      1.0  0.15520  0.05670  0.77470  1.0000 -0.3996653427
C   C115      1.0  0.31520  0.00660  0.06420  1.0000 -0.0988273337
C   C116      1.0  0.76620  0.11310  0.80350  1.0000 0.1693095062
C   C117      1.0  0.97960  0.19200  0.65970  1.0000 -0.0113164204
C   C118      1.0  0.88200  0.18350  0.71480  1.0000 0.0726157035
C   C119      1.0  0.19820  0.94940  0.02860  1.0000 -0.1495133629
C   C120      1.0  0.16060  0.01150  0.93160  1.0000 -0.0891425384
C   C121      1.0  0.98870  0.05960  0.81090  1.0000 -0.071466574
C   C122      1.0  0.83610  0.20960  0.68510  1.0000 -0.1495133629
C   C123      1.0  0.02390  0.05280  0.90500  1.0000 -0.320952056
C   C124      1.0  0.11150  0.03180  0.96540  1.0000 -0.0373126164
C   C125      1.0  0.08820  0.06220  0.08880  1.0000 -0.0891425384
C   C126      1.0  0.25470  0.03480  0.04730  1.0000 -0.071466574
C   C127      1.0  0.86370  0.16690  0.10620  1.0000 -0.0488979952
C   C128      1.0  0.95460  0.17480  0.70220  1.0000 -0.1575707552
C   C129      1.0  0.85420  0.16570  0.76000  1.0000 -0.0010079813
C   C130      1.0  0.70460  0.07230  0.80590  1.0000 -0.4577145707
C   C131      1.0  0.25590  0.09590  0.04800  1.0000 0.6081646178
C   C132      1.0  0.05790  0.18200  0.64640  1.0000 0.5521315876
C   C133      1.0  0.96260  0.10710  0.05090  1.0000 -0.3297805246
C   C134      1.0  0.79530  0.13350  0.09450  1.0000 -0.4181390014
C   C135      1.0  0.79810  0.13360  0.84230  1.0000 -0.208819652
C   C136      1.0  0.31680  0.95000  0.06280  1.0000 -0.1107746251
C   C137      1.0  0.92610  0.13170  0.17470  1.0000 -0.0607548095
C   C138      1.0  0.12870  0.03270  0.01160  1.0000 0.0272183255
C   C139      1.0  0.86270  0.22700  0.96040  1.0000 -0.0373126164
C   C140      1.0  0.83870  0.20990  0.91800  1.0000 -0.1575707552
C   C141      1.0  0.93250  0.21960  0.63050  1.0000 -0.1259469247
C   C142      1.0  0.95880  0.18200  0.19580  1.0000 -0.3996653427
C   C143      1.0  0.96060  0.18450  0.89790  1.0000 -0.1685458869
C   C144      1.0  0.03930  0.08760  0.11610  1.0000 -0.208819652
C   C145      1.0  0.10460  0.01300  0.79270  1.0000 -0.0786016714
C   C146      1.0  0.86080  0.22840  0.64340  1.0000 -0.0284429435
C   C147      1.0  0.07770  0.05740  0.04170  1.0000 -0.0373126164
C   C148      1.0  0.19560  0.00620  0.02910  1.0000 0.0586508643
C   C149      1.0  0.14070  0.01220  0.88700  1.0000 -0.2035002821
C   C150      1.0  0.88630  0.18570  0.80010  1.0000 0.1396206878
C   C151      1.0  0.92350  0.02500  0.80830  1.0000 -0.4181390014
C   C152      1.0  0.06370  0.19070  0.95410  1.0000 0.5521315876
C   C153      1.0  0.18850  0.24640  0.49260  1.0000 0.6017231736
C   C154      1.0  0.02580  0.38930  0.59790  1.0000 0.2414918663
C   C155      1.0  0.14210  0.33100  0.34180  1.0000 -0.0200622566
C   C156      1.0  0.11230  0.31130  0.38620  1.0000 0.0726157035
C   C157      1.0  0.20440  0.36950  0.26250  1.0000 -0.2253773715
C   C158      1.0  0.06340  0.27880  0.47170  1.0000 -0.1195918646
C   C159      1.0  0.19000  0.24130  0.11220  1.0000 0.5915241781
C   C160      1.0  0.01440  0.30050  0.44060  1.0000 -0.0113164204
C   C161      1.0  0.98780  0.41950  0.52440  1.0000 0.2414918663
C   C162      1.0  0.74180  0.57820  0.54480  1.0000 -0.0891425384
C   C163      1.0  0.95590  0.44630  0.44970  1.0000 0.2499851081
C   C164      1.0  0.92840  0.46790  0.37240  1.0000 0.2286062632
C   C165      1.0  0.84480  0.44330  0.27470  1.0000 -0.3996653427
C   C166      1.0  0.68480  0.49340  0.56420  1.0000 -0.0988273337
C   C167      1.0  0.23380  0.38690  0.30350  1.0000 0.1693095062
C   C168      1.0  0.02040  0.30800  0.15970  1.0000 -0.0113164204
C   C169      1.0  0.11800  0.31650  0.21480  1.0000 0.0726157035
C   C170      1.0  0.80180  0.55060  0.52860  1.0000 -0.1495133629
C   C171      1.0  0.83940  0.48850  0.43160  1.0000 -0.0891425384
C   C172      1.0  0.01130  0.44040  0.31090  1.0000 -0.071466574
C   C173      1.0  0.16390  0.29040  0.18510  1.0000 -0.1495133629
C   C174      1.0  0.97610  0.44720  0.40500  1.0000 -0.320952056
C   C175      1.0  0.88850  0.46820  0.46540  1.0000 -0.0373126164
C   C176      1.0  0.91180  0.43780  0.58880  1.0000 -0.0891425384
C   C177      1.0  0.74530  0.46520  0.54730  1.0000 -0.071466574
C   C178      1.0  0.13630  0.33310  0.60620  1.0000 -0.0488979952
C   C179      1.0  0.04540  0.32520  0.20220  1.0000 -0.1575707552
C   C180      1.0  0.14580  0.33430  0.26000  1.0000 -0.0010079813
C   C181      1.0  0.29540  0.42770  0.30590  1.0000 -0.4577145707
C   C182      1.0  0.74410  0.40410  0.54800  1.0000 0.6081646178
C   C183      1.0  0.94210  0.31800  0.14640  1.0000 0.5521315876
C   C184      1.0  0.03740  0.39290  0.55090  1.0000 -0.3297805246
C   C185      1.0  0.20470  0.36650  0.59450  1.0000 -0.4181390014
C   C186      1.0  0.20190  0.36640  0.34230  1.0000 -0.208819652
C   C187      1.0  0.68320  0.55000  0.56280  1.0000 -0.1107746251
C   C188      1.0  0.07390  0.36830  0.67470  1.0000 -0.0607548095
C   C189      1.0  0.87130  0.46730  0.51160  1.0000 0.0272183255
C   C190      1.0  0.13730  0.27300  0.46040  1.0000 -0.0284429435
C   C191      1.0  0.16130  0.29010  0.41800  1.0000 -0.1575707552
C   C192      1.0  0.06750  0.28040  0.13050  1.0000 -0.1259469247
C   C193      1.0  0.04120  0.31800  0.69580  1.0000 -0.3996653427
C   C194      1.0  0.03940  0.31550  0.39790  1.0000 -0.1685458869
C   C195      1.0  0.96070  0.41240  0.61610  1.0000 -0.208819652
C   C196      1.0  0.89540  0.48700  0.29270  1.0000 -0.0786016714
C   C197      1.0  0.13920  0.27160  0.14340  1.0000 -0.0284429435
C   C198      1.0  0.92230  0.44260  0.54170  1.0000 -0.0373126164
C   C199      1.0  0.80440  0.49380  0.52910  1.0000 0.0586508643
C   C200      1.0  0.85930  0.48780  0.38700  1.0000 -0.2035002821
C   C201      1.0  0.11370  0.31430  0.30010  1.0000 0.1396206878
C   C202      1.0  0.07650  0.47500  0.30830  1.0000 -0.4181390014
C   C203      1.0  0.93630  0.30930  0.45410  1.0000 0.5521315876
C   C204      1.0  0.81150  0.25360  0.99260  1.0000 0.6017231736
C   C205      1.0  0.02580  0.88930  0.90210  1.0000 0.2414918663
C   C206      1.0  0.14210  0.83100  0.15820  1.0000 -0.0200622566
C   C207      1.0  0.11230  0.81130  0.11380  1.0000 0.0726157035
C   C208      1.0  0.20440  0.86950  0.23750  1.0000 -0.2253773715
C   C209      1.0  0.06340  0.77880  0.02830  1.0000 -0.1195918646
C   C210      1.0  0.19000  0.74130  0.38780  1.0000 0.5915241781
C   C211      1.0  0.01440  0.80050  0.05940  1.0000 -0.0113164204
C   C212      1.0  0.98780  0.91950  0.97560  1.0000 0.2414918663
C   C213      1.0  0.74180  0.07820  0.95520  1.0000 -0.0891425384
C   C214      1.0  0.95590  0.94630  0.05030  1.0000 0.2499851081
C   C215      1.0  0.92840  0.96790  0.12760  1.0000 0.2286062632
C   C216      1.0  0.84480  0.94330  0.22530  1.0000 -0.3996653427
C   C217      1.0  0.68480  0.99340  0.93580  1.0000 -0.0988273337
C   C218      1.0  0.23380  0.88690  0.19650  1.0000 0.1693095062
C   C219      1.0  0.02040  0.80800  0.34030  1.0000 -0.0113164204
C   C220      1.0  0.11800  0.81650  0.28520  1.0000 0.0726157035
C   C221      1.0  0.80180  0.05060  0.97140  1.0000 -0.1495133629
C   C222      1.0  0.83940  0.98850  0.06840  1.0000 -0.0891425384
C   C223      1.0  0.01130  0.94040  0.18910  1.0000 -0.071466574
C   C224      1.0  0.16390  0.79040  0.31490  1.0000 -0.1495133629
C   C225      1.0  0.97610  0.94720  0.09500  1.0000 -0.320952056
C   C226      1.0  0.88850  0.96820  0.03460  1.0000 -0.0373126164
C   C227      1.0  0.91180  0.93780  0.91120  1.0000 -0.0891425384
C   C228      1.0  0.74530  0.96520  0.95270  1.0000 -0.071466574
C   C229      1.0  0.13630  0.83310  0.89380  1.0000 -0.0488979952
C   C230      1.0  0.04540  0.82520  0.29780  1.0000 -0.1575707552
C   C231      1.0  0.14580  0.83430  0.24000  1.0000 -0.0010079813
C   C232      1.0  0.29540  0.92770  0.19410  1.0000 -0.4577145707
C   C233      1.0  0.74410  0.90410  0.95200  1.0000 0.6081646178
C   C234      1.0  0.94210  0.81800  0.35360  1.0000 0.5521315876
C   C235      1.0  0.03740  0.89290  0.94910  1.0000 -0.3297805246
C   C236      1.0  0.20470  0.86650  0.90550  1.0000 -0.4181390014
C   C237      1.0  0.20190  0.86640  0.15770  1.0000 -0.208819652
C   C238      1.0  0.68320  0.05000  0.93720  1.0000 -0.1107746251
C   C239      1.0  0.07390  0.86830  0.82530  1.0000 -0.0607548095
C   C240      1.0  0.87130  0.96730  0.98840  1.0000 0.0272183255
C   C241      1.0  0.13730  0.77300  0.03960  1.0000 -0.0373126164
C   C242      1.0  0.16130  0.79010  0.08200  1.0000 -0.1575707552
C   C243      1.0  0.06750  0.78040  0.36950  1.0000 -0.1195918646
C   C244      1.0  0.04120  0.81800  0.80420  1.0000 -0.3996653427
C   C245      1.0  0.03940  0.81550  0.10210  1.0000 -0.1685458869
C   C246      1.0  0.96070  0.91240  0.88390  1.0000 -0.208819652
C   C247      1.0  0.89540  0.98700  0.20730  1.0000 -0.0786016714
C   C248      1.0  0.13920  0.77160  0.35660  1.0000 -0.0284429435
C   C249      1.0  0.92230  0.94260  0.95830  1.0000 -0.0373126164
C   C250      1.0  0.80440  0.99380  0.97090  1.0000 0.0586508643
C   C251      1.0  0.85930  0.98780  0.11300  1.0000 -0.2035002821
C   C252      1.0  0.11370  0.81430  0.19990  1.0000 0.1396206878
C   C253      1.0  0.07650  0.97500  0.19170  1.0000 -0.4181390014
C   C254      1.0  0.93630  0.80930  0.04590  1.0000 0.5521315876
C   C255      1.0  0.81150  0.75360  0.50740  1.0000 0.6017231736
C   C256      1.0  0.97420  0.61070  0.40210  1.0000 0.2414918663
C   C257      1.0  0.85790  0.66900  0.65820  1.0000 -0.0200622566
C   C258      1.0  0.88770  0.68870  0.61380  1.0000 0.0726157035
C   C259      1.0  0.79560  0.63050  0.73750  1.0000 -0.2253773715
C   C260      1.0  0.93660  0.72120  0.52830  1.0000 -0.1195918646
C   C261      1.0  0.81000  0.75870  0.88780  1.0000 0.5915241781
C   C262      1.0  0.98560  0.69950  0.55940  1.0000 -0.0113164204
C   C263      1.0  0.01220  0.58050  0.47560  1.0000 0.2414918663
C   C264      1.0  0.25820  0.42180  0.45520  1.0000 -0.0891425384
C   C265      1.0  0.04410  0.55370  0.55030  1.0000 0.2499851081
C   C266      1.0  0.07160  0.53210  0.62760  1.0000 0.2286062632
C   C267      1.0  0.15520  0.55670  0.72530  1.0000 -0.3996653427
C   C268      1.0  0.31520  0.50660  0.43580  1.0000 -0.0988273337
C   C269      1.0  0.76620  0.61310  0.69650  1.0000 0.1693095062
C   C270      1.0  0.97960  0.69200  0.84030  1.0000 -0.0113164204
C   C271      1.0  0.88200  0.68350  0.78520  1.0000 0.0726157035
C   C272      1.0  0.19820  0.44940  0.47140  1.0000 -0.1495133629
C   C273      1.0  0.16060  0.51150  0.56840  1.0000 -0.0891425384
C   C274      1.0  0.98870  0.55960  0.68910  1.0000 -0.071466574
C   C275      1.0  0.83610  0.70960  0.81490  1.0000 -0.1495133629
C   C276      1.0  0.02390  0.55280  0.59500  1.0000 -0.320952056
C   C277      1.0  0.11150  0.53180  0.53460  1.0000 -0.0373126164
C   C278      1.0  0.08820  0.56220  0.41120  1.0000 -0.0891425384
C   C279      1.0  0.25470  0.53480  0.45270  1.0000 -0.071466574
C   C280      1.0  0.86370  0.66690  0.39380  1.0000 -0.0488979952
C   C281      1.0  0.95460  0.67480  0.79780  1.0000 -0.1575707552
C   C282      1.0  0.85420  0.66570  0.74000  1.0000 -0.0010079813
C   C283      1.0  0.70460  0.57230  0.69410  1.0000 -0.4577145707
C   C284      1.0  0.25590  0.59590  0.45200  1.0000 0.6081646178
C   C285      1.0  0.05790  0.68200  0.85360  1.0000 0.5521315876
C   C286      1.0  0.96260  0.60710  0.44910  1.0000 -0.3297805246
C   C287      1.0  0.79530  0.63350  0.40550  1.0000 -0.4181390014
C   C288      1.0  0.79810  0.63360  0.65770  1.0000 -0.208819652
C   C289      1.0  0.31680  0.45000  0.43720  1.0000 -0.1107746251
C   C290      1.0  0.92610  0.63170  0.32530  1.0000 -0.0607548095
C   C291      1.0  0.12870  0.53270  0.48840  1.0000 0.0272183255
C   C292      1.0  0.86270  0.72700  0.53960  1.0000 -0.0284429435
C   C293      1.0  0.83870  0.70990  0.58200  1.0000 -0.1575707552
C   C294      1.0  0.93250  0.71960  0.86950  1.0000 -0.1259469247
C   C295      1.0  0.95880  0.68200  0.30420  1.0000 -0.3996653427
C   C296      1.0  0.96060  0.68450  0.60210  1.0000 -0.1685458869
C   C297      1.0  0.03930  0.58760  0.38390  1.0000 -0.208819652
C   C298      1.0  0.10460  0.51300  0.70730  1.0000 -0.0786016714
C   C299      1.0  0.86080  0.72840  0.85660  1.0000 -0.0284429435
C   C300      1.0  0.07770  0.55740  0.45830  1.0000 -0.0373126164
C   C301      1.0  0.19560  0.50620  0.47090  1.0000 0.0586508643
C   C302      1.0  0.14070  0.51220  0.61300  1.0000 -0.2035002821
C   C303      1.0  0.88630  0.68570  0.69990  1.0000 0.1396206878
C   C304      1.0  0.92350  0.52500  0.69170  1.0000 -0.4181390014
C   C305      1.0  0.06370  0.69070  0.54590  1.0000 0.5521315876
C   C306      1.0  0.18850  0.74640  0.00740  1.0000 0.6017231736
C   C307      1.0  0.47420  0.88930  0.40210  1.0000 0.2414918663
C   C308      1.0  0.35790  0.83100  0.65820  1.0000 -0.0200622566
C   C309      1.0  0.38770  0.81130  0.61380  1.0000 0.0726157035
C   C310      1.0  0.29560  0.86950  0.73750  1.0000 -0.2253773715
C   C311      1.0  0.43660  0.77880  0.52830  1.0000 -0.1195918646
C   C312      1.0  0.31000  0.74130  0.88780  1.0000 0.5915241781
C   C313      1.0  0.48560  0.80050  0.55940  1.0000 -0.0113164204
C   C314      1.0  0.51220  0.91950  0.47560  1.0000 0.2414918663
C   C315      1.0  0.75820  0.07820  0.45520  1.0000 -0.0891425384
C   C316      1.0  0.54410  0.94630  0.55030  1.0000 0.2499851081
C   C317      1.0  0.57160  0.96790  0.62760  1.0000 0.2286062632
C   C318      1.0  0.65520  0.94330  0.72530  1.0000 -0.3996653427
C   C319      1.0  0.81520  0.99340  0.43580  1.0000 -0.0988273337
C   C320      1.0  0.26620  0.88690  0.69650  1.0000 0.1693095062
C   C321      1.0  0.47960  0.80800  0.84030  1.0000 -0.0113164204
C   C322      1.0  0.38200  0.81650  0.78520  1.0000 0.0726157035
C   C323      1.0  0.69820  0.05060  0.47140  1.0000 -0.1495133629
C   C324      1.0  0.66060  0.98850  0.56840  1.0000 -0.0891425384
C   C325      1.0  0.48870  0.94040  0.68910  1.0000 -0.071466574
C   C326      1.0  0.33610  0.79040  0.81490  1.0000 -0.1495133629
C   C327      1.0  0.52390  0.94720  0.59500  1.0000 -0.320952056
C   C328      1.0  0.61150  0.96820  0.53460  1.0000 -0.0373126164
C   C329      1.0  0.58820  0.93780  0.41120  1.0000 -0.0891425384
C   C330      1.0  0.75470  0.96520  0.45270  1.0000 -0.071466574
C   C331      1.0  0.36370  0.83310  0.39380  1.0000 -0.0488979952
C   C332      1.0  0.45460  0.82520  0.79780  1.0000 -0.1575707552
C   C333      1.0  0.35420  0.83430  0.74000  1.0000 -0.0010079813
C   C334      1.0  0.20460  0.92770  0.69410  1.0000 -0.4577145707
C   C335      1.0  0.75590  0.90410  0.45200  1.0000 0.6081646178
C   C336      1.0  0.55790  0.81800  0.85360  1.0000 0.5521315876
C   C337      1.0  0.46260  0.89290  0.44910  1.0000 -0.3297805246
C   C338      1.0  0.29530  0.86650  0.40550  1.0000 -0.4181390014
C   C339      1.0  0.29810  0.86640  0.65770  1.0000 -0.208819652
C   C340      1.0  0.81680  0.05000  0.43720  1.0000 -0.1107746251
C   C341      1.0  0.42610  0.86830  0.32530  1.0000 -0.0607548095
C   C342      1.0  0.62870  0.96730  0.48840  1.0000 0.0272183255
C   C343      1.0  0.36270  0.77300  0.53960  1.0000 -0.0284429435
C   C344      1.0  0.33870  0.79010  0.58200  1.0000 -0.1575707552
C   C345      1.0  0.43250  0.78040  0.86950  1.0000 -0.1259469247
C   C346      1.0  0.45880  0.81800  0.30420  1.0000 -0.3996653427
C   C347      1.0  0.46060  0.81550  0.60210  1.0000 -0.1685458869
C   C348      1.0  0.53930  0.91240  0.38390  1.0000 -0.208819652
C   C349      1.0  0.60460  0.98700  0.70730  1.0000 -0.0786016714
C   C350      1.0  0.36080  0.77160  0.85660  1.0000 -0.0284429435
C   C351      1.0  0.57770  0.94260  0.45830  1.0000 -0.0373126164
C   C352      1.0  0.69560  0.99380  0.47090  1.0000 0.0586508643
C   C353      1.0  0.64070  0.98780  0.61300  1.0000 -0.2035002821
C   C354      1.0  0.38630  0.81430  0.69990  1.0000 0.1396206878
C   C355      1.0  0.42350  0.97500  0.69170  1.0000 -0.4181390014
C   C356      1.0  0.56370  0.80930  0.54590  1.0000 0.5521315876
C   C357      1.0  0.68850  0.75360  0.00740  1.0000 0.6017231736
C   C358      1.0  0.52580  0.61070  0.90210  1.0000 0.2414918663
C   C359      1.0  0.64210  0.66900  0.15820  1.0000 -0.0200622566
C   C360      1.0  0.61230  0.68870  0.11380  1.0000 0.0726157035
C   C361      1.0  0.70440  0.63050  0.23750  1.0000 -0.2253773715
C   C362      1.0  0.56340  0.72120  0.02830  1.0000 -0.1195918646
C   C363      1.0  0.69000  0.75870  0.38780  1.0000 0.5915241781
C   C364      1.0  0.51440  0.69950  0.05940  1.0000 -0.0113164204
C   C365      1.0  0.48780  0.58050  0.97560  1.0000 0.2414918663
C   C366      1.0  0.24180  0.42180  0.95520  1.0000 -0.0891425384
C   C367      1.0  0.45590  0.55370  0.05030  1.0000 0.2499851081
C   C368      1.0  0.42840  0.53210  0.12760  1.0000 0.2286062632
C   C369      1.0  0.34480  0.55670  0.22530  1.0000 -0.3996653427
C   C370      1.0  0.18480  0.50660  0.93580  1.0000 -0.0988273337
C   C371      1.0  0.73380  0.61310  0.19650  1.0000 0.1693095062
C   C372      1.0  0.52040  0.69200  0.34030  1.0000 -0.0113164204
C   C373      1.0  0.61800  0.68350  0.28520  1.0000 0.0726157035
C   C374      1.0  0.30180  0.44940  0.97140  1.0000 -0.1495133629
C   C375      1.0  0.33940  0.51150  0.06840  1.0000 -0.0891425384
C   C376      1.0  0.51130  0.55960  0.18910  1.0000 -0.071466574
C   C377      1.0  0.66390  0.70960  0.31490  1.0000 -0.1495133629
C   C378      1.0  0.47610  0.55280  0.09500  1.0000 -0.320952056
C   C379      1.0  0.38850  0.53180  0.03460  1.0000 -0.0373126164
C   C380      1.0  0.41180  0.56220  0.91120  1.0000 -0.0891425384
C   C381      1.0  0.24530  0.53480  0.95270  1.0000 -0.071466574
C   C382      1.0  0.63630  0.66690  0.89380  1.0000 -0.0488979952
C   C383      1.0  0.54540  0.67480  0.29780  1.0000 -0.1575707552
C   C384      1.0  0.64580  0.66570  0.24000  1.0000 -0.0010079813
C   C385      1.0  0.79540  0.57230  0.19410  1.0000 -0.4577145707
C   C386      1.0  0.24410  0.59590  0.95200  1.0000 0.6081646178
C   C387      1.0  0.44210  0.68200  0.35360  1.0000 0.5521315876
C   C388      1.0  0.53740  0.60710  0.94910  1.0000 -0.3297805246
C   C389      1.0  0.70470  0.63350  0.90550  1.0000 -0.4181390014
C   C390      1.0  0.70190  0.63360  0.15770  1.0000 -0.208819652
C   C391      1.0  0.18320  0.45000  0.93720  1.0000 -0.1107746251
C   C392      1.0  0.57390  0.63170  0.82530  1.0000 -0.0607548095
C   C393      1.0  0.37130  0.53270  0.98840  1.0000 0.0272183255
C   C394      1.0  0.63730  0.72700  0.03960  1.0000 -0.0373126164
C   C395      1.0  0.66130  0.70990  0.08200  1.0000 -0.1575707552
C   C396      1.0  0.56750  0.71960  0.36950  1.0000 -0.1195918646
C   C397      1.0  0.54120  0.68200  0.80420  1.0000 -0.3996653427
C   C398      1.0  0.53940  0.68450  0.10210  1.0000 -0.1685458869
C   C399      1.0  0.46070  0.58760  0.88390  1.0000 -0.208819652
C   C400      1.0  0.39540  0.51300  0.20730  1.0000 -0.0786016714
C   C401      1.0  0.63920  0.72840  0.35660  1.0000 -0.0284429435
C   C402      1.0  0.42230  0.55740  0.95830  1.0000 -0.0373126164
C   C403      1.0  0.30440  0.50620  0.97090  1.0000 0.0586508643
C   C404      1.0  0.35930  0.51220  0.11300  1.0000 -0.2035002821
C   C405      1.0  0.61370  0.68570  0.19990  1.0000 0.1396206878
C   C406      1.0  0.57650  0.52500  0.19170  1.0000 -0.4181390014
C   C407      1.0  0.43630  0.69070  0.04590  1.0000 0.5521315876
C   C408      1.0  0.31150  0.74640  0.50740  1.0000 0.6017231736
N   N1        1.0  0.55520  0.22280  0.29845  1.0000 -0.5614000019
N   N2        1.0  0.57660  0.13520  0.62510  1.0000 -0.0607548095
N   N3        1.0  0.44560  0.03250  0.32760  1.0000 -0.0607548095
N   N4        1.0  0.44480  0.27720  0.79845  1.0000 -0.5614000019
N   N5        1.0  0.42340  0.36480  0.12510  1.0000 -0.0607548095
N   N6        1.0  0.55440  0.46750  0.82760  1.0000 -0.0607548095
N   N7        1.0  0.94480  0.22280  0.79845  1.0000 -0.5614000019
N   N8        1.0  0.92340  0.13520  0.12510  1.0000 -0.0607548095
N   N9        1.0  0.05440  0.03250  0.82760  1.0000 -0.0607548095
N   N10       1.0  0.05520  0.27720  0.29845  1.0000 -0.5614000019
N   N11       1.0  0.07660  0.36480  0.62510  1.0000 -0.0607548095
N   N12       1.0  0.94560  0.46750  0.32760  1.0000 -0.0607548095
N   N13       1.0  0.05520  0.77720  0.20155  1.0000 -0.5614000019
N   N14       1.0  0.07660  0.86480  0.87490  1.0000 -0.0607548095
N   N15       1.0  0.94560  0.96750  0.17240  1.0000 -0.0607548095
N   N16       1.0  0.94480  0.72280  0.70155  1.0000 -0.5614000019
N   N17       1.0  0.92340  0.63520  0.37490  1.0000 -0.0607548095
N   N18       1.0  0.05440  0.53250  0.67240  1.0000 -0.0607548095
N   N19       1.0  0.44480  0.77720  0.70155  1.0000 -0.5614000019
N   N20       1.0  0.42340  0.86480  0.37490  1.0000 -0.0607548095
N   N21       1.0  0.55440  0.96750  0.67240  1.0000 -0.0607548095
N   N22       1.0  0.55520  0.72280  0.20155  1.0000 -0.5614000019
N   N23       1.0  0.57660  0.63520  0.87490  1.0000 -0.0607548095
N   N24       1.0  0.44560  0.53250  0.17240  1.0000 -0.0607548095
O   O1        1.0  0.42030  0.20470  0.49523  1.0000 -0.568588476
O   O2        1.0  0.42470  0.20060  0.10758  1.0000 -0.548408417
O   O3        1.0  0.33780  0.23140  0.02987  1.0000 -0.568588476
O   O4        1.0  0.75370  0.26890  0.12564  1.0000 -0.539993016
O   O5        1.0  0.25350  0.24010  0.48006  1.0000 -0.529026283
O   O6        1.0  0.66310  0.27270  0.07476  1.0000 -0.568588476
O   O7        1.0  0.28480  0.12100  0.52095  1.0000 -0.548408417
O   O8        1.0  0.39200  0.17030  0.42826  1.0000 -0.529026283
O   O9        1.0  0.50390  0.07670  0.47938  1.0000 -0.1685458869
O   O10       1.0  0.19990  0.11720  0.57583  1.0000 -0.548408417
O   O11       1.0  0.40000  0.15790  0.17200  1.0000 -0.548408417
O   O12       1.0  0.57970  0.29530  0.99523  1.0000 -0.568588476
O   O13       1.0  0.57530  0.29940  0.60758  1.0000 -0.548408417
O   O14       1.0  0.66220  0.26860  0.52987  1.0000 -0.568588476
O   O15       1.0  0.24630  0.23110  0.62564  1.0000 -0.539993016
O   O16       1.0  0.74650  0.25990  0.98006  1.0000 -0.529026283
O   O17       1.0  0.33690  0.22730  0.57476  1.0000 -0.568588476
O   O18       1.0  0.71520  0.37900  0.02095  1.0000 -0.548408417
O   O19       1.0  0.60800  0.32970  0.92826  1.0000 -0.529026283
O   O20       1.0  0.49610  0.42330  0.97938  1.0000 -0.1685458869
O   O21       1.0  0.80010  0.38280  0.07583  1.0000 -0.548408417
O   O22       1.0  0.60000  0.34210  0.67200  1.0000 -0.548408417
O   O23       1.0  0.07970  0.20470  0.99523  1.0000 -0.568588476
O   O24       1.0  0.07530  0.20060  0.60758  1.0000 -0.548408417
O   O25       1.0  0.16220  0.23140  0.52987  1.0000 -0.568588476
O   O26       1.0  0.74630  0.26890  0.62564  1.0000 -0.539993016
O   O27       1.0  0.24650  0.24010  0.98006  1.0000 -0.529026283
O   O28       1.0  0.83690  0.27270  0.57476  1.0000 -0.568588476
O   O29       1.0  0.21520  0.12100  0.02095  1.0000 -0.548408417
O   O30       1.0  0.10800  0.17030  0.92826  1.0000 -0.529026283
O   O31       1.0  0.99610  0.07670  0.97938  1.0000 -0.1685458869
O   O32       1.0  0.30010  0.11720  0.07583  1.0000 -0.548408417
O   O33       1.0  0.10000  0.15790  0.67200  1.0000 -0.548408417
O   O34       1.0  0.92030  0.29530  0.49523  1.0000 -0.568588476
O   O35       1.0  0.92470  0.29940  0.10758  1.0000 -0.548408417
O   O36       1.0  0.83780  0.26860  0.02987  1.0000 -0.568588476
O   O37       1.0  0.25370  0.23110  0.12564  1.0000 -0.539993016
O   O38       1.0  0.75350  0.25990  0.48006  1.0000 -0.529026283
O   O39       1.0  0.16310  0.22730  0.07476  1.0000 -0.568588476
O   O40       1.0  0.78480  0.37900  0.52095  1.0000 -0.548408417
O   O41       1.0  0.89200  0.32970  0.42826  1.0000 -0.529026283
O   O42       1.0  0.00390  0.42330  0.47938  1.0000 -0.1685458869
O   O43       1.0  0.69990  0.38280  0.57583  1.0000 -0.548408417
O   O44       1.0  0.90000  0.34210  0.17200  1.0000 -0.548408417
O   O45       1.0  0.92030  0.79530  0.00477  1.0000 -0.568588476
O   O46       1.0  0.92470  0.79940  0.39242  1.0000 -0.548408417
O   O47       1.0  0.83780  0.76860  0.47013  1.0000 -0.568588476
O   O48       1.0  0.25370  0.73110  0.37436  1.0000 -0.539993016
O   O49       1.0  0.75350  0.75990  0.01994  1.0000 -0.529026283
O   O50       1.0  0.16310  0.72730  0.42524  1.0000 -0.568588476
O   O51       1.0  0.78480  0.87900  0.97905  1.0000 -0.548408417
O   O52       1.0  0.89200  0.82970  0.07174  1.0000 -0.529026283
O   O53       1.0  0.00390  0.92330  0.02062  1.0000 -0.1685458869
O   O54       1.0  0.69990  0.88280  0.92417  1.0000 -0.548408417
O   O55       1.0  0.90000  0.84210  0.32800  1.0000 -0.548408417
O   O56       1.0  0.07970  0.70470  0.50477  1.0000 -0.568588476
O   O57       1.0  0.07530  0.70060  0.89242  1.0000 -0.548408417
O   O58       1.0  0.16220  0.73140  0.97013  1.0000 -0.568588476
O   O59       1.0  0.74630  0.76890  0.87436  1.0000 -0.539993016
O   O60       1.0  0.24650  0.74010  0.51994  1.0000 -0.529026283
O   O61       1.0  0.83690  0.77270  0.92524  1.0000 -0.568588476
O   O62       1.0  0.21520  0.62100  0.47905  1.0000 -0.548408417
O   O63       1.0  0.10800  0.67030  0.57174  1.0000 -0.529026283
O   O64       1.0  0.99610  0.57670  0.52062  1.0000 -0.1685458869
O   O65       1.0  0.30010  0.61720  0.42417  1.0000 -0.548408417
O   O66       1.0  0.10000  0.65790  0.82800  1.0000 -0.548408417
O   O67       1.0  0.57970  0.79530  0.50477  1.0000 -0.568588476
O   O68       1.0  0.57530  0.79940  0.89242  1.0000 -0.548408417
O   O69       1.0  0.66220  0.76860  0.97013  1.0000 -0.568588476
O   O70       1.0  0.24630  0.73110  0.87436  1.0000 -0.539993016
O   O71       1.0  0.74650  0.75990  0.51994  1.0000 -0.529026283
O   O72       1.0  0.33690  0.72730  0.92524  1.0000 -0.568588476
O   O73       1.0  0.71520  0.87900  0.47905  1.0000 -0.548408417
O   O74       1.0  0.60800  0.82970  0.57174  1.0000 -0.529026283
O   O75       1.0  0.49610  0.92330  0.52062  1.0000 -0.1685458869
O   O76       1.0  0.80010  0.88280  0.42417  1.0000 -0.548408417
O   O77       1.0  0.60000  0.84210  0.82800  1.0000 -0.548408417
O   O78       1.0  0.42030  0.70470  0.00477  1.0000 -0.568588476
O   O79       1.0  0.42470  0.70060  0.39242  1.0000 -0.548408417
O   O80       1.0  0.33780  0.73140  0.47013  1.0000 -0.568588476
O   O81       1.0  0.75370  0.76890  0.37436  1.0000 -0.539993016
O   O82       1.0  0.25350  0.74010  0.01994  1.0000 -0.529026283
O   O83       1.0  0.66310  0.77270  0.42524  1.0000 -0.568588476
O   O84       1.0  0.28480  0.62100  0.97905  1.0000 -0.548408417
O   O85       1.0  0.39200  0.67030  0.07174  1.0000 -0.529026283
O   O86       1.0  0.50390  0.57670  0.02062  1.0000 -0.1685458869
O   O87       1.0  0.19990  0.61720  0.92417  1.0000 -0.548408417
O   O88       1.0  0.40000  0.65790  0.32800  1.0000 -0.548408417
