# DDEC6 charges by PACMAN v1.1 (https://github.com/mtap-research/PACMAN-charge/)
data_2015[Zn][ith]3[FSR]3
_chemical_formula_sum              "Zn24 H444 C450 O78"
_cell_length_a       29.8614
_cell_length_b       29.8614
_cell_length_c       29.8614
_cell_angle_alpha    90
_cell_angle_beta     90
_cell_angle_gamma    90

_symmetry_space_group_name_H-M    "P 1"
_symmetry_Int_Tables_number       1

loop_
  _symmetry_equiv_pos_as_xyz
  'x, y, z'

loop_
  _atom_site_type_symbol
  _atom_site_label
  _atom_site_symmetry_multiplicity
  _atom_site_fract_x
  _atom_site_fract_y
  _atom_site_fract_z
  _atom_site_occupancy
  _atom_site_charge
Zn  Zn1       1.0  0.44636  0.32268  0.00000  1.0000 0.9370576489
Zn  Zn2       1.0  0.55364  0.67732  0.00000  1.0000 0.9370576489
Zn  Zn3       1.0  0.55364  0.32268  0.00000  1.0000 0.9370576489
Zn  Zn4       1.0  0.44636  0.67732  0.00000  1.0000 0.9370576489
Zn  Zn5       1.0  0.00000  0.44636  0.32268  1.0000 0.9370576489
Zn  Zn6       1.0  0.00000  0.55364  0.67732  1.0000 0.9370576489
Zn  Zn7       1.0  0.00000  0.55364  0.32268  1.0000 0.9370576489
Zn  Zn8       1.0  0.00000  0.44636  0.67732  1.0000 0.9370576489
Zn  Zn9       1.0  0.32268  0.00000  0.44636  1.0000 0.9370576489
Zn  Zn10      1.0  0.67732  0.00000  0.55364  1.0000 0.9370576489
Zn  Zn11      1.0  0.32268  0.00000  0.55364  1.0000 0.9370576489
Zn  Zn12      1.0  0.67732  0.00000  0.44636  1.0000 0.9370576489
Zn  Zn13      1.0  0.50000  0.24864  0.05292  1.0000 0.9451184916
Zn  Zn14      1.0  0.50000  0.75136  0.05292  1.0000 0.9451184916
Zn  Zn15      1.0  0.50000  0.24864  0.94708  1.0000 0.9451184916
Zn  Zn16      1.0  0.50000  0.75136  0.94708  1.0000 0.9451184916
Zn  Zn17      1.0  0.05292  0.50000  0.24864  1.0000 0.9451184916
Zn  Zn18      1.0  0.05292  0.50000  0.75136  1.0000 0.9451184916
Zn  Zn19      1.0  0.94708  0.50000  0.24864  1.0000 0.9451184916
Zn  Zn20      1.0  0.94708  0.50000  0.75136  1.0000 0.9451184916
Zn  Zn21      1.0  0.24864  0.05292  0.50000  1.0000 0.9451184916
Zn  Zn22      1.0  0.75136  0.05292  0.50000  1.0000 0.9451184916
Zn  Zn23      1.0  0.24864  0.94708  0.50000  1.0000 0.9451184916
Zn  Zn24      1.0  0.75136  0.94708  0.50000  1.0000 0.9451184916
H   H1        1.0  0.43290  0.46120  0.00000  1.0000 0.1212598134
H   H2        1.0  0.56710  0.53880  0.00000  1.0000 0.1212598134
H   H3        1.0  0.56710  0.46120  0.00000  1.0000 0.1212598134
H   H4        1.0  0.43290  0.53880  0.00000  1.0000 0.1212598134
H   H5        1.0  0.00000  0.43290  0.46120  1.0000 0.1212598134
H   H6        1.0  0.00000  0.56710  0.53880  1.0000 0.1212598134
H   H7        1.0  0.00000  0.56710  0.46120  1.0000 0.1212598134
H   H8        1.0  0.00000  0.43290  0.53880  1.0000 0.1212598134
H   H9        1.0  0.46120  0.00000  0.43290  1.0000 0.1212598134
H   H10       1.0  0.53880  0.00000  0.56710  1.0000 0.1212598134
H   H11       1.0  0.46120  0.00000  0.56710  1.0000 0.1212598134
H   H12       1.0  0.53880  0.00000  0.43290  1.0000 0.1212598134
H   H13       1.0  0.40230  0.23280  0.15170  1.0000 0.1354541125
H   H14       1.0  0.59770  0.76720  0.15170  1.0000 0.1354541125
H   H15       1.0  0.59770  0.23280  0.84830  1.0000 0.1354541125
H   H16       1.0  0.40230  0.76720  0.84830  1.0000 0.1354541125
H   H17       1.0  0.15170  0.40230  0.23280  1.0000 0.1354541125
H   H18       1.0  0.15170  0.59770  0.76720  1.0000 0.1354541125
H   H19       1.0  0.84830  0.59770  0.23280  1.0000 0.1354541125
H   H20       1.0  0.84830  0.40230  0.76720  1.0000 0.1354541125
H   H21       1.0  0.23280  0.15170  0.40230  1.0000 0.1354541125
H   H22       1.0  0.76720  0.15170  0.59770  1.0000 0.1354541125
H   H23       1.0  0.23280  0.84830  0.59770  1.0000 0.1354541125
H   H24       1.0  0.76720  0.84830  0.40230  1.0000 0.1354541125
H   H25       1.0  0.59770  0.76720  0.84830  1.0000 0.1354541125
H   H26       1.0  0.40230  0.23280  0.84830  1.0000 0.1354541125
H   H27       1.0  0.40230  0.76720  0.15170  1.0000 0.1354541125
H   H28       1.0  0.59770  0.23280  0.15170  1.0000 0.1354541125
H   H29       1.0  0.84830  0.59770  0.76720  1.0000 0.1354541125
H   H30       1.0  0.84830  0.40230  0.23280  1.0000 0.1354541125
H   H31       1.0  0.15170  0.40230  0.76720  1.0000 0.1354541125
H   H32       1.0  0.15170  0.59770  0.23280  1.0000 0.1354541125
H   H33       1.0  0.76720  0.84830  0.59770  1.0000 0.1354541125
H   H34       1.0  0.23280  0.84830  0.40230  1.0000 0.1354541125
H   H35       1.0  0.76720  0.15170  0.40230  1.0000 0.1354541125
H   H36       1.0  0.23280  0.15170  0.59770  1.0000 0.1354541125
H   H37       1.0  0.34440  0.33890  0.09420  1.0000 0.1212598134
H   H38       1.0  0.65560  0.66110  0.09420  1.0000 0.1212598134
H   H39       1.0  0.65560  0.33890  0.90580  1.0000 0.1212598134
H   H40       1.0  0.34440  0.66110  0.90580  1.0000 0.1212598134
H   H41       1.0  0.09420  0.34440  0.33890  1.0000 0.1212598134
H   H42       1.0  0.09420  0.65560  0.66110  1.0000 0.1212598134
H   H43       1.0  0.90580  0.65560  0.33890  1.0000 0.1212598134
H   H44       1.0  0.90580  0.34440  0.66110  1.0000 0.1212598134
H   H45       1.0  0.33890  0.09420  0.34440  1.0000 0.1212598134
H   H46       1.0  0.66110  0.09420  0.65560  1.0000 0.1212598134
H   H47       1.0  0.33890  0.90580  0.65560  1.0000 0.1212598134
H   H48       1.0  0.66110  0.90580  0.34440  1.0000 0.1212598134
H   H49       1.0  0.65560  0.66110  0.90580  1.0000 0.1212598134
H   H50       1.0  0.34440  0.33890  0.90580  1.0000 0.1212598134
H   H51       1.0  0.34440  0.66110  0.09420  1.0000 0.1212598134
H   H52       1.0  0.65560  0.33890  0.09420  1.0000 0.1212598134
H   H53       1.0  0.90580  0.65560  0.66110  1.0000 0.1212598134
H   H54       1.0  0.90580  0.34440  0.33890  1.0000 0.1212598134
H   H55       1.0  0.09420  0.34440  0.66110  1.0000 0.1212598134
H   H56       1.0  0.09420  0.65560  0.33890  1.0000 0.1212598134
H   H57       1.0  0.66110  0.90580  0.65560  1.0000 0.1212598134
H   H58       1.0  0.33890  0.90580  0.34440  1.0000 0.1212598134
H   H59       1.0  0.66110  0.09420  0.34440  1.0000 0.1212598134
H   H60       1.0  0.33890  0.09420  0.65560  1.0000 0.1212598134
H   H61       1.0  0.50000  0.10950  0.06700  1.0000 0.1309487321
H   H62       1.0  0.50000  0.89050  0.06700  1.0000 0.1309487321
H   H63       1.0  0.50000  0.10950  0.93300  1.0000 0.1309487321
H   H64       1.0  0.50000  0.89050  0.93300  1.0000 0.1309487321
H   H65       1.0  0.06700  0.50000  0.10950  1.0000 0.1309487321
H   H66       1.0  0.06700  0.50000  0.89050  1.0000 0.1309487321
H   H67       1.0  0.93300  0.50000  0.10950  1.0000 0.1309487321
H   H68       1.0  0.93300  0.50000  0.89050  1.0000 0.1309487321
H   H69       1.0  0.10950  0.06700  0.50000  1.0000 0.1309487321
H   H70       1.0  0.89050  0.06700  0.50000  1.0000 0.1309487321
H   H71       1.0  0.10950  0.93300  0.50000  1.0000 0.1309487321
H   H72       1.0  0.89050  0.93300  0.50000  1.0000 0.1309487321
H   H73       1.0  0.28880  0.33950  0.14900  1.0000 0.1212598134
H   H74       1.0  0.71120  0.66050  0.14900  1.0000 0.1212598134
H   H75       1.0  0.71120  0.33950  0.85100  1.0000 0.1212598134
H   H76       1.0  0.28880  0.66050  0.85100  1.0000 0.1212598134
H   H77       1.0  0.14900  0.28880  0.33950  1.0000 0.1212598134
H   H78       1.0  0.14900  0.71120  0.66050  1.0000 0.1212598134
H   H79       1.0  0.85100  0.71120  0.33950  1.0000 0.1212598134
H   H80       1.0  0.85100  0.28880  0.66050  1.0000 0.1212598134
H   H81       1.0  0.33950  0.14900  0.28880  1.0000 0.1212598134
H   H82       1.0  0.66050  0.14900  0.71120  1.0000 0.1212598134
H   H83       1.0  0.33950  0.85100  0.71120  1.0000 0.1212598134
H   H84       1.0  0.66050  0.85100  0.28880  1.0000 0.1212598134
H   H85       1.0  0.71120  0.66050  0.85100  1.0000 0.1212598134
H   H86       1.0  0.28880  0.33950  0.85100  1.0000 0.1212598134
H   H87       1.0  0.28880  0.66050  0.14900  1.0000 0.1212598134
H   H88       1.0  0.71120  0.33950  0.14900  1.0000 0.1212598134
H   H89       1.0  0.85100  0.71120  0.66050  1.0000 0.1212598134
H   H90       1.0  0.85100  0.28880  0.33950  1.0000 0.1212598134
H   H91       1.0  0.14900  0.28880  0.66050  1.0000 0.1212598134
H   H92       1.0  0.14900  0.71120  0.33950  1.0000 0.1212598134
H   H93       1.0  0.66050  0.85100  0.71120  1.0000 0.1212598134
H   H94       1.0  0.33950  0.85100  0.28880  1.0000 0.1212598134
H   H95       1.0  0.66050  0.14900  0.28880  1.0000 0.1212598134
H   H96       1.0  0.33950  0.14900  0.71120  1.0000 0.1212598134
H   H97       1.0  0.50000  0.03180  0.06440  1.0000 0.1147513509
H   H98       1.0  0.50000  0.96820  0.06440  1.0000 0.1147513509
H   H99       1.0  0.50000  0.03180  0.93560  1.0000 0.1147513509
H   H100      1.0  0.50000  0.96820  0.93560  1.0000 0.1147513509
H   H101      1.0  0.06440  0.50000  0.03180  1.0000 0.1147513509
H   H102      1.0  0.06440  0.50000  0.96820  1.0000 0.1147513509
H   H103      1.0  0.93560  0.50000  0.03180  1.0000 0.1147513509
H   H104      1.0  0.93560  0.50000  0.96820  1.0000 0.1147513509
H   H105      1.0  0.03180  0.06440  0.50000  1.0000 0.1147513509
H   H106      1.0  0.96820  0.06440  0.50000  1.0000 0.1147513509
H   H107      1.0  0.03180  0.93560  0.50000  1.0000 0.1147513509
H   H108      1.0  0.96820  0.93560  0.50000  1.0000 0.1147513509
H   H109      1.0  0.39780  0.29100  0.24910  1.0000 0.0905008814
H   H110      1.0  0.60220  0.70900  0.24910  1.0000 0.0905008814
H   H111      1.0  0.60220  0.29100  0.75090  1.0000 0.0905008814
H   H112      1.0  0.39780  0.70900  0.75090  1.0000 0.0905008814
H   H113      1.0  0.24910  0.39780  0.29100  1.0000 0.0905008814
H   H114      1.0  0.24910  0.60220  0.70900  1.0000 0.0905008814
H   H115      1.0  0.75090  0.60220  0.29100  1.0000 0.0905008814
H   H116      1.0  0.75090  0.39780  0.70900  1.0000 0.0905008814
H   H117      1.0  0.29100  0.24910  0.39780  1.0000 0.0905008814
H   H118      1.0  0.70900  0.24910  0.60220  1.0000 0.0905008814
H   H119      1.0  0.29100  0.75090  0.60220  1.0000 0.0905008814
H   H120      1.0  0.70900  0.75090  0.39780  1.0000 0.0905008814
H   H121      1.0  0.60220  0.70900  0.75090  1.0000 0.0905008814
H   H122      1.0  0.39780  0.29100  0.75090  1.0000 0.0905008814
H   H123      1.0  0.39780  0.70900  0.24910  1.0000 0.0905008814
H   H124      1.0  0.60220  0.29100  0.24910  1.0000 0.0905008814
H   H125      1.0  0.75090  0.60220  0.70900  1.0000 0.0905008814
H   H126      1.0  0.75090  0.39780  0.29100  1.0000 0.0905008814
H   H127      1.0  0.24910  0.39780  0.70900  1.0000 0.0905008814
H   H128      1.0  0.24910  0.60220  0.29100  1.0000 0.0905008814
H   H129      1.0  0.70900  0.75090  0.60220  1.0000 0.0905008814
H   H130      1.0  0.29100  0.75090  0.39780  1.0000 0.0905008814
H   H131      1.0  0.70900  0.24910  0.39780  1.0000 0.0905008814
H   H132      1.0  0.29100  0.24910  0.60220  1.0000 0.0905008814
H   H133      1.0  0.36150  0.28050  0.28570  1.0000 0.0905008814
H   H134      1.0  0.63850  0.71950  0.28570  1.0000 0.0905008814
H   H135      1.0  0.63850  0.28050  0.71430  1.0000 0.0905008814
H   H136      1.0  0.36150  0.71950  0.71430  1.0000 0.0905008814
H   H137      1.0  0.28570  0.36150  0.28050  1.0000 0.0905008814
H   H138      1.0  0.28570  0.63850  0.71950  1.0000 0.0905008814
H   H139      1.0  0.71430  0.63850  0.28050  1.0000 0.0905008814
H   H140      1.0  0.71430  0.36150  0.71950  1.0000 0.0905008814
H   H141      1.0  0.28050  0.28570  0.36150  1.0000 0.0905008814
H   H142      1.0  0.71950  0.28570  0.63850  1.0000 0.0905008814
H   H143      1.0  0.28050  0.71430  0.63850  1.0000 0.0905008814
H   H144      1.0  0.71950  0.71430  0.36150  1.0000 0.0905008814
H   H145      1.0  0.63850  0.71950  0.71430  1.0000 0.0905008814
H   H146      1.0  0.36150  0.28050  0.71430  1.0000 0.0905008814
H   H147      1.0  0.36150  0.71950  0.28570  1.0000 0.0905008814
H   H148      1.0  0.63850  0.28050  0.28570  1.0000 0.0905008814
H   H149      1.0  0.71430  0.63850  0.71950  1.0000 0.0905008814
H   H150      1.0  0.71430  0.36150  0.28050  1.0000 0.0905008814
H   H151      1.0  0.28570  0.36150  0.71950  1.0000 0.0905008814
H   H152      1.0  0.28570  0.63850  0.28050  1.0000 0.0905008814
H   H153      1.0  0.71950  0.71430  0.63850  1.0000 0.0905008814
H   H154      1.0  0.28050  0.71430  0.36150  1.0000 0.0905008814
H   H155      1.0  0.71950  0.28570  0.36150  1.0000 0.0905008814
H   H156      1.0  0.28050  0.28570  0.63850  1.0000 0.0905008814
H   H157      1.0  0.40690  0.21330  0.23270  1.0000 0.1003132592
H   H158      1.0  0.59310  0.78670  0.23270  1.0000 0.1003132592
H   H159      1.0  0.59310  0.21330  0.76730  1.0000 0.1003132592
H   H160      1.0  0.40690  0.78670  0.76730  1.0000 0.1003132592
H   H161      1.0  0.23270  0.40690  0.21330  1.0000 0.1003132592
H   H162      1.0  0.23270  0.59310  0.78670  1.0000 0.1003132592
H   H163      1.0  0.76730  0.59310  0.21330  1.0000 0.1003132592
H   H164      1.0  0.76730  0.40690  0.78670  1.0000 0.1003132592
H   H165      1.0  0.21330  0.23270  0.40690  1.0000 0.1003132592
H   H166      1.0  0.78670  0.23270  0.59310  1.0000 0.1003132592
H   H167      1.0  0.21330  0.76730  0.59310  1.0000 0.1003132592
H   H168      1.0  0.78670  0.76730  0.40690  1.0000 0.1003132592
H   H169      1.0  0.59310  0.78670  0.76730  1.0000 0.1003132592
H   H170      1.0  0.40690  0.21330  0.76730  1.0000 0.1003132592
H   H171      1.0  0.40690  0.78670  0.23270  1.0000 0.1003132592
H   H172      1.0  0.59310  0.21330  0.23270  1.0000 0.1003132592
H   H173      1.0  0.76730  0.59310  0.78670  1.0000 0.1003132592
H   H174      1.0  0.76730  0.40690  0.21330  1.0000 0.1003132592
H   H175      1.0  0.23270  0.40690  0.78670  1.0000 0.1003132592
H   H176      1.0  0.23270  0.59310  0.21330  1.0000 0.1003132592
H   H177      1.0  0.78670  0.76730  0.59310  1.0000 0.1003132592
H   H178      1.0  0.21330  0.76730  0.40690  1.0000 0.1003132592
H   H179      1.0  0.78670  0.23270  0.40690  1.0000 0.1003132592
H   H180      1.0  0.21330  0.23270  0.59310  1.0000 0.1003132592
H   H181      1.0  0.37720  0.19960  0.27370  1.0000 0.0905008814
H   H182      1.0  0.62280  0.80040  0.27370  1.0000 0.0905008814
H   H183      1.0  0.62280  0.19960  0.72630  1.0000 0.0905008814
H   H184      1.0  0.37720  0.80040  0.72630  1.0000 0.0905008814
H   H185      1.0  0.27370  0.37720  0.19960  1.0000 0.0905008814
H   H186      1.0  0.27370  0.62280  0.80040  1.0000 0.0905008814
H   H187      1.0  0.72630  0.62280  0.19960  1.0000 0.0905008814
H   H188      1.0  0.72630  0.37720  0.80040  1.0000 0.0905008814
H   H189      1.0  0.19960  0.27370  0.37720  1.0000 0.0905008814
H   H190      1.0  0.80040  0.27370  0.62280  1.0000 0.0905008814
H   H191      1.0  0.19960  0.72630  0.62280  1.0000 0.0905008814
H   H192      1.0  0.80040  0.72630  0.37720  1.0000 0.0905008814
H   H193      1.0  0.62280  0.80040  0.72630  1.0000 0.0905008814
H   H194      1.0  0.37720  0.19960  0.72630  1.0000 0.0905008814
H   H195      1.0  0.37720  0.80040  0.27370  1.0000 0.0905008814
H   H196      1.0  0.62280  0.19960  0.27370  1.0000 0.0905008814
H   H197      1.0  0.72630  0.62280  0.80040  1.0000 0.0905008814
H   H198      1.0  0.72630  0.37720  0.19960  1.0000 0.0905008814
H   H199      1.0  0.27370  0.37720  0.80040  1.0000 0.0905008814
H   H200      1.0  0.27370  0.62280  0.19960  1.0000 0.0905008814
H   H201      1.0  0.80040  0.72630  0.62280  1.0000 0.0905008814
H   H202      1.0  0.19960  0.72630  0.37720  1.0000 0.0905008814
H   H203      1.0  0.80040  0.27370  0.37720  1.0000 0.0905008814
H   H204      1.0  0.19960  0.27370  0.62280  1.0000 0.0905008814
H   H205      1.0  0.33150  0.15240  0.22460  1.0000 0.0905008814
H   H206      1.0  0.66850  0.84760  0.22460  1.0000 0.0905008814
H   H207      1.0  0.66850  0.15240  0.77540  1.0000 0.0905008814
H   H208      1.0  0.33150  0.84760  0.77540  1.0000 0.0905008814
H   H209      1.0  0.22460  0.33150  0.15240  1.0000 0.0905008814
H   H210      1.0  0.22460  0.66850  0.84760  1.0000 0.0905008814
H   H211      1.0  0.77540  0.66850  0.15240  1.0000 0.0905008814
H   H212      1.0  0.77540  0.33150  0.84760  1.0000 0.0905008814
H   H213      1.0  0.15240  0.22460  0.33150  1.0000 0.0905008814
H   H214      1.0  0.84760  0.22460  0.66850  1.0000 0.0905008814
H   H215      1.0  0.15240  0.77540  0.66850  1.0000 0.0905008814
H   H216      1.0  0.84760  0.77540  0.33150  1.0000 0.0905008814
H   H217      1.0  0.66850  0.84760  0.77540  1.0000 0.0905008814
H   H218      1.0  0.33150  0.15240  0.77540  1.0000 0.0905008814
H   H219      1.0  0.33150  0.84760  0.22460  1.0000 0.0905008814
H   H220      1.0  0.66850  0.15240  0.22460  1.0000 0.0905008814
H   H221      1.0  0.77540  0.66850  0.84760  1.0000 0.0905008814
H   H222      1.0  0.77540  0.33150  0.15240  1.0000 0.0905008814
H   H223      1.0  0.22460  0.33150  0.84760  1.0000 0.0905008814
H   H224      1.0  0.22460  0.66850  0.15240  1.0000 0.0905008814
H   H225      1.0  0.84760  0.77540  0.66850  1.0000 0.0905008814
H   H226      1.0  0.15240  0.77540  0.33150  1.0000 0.0905008814
H   H227      1.0  0.84760  0.22460  0.33150  1.0000 0.0905008814
H   H228      1.0  0.15240  0.22460  0.66850  1.0000 0.0905008814
H   H229      1.0  0.36160  0.16620  0.18400  1.0000 0.1003132592
H   H230      1.0  0.63840  0.83380  0.18400  1.0000 0.1003132592
H   H231      1.0  0.63840  0.16620  0.81600  1.0000 0.1003132592
H   H232      1.0  0.36160  0.83380  0.81600  1.0000 0.1003132592
H   H233      1.0  0.18400  0.36160  0.16620  1.0000 0.1003132592
H   H234      1.0  0.18400  0.63840  0.83380  1.0000 0.1003132592
H   H235      1.0  0.81600  0.63840  0.16620  1.0000 0.1003132592
H   H236      1.0  0.81600  0.36160  0.83380  1.0000 0.1003132592
H   H237      1.0  0.16620  0.18400  0.36160  1.0000 0.1003132592
H   H238      1.0  0.83380  0.18400  0.63840  1.0000 0.1003132592
H   H239      1.0  0.16620  0.81600  0.63840  1.0000 0.1003132592
H   H240      1.0  0.83380  0.81600  0.36160  1.0000 0.1003132592
H   H241      1.0  0.63840  0.83380  0.81600  1.0000 0.1003132592
H   H242      1.0  0.36160  0.16620  0.81600  1.0000 0.1003132592
H   H243      1.0  0.36160  0.83380  0.18400  1.0000 0.1003132592
H   H244      1.0  0.63840  0.16620  0.18400  1.0000 0.1003132592
H   H245      1.0  0.81600  0.63840  0.83380  1.0000 0.1003132592
H   H246      1.0  0.81600  0.36160  0.16620  1.0000 0.1003132592
H   H247      1.0  0.18400  0.36160  0.83380  1.0000 0.1003132592
H   H248      1.0  0.18400  0.63840  0.16620  1.0000 0.1003132592
H   H249      1.0  0.83380  0.81600  0.63840  1.0000 0.1003132592
H   H250      1.0  0.16620  0.81600  0.36160  1.0000 0.1003132592
H   H251      1.0  0.83380  0.18400  0.36160  1.0000 0.1003132592
H   H252      1.0  0.16620  0.18400  0.63840  1.0000 0.1003132592
H   H253      1.0  0.29640  0.18980  0.14440  1.0000 0.1003132592
H   H254      1.0  0.70360  0.81020  0.14440  1.0000 0.1003132592
H   H255      1.0  0.70360  0.18980  0.85560  1.0000 0.1003132592
H   H256      1.0  0.29640  0.81020  0.85560  1.0000 0.1003132592
H   H257      1.0  0.14440  0.29640  0.18980  1.0000 0.1003132592
H   H258      1.0  0.14440  0.70360  0.81020  1.0000 0.1003132592
H   H259      1.0  0.85560  0.70360  0.18980  1.0000 0.1003132592
H   H260      1.0  0.85560  0.29640  0.81020  1.0000 0.1003132592
H   H261      1.0  0.18980  0.14440  0.29640  1.0000 0.1003132592
H   H262      1.0  0.81020  0.14440  0.70360  1.0000 0.1003132592
H   H263      1.0  0.18980  0.85560  0.70360  1.0000 0.1003132592
H   H264      1.0  0.81020  0.85560  0.29640  1.0000 0.1003132592
H   H265      1.0  0.70360  0.81020  0.85560  1.0000 0.1003132592
H   H266      1.0  0.29640  0.18980  0.85560  1.0000 0.1003132592
H   H267      1.0  0.29640  0.81020  0.14440  1.0000 0.1003132592
H   H268      1.0  0.70360  0.18980  0.14440  1.0000 0.1003132592
H   H269      1.0  0.85560  0.70360  0.81020  1.0000 0.1003132592
H   H270      1.0  0.85560  0.29640  0.18980  1.0000 0.1003132592
H   H271      1.0  0.14440  0.29640  0.81020  1.0000 0.1003132592
H   H272      1.0  0.14440  0.70360  0.18980  1.0000 0.1003132592
H   H273      1.0  0.81020  0.85560  0.70360  1.0000 0.1003132592
H   H274      1.0  0.18980  0.85560  0.29640  1.0000 0.1003132592
H   H275      1.0  0.81020  0.14440  0.29640  1.0000 0.1003132592
H   H276      1.0  0.18980  0.14440  0.70360  1.0000 0.1003132592
H   H277      1.0  0.26670  0.17480  0.18480  1.0000 0.1003132592
H   H278      1.0  0.73330  0.82520  0.18480  1.0000 0.1003132592
H   H279      1.0  0.73330  0.17480  0.81520  1.0000 0.1003132592
H   H280      1.0  0.26670  0.82520  0.81520  1.0000 0.1003132592
H   H281      1.0  0.18480  0.26670  0.17480  1.0000 0.1003132592
H   H282      1.0  0.18480  0.73330  0.82520  1.0000 0.1003132592
H   H283      1.0  0.81520  0.73330  0.17480  1.0000 0.1003132592
H   H284      1.0  0.81520  0.26670  0.82520  1.0000 0.1003132592
H   H285      1.0  0.17480  0.18480  0.26670  1.0000 0.1003132592
H   H286      1.0  0.82520  0.18480  0.73330  1.0000 0.1003132592
H   H287      1.0  0.17480  0.81520  0.73330  1.0000 0.1003132592
H   H288      1.0  0.82520  0.81520  0.26670  1.0000 0.1003132592
H   H289      1.0  0.73330  0.82520  0.81520  1.0000 0.1003132592
H   H290      1.0  0.26670  0.17480  0.81520  1.0000 0.1003132592
H   H291      1.0  0.26670  0.82520  0.18480  1.0000 0.1003132592
H   H292      1.0  0.73330  0.17480  0.18480  1.0000 0.1003132592
H   H293      1.0  0.81520  0.73330  0.82520  1.0000 0.1003132592
H   H294      1.0  0.81520  0.26670  0.17480  1.0000 0.1003132592
H   H295      1.0  0.18480  0.26670  0.82520  1.0000 0.1003132592
H   H296      1.0  0.18480  0.73330  0.17480  1.0000 0.1003132592
H   H297      1.0  0.82520  0.81520  0.73330  1.0000 0.1003132592
H   H298      1.0  0.17480  0.81520  0.26670  1.0000 0.1003132592
H   H299      1.0  0.82520  0.18480  0.26670  1.0000 0.1003132592
H   H300      1.0  0.17480  0.18480  0.73330  1.0000 0.1003132592
H   H301      1.0  0.31200  0.10890  0.12560  1.0000 0.0905008814
H   H302      1.0  0.68800  0.89110  0.12560  1.0000 0.0905008814
H   H303      1.0  0.68800  0.10890  0.87440  1.0000 0.0905008814
H   H304      1.0  0.31200  0.89110  0.87440  1.0000 0.0905008814
H   H305      1.0  0.12560  0.31200  0.10890  1.0000 0.0905008814
H   H306      1.0  0.12560  0.68800  0.89110  1.0000 0.0905008814
H   H307      1.0  0.87440  0.68800  0.10890  1.0000 0.0905008814
H   H308      1.0  0.87440  0.31200  0.89110  1.0000 0.0905008814
H   H309      1.0  0.10890  0.12560  0.31200  1.0000 0.0905008814
H   H310      1.0  0.89110  0.12560  0.68800  1.0000 0.0905008814
H   H311      1.0  0.10890  0.87440  0.68800  1.0000 0.0905008814
H   H312      1.0  0.89110  0.87440  0.31200  1.0000 0.0905008814
H   H313      1.0  0.68800  0.89110  0.87440  1.0000 0.0905008814
H   H314      1.0  0.31200  0.10890  0.87440  1.0000 0.0905008814
H   H315      1.0  0.31200  0.89110  0.12560  1.0000 0.0905008814
H   H316      1.0  0.68800  0.10890  0.12560  1.0000 0.0905008814
H   H317      1.0  0.87440  0.68800  0.89110  1.0000 0.0905008814
H   H318      1.0  0.87440  0.31200  0.10890  1.0000 0.0905008814
H   H319      1.0  0.12560  0.31200  0.89110  1.0000 0.0905008814
H   H320      1.0  0.12560  0.68800  0.10890  1.0000 0.0905008814
H   H321      1.0  0.89110  0.87440  0.68800  1.0000 0.0905008814
H   H322      1.0  0.10890  0.87440  0.31200  1.0000 0.0905008814
H   H323      1.0  0.89110  0.12560  0.31200  1.0000 0.0905008814
H   H324      1.0  0.10890  0.12560  0.68800  1.0000 0.0905008814
H   H325      1.0  0.26010  0.11690  0.12460  1.0000 0.1003132592
H   H326      1.0  0.73990  0.88310  0.12460  1.0000 0.1003132592
H   H327      1.0  0.73990  0.11690  0.87540  1.0000 0.1003132592
H   H328      1.0  0.26010  0.88310  0.87540  1.0000 0.1003132592
H   H329      1.0  0.12460  0.26010  0.11690  1.0000 0.1003132592
H   H330      1.0  0.12460  0.73990  0.88310  1.0000 0.1003132592
H   H331      1.0  0.87540  0.73990  0.11690  1.0000 0.1003132592
H   H332      1.0  0.87540  0.26010  0.88310  1.0000 0.1003132592
H   H333      1.0  0.11690  0.12460  0.26010  1.0000 0.1003132592
H   H334      1.0  0.88310  0.12460  0.73990  1.0000 0.1003132592
H   H335      1.0  0.11690  0.87540  0.73990  1.0000 0.1003132592
H   H336      1.0  0.88310  0.87540  0.26010  1.0000 0.1003132592
H   H337      1.0  0.73990  0.88310  0.87540  1.0000 0.1003132592
H   H338      1.0  0.26010  0.11690  0.87540  1.0000 0.1003132592
H   H339      1.0  0.26010  0.88310  0.12460  1.0000 0.1003132592
H   H340      1.0  0.73990  0.11690  0.12460  1.0000 0.1003132592
H   H341      1.0  0.87540  0.73990  0.88310  1.0000 0.1003132592
H   H342      1.0  0.87540  0.26010  0.11690  1.0000 0.1003132592
H   H343      1.0  0.12460  0.26010  0.88310  1.0000 0.1003132592
H   H344      1.0  0.12460  0.73990  0.11690  1.0000 0.1003132592
H   H345      1.0  0.88310  0.87540  0.73990  1.0000 0.1003132592
H   H346      1.0  0.11690  0.87540  0.26010  1.0000 0.1003132592
H   H347      1.0  0.88310  0.12460  0.26010  1.0000 0.1003132592
H   H348      1.0  0.11690  0.12460  0.73990  1.0000 0.1003132592
H   H349      1.0  0.28220  0.09380  0.16620  1.0000 0.1003132592
H   H350      1.0  0.71780  0.90620  0.16620  1.0000 0.1003132592
H   H351      1.0  0.71780  0.09380  0.83380  1.0000 0.1003132592
H   H352      1.0  0.28220  0.90620  0.83380  1.0000 0.1003132592
H   H353      1.0  0.16620  0.28220  0.09380  1.0000 0.1003132592
H   H354      1.0  0.16620  0.71780  0.90620  1.0000 0.1003132592
H   H355      1.0  0.83380  0.71780  0.09380  1.0000 0.1003132592
H   H356      1.0  0.83380  0.28220  0.90620  1.0000 0.1003132592
H   H357      1.0  0.09380  0.16620  0.28220  1.0000 0.1003132592
H   H358      1.0  0.90620  0.16620  0.71780  1.0000 0.1003132592
H   H359      1.0  0.09380  0.83380  0.71780  1.0000 0.1003132592
H   H360      1.0  0.90620  0.83380  0.28220  1.0000 0.1003132592
H   H361      1.0  0.71780  0.90620  0.83380  1.0000 0.1003132592
H   H362      1.0  0.28220  0.09380  0.83380  1.0000 0.1003132592
H   H363      1.0  0.28220  0.90620  0.16620  1.0000 0.1003132592
H   H364      1.0  0.71780  0.09380  0.16620  1.0000 0.1003132592
H   H365      1.0  0.83380  0.71780  0.90620  1.0000 0.1003132592
H   H366      1.0  0.83380  0.28220  0.09380  1.0000 0.1003132592
H   H367      1.0  0.16620  0.28220  0.90620  1.0000 0.1003132592
H   H368      1.0  0.16620  0.71780  0.09380  1.0000 0.1003132592
H   H369      1.0  0.90620  0.83380  0.71780  1.0000 0.1003132592
H   H370      1.0  0.09380  0.83380  0.28220  1.0000 0.1003132592
H   H371      1.0  0.90620  0.16620  0.28220  1.0000 0.1003132592
H   H372      1.0  0.09380  0.16620  0.71780  1.0000 0.1003132592
H   H373      1.0  0.45510  0.26660  0.29470  1.0000 0.1003132592
H   H374      1.0  0.54490  0.73340  0.29470  1.0000 0.1003132592
H   H375      1.0  0.54490  0.26660  0.70530  1.0000 0.1003132592
H   H376      1.0  0.45510  0.73340  0.70530  1.0000 0.1003132592
H   H377      1.0  0.29470  0.45510  0.26660  1.0000 0.1003132592
H   H378      1.0  0.29470  0.54490  0.73340  1.0000 0.1003132592
H   H379      1.0  0.70530  0.54490  0.26660  1.0000 0.1003132592
H   H380      1.0  0.70530  0.45510  0.73340  1.0000 0.1003132592
H   H381      1.0  0.26660  0.29470  0.45510  1.0000 0.1003132592
H   H382      1.0  0.73340  0.29470  0.54490  1.0000 0.1003132592
H   H383      1.0  0.26660  0.70530  0.54490  1.0000 0.1003132592
H   H384      1.0  0.73340  0.70530  0.45510  1.0000 0.1003132592
H   H385      1.0  0.54490  0.73340  0.70530  1.0000 0.1003132592
H   H386      1.0  0.45510  0.26660  0.70530  1.0000 0.1003132592
H   H387      1.0  0.45510  0.73340  0.29470  1.0000 0.1003132592
H   H388      1.0  0.54490  0.26660  0.29470  1.0000 0.1003132592
H   H389      1.0  0.70530  0.54490  0.73340  1.0000 0.1003132592
H   H390      1.0  0.70530  0.45510  0.26660  1.0000 0.1003132592
H   H391      1.0  0.29470  0.45510  0.73340  1.0000 0.1003132592
H   H392      1.0  0.29470  0.54490  0.26660  1.0000 0.1003132592
H   H393      1.0  0.73340  0.70530  0.54490  1.0000 0.1003132592
H   H394      1.0  0.26660  0.70530  0.45510  1.0000 0.1003132592
H   H395      1.0  0.73340  0.29470  0.45510  1.0000 0.1003132592
H   H396      1.0  0.26660  0.29470  0.54490  1.0000 0.1003132592
H   H397      1.0  0.42170  0.24350  0.32790  1.0000 0.1147513509
H   H398      1.0  0.57830  0.75650  0.32790  1.0000 0.1147513509
H   H399      1.0  0.57830  0.24350  0.67210  1.0000 0.1147513509
H   H400      1.0  0.42170  0.75650  0.67210  1.0000 0.1147513509
H   H401      1.0  0.32790  0.42170  0.24350  1.0000 0.1147513509
H   H402      1.0  0.32790  0.57830  0.75650  1.0000 0.1147513509
H   H403      1.0  0.67210  0.57830  0.24350  1.0000 0.1147513509
H   H404      1.0  0.67210  0.42170  0.75650  1.0000 0.1147513509
H   H405      1.0  0.24350  0.32790  0.42170  1.0000 0.1147513509
H   H406      1.0  0.75650  0.32790  0.57830  1.0000 0.1147513509
H   H407      1.0  0.24350  0.67210  0.57830  1.0000 0.1147513509
H   H408      1.0  0.75650  0.67210  0.42170  1.0000 0.1147513509
H   H409      1.0  0.57830  0.75650  0.67210  1.0000 0.1147513509
H   H410      1.0  0.42170  0.24350  0.67210  1.0000 0.1147513509
H   H411      1.0  0.42170  0.75650  0.32790  1.0000 0.1147513509
H   H412      1.0  0.57830  0.24350  0.32790  1.0000 0.1147513509
H   H413      1.0  0.67210  0.57830  0.75650  1.0000 0.1147513509
H   H414      1.0  0.67210  0.42170  0.24350  1.0000 0.1147513509
H   H415      1.0  0.32790  0.42170  0.75650  1.0000 0.1147513509
H   H416      1.0  0.32790  0.57830  0.24350  1.0000 0.1147513509
H   H417      1.0  0.75650  0.67210  0.57830  1.0000 0.1147513509
H   H418      1.0  0.24350  0.67210  0.42170  1.0000 0.1147513509
H   H419      1.0  0.75650  0.32790  0.42170  1.0000 0.1147513509
H   H420      1.0  0.24350  0.32790  0.57830  1.0000 0.1147513509
H   H421      1.0  0.42490  0.29580  0.32620  1.0000 0.1212598134
H   H422      1.0  0.57510  0.70420  0.32620  1.0000 0.1147513509
H   H423      1.0  0.57510  0.29580  0.67380  1.0000 0.1147513509
H   H424      1.0  0.42490  0.70420  0.67380  1.0000 0.1147513509
H   H425      1.0  0.32620  0.42490  0.29580  1.0000 0.1147513509
H   H426      1.0  0.32620  0.57510  0.70420  1.0000 0.1147513509
H   H427      1.0  0.67380  0.57510  0.29580  1.0000 0.1147513509
H   H428      1.0  0.67380  0.42490  0.70420  1.0000 0.1147513509
H   H429      1.0  0.29580  0.32620  0.42490  1.0000 0.1147513509
H   H430      1.0  0.70420  0.32620  0.57510  1.0000 0.1212598134
H   H431      1.0  0.29580  0.67380  0.57510  1.0000 0.1147513509
H   H432      1.0  0.70420  0.67380  0.42490  1.0000 0.1147513509
H   H433      1.0  0.57510  0.70420  0.67380  1.0000 0.1147513509
H   H434      1.0  0.42490  0.29580  0.67380  1.0000 0.1147513509
H   H435      1.0  0.42490  0.70420  0.32620  1.0000 0.1147513509
H   H436      1.0  0.57510  0.29580  0.32620  1.0000 0.1212598134
H   H437      1.0  0.67380  0.57510  0.70420  1.0000 0.1147513509
H   H438      1.0  0.67380  0.42490  0.29580  1.0000 0.1212598134
H   H439      1.0  0.32620  0.42490  0.70420  1.0000 0.1147513509
H   H440      1.0  0.32620  0.57510  0.29580  1.0000 0.1147513509
H   H441      1.0  0.70420  0.67380  0.57510  1.0000 0.1147513509
H   H442      1.0  0.29580  0.67380  0.42490  1.0000 0.1147513509
H   H443      1.0  0.70420  0.32620  0.42490  1.0000 0.1212598134
H   H444      1.0  0.29580  0.32620  0.57510  1.0000 0.1147513509
C   C1        1.0  0.50000  0.40430  0.00000  1.0000 0.5978549627
C   C2        1.0  0.50000  0.59570  0.00000  1.0000 0.5978549627
C   C3        1.0  0.00000  0.50000  0.40430  1.0000 0.5978549627
C   C4        1.0  0.00000  0.50000  0.59570  1.0000 0.5978549627
C   C5        1.0  0.40430  0.00000  0.50000  1.0000 0.5978549627
C   C6        1.0  0.59570  0.00000  0.50000  1.0000 0.5978549627
C   C7        1.0  0.50000  0.45340  0.00000  1.0000 -0.0612674805
C   C8        1.0  0.50000  0.54660  0.00000  1.0000 -0.0612674805
C   C9        1.0  0.00000  0.50000  0.45340  1.0000 -0.0612674805
C   C10       1.0  0.00000  0.50000  0.54660  1.0000 -0.0612674805
C   C11       1.0  0.45340  0.00000  0.50000  1.0000 -0.0612674805
C   C12       1.0  0.54660  0.00000  0.50000  1.0000 -0.0612674805
C   C13       1.0  0.41461  0.28612  0.08276  1.0000 0.5978549627
C   C14       1.0  0.58539  0.71388  0.08276  1.0000 0.5978549627
C   C15       1.0  0.58539  0.28612  0.91724  1.0000 0.5978549627
C   C16       1.0  0.41461  0.71388  0.91724  1.0000 0.5978549627
C   C17       1.0  0.08276  0.41461  0.28612  1.0000 0.5978549627
C   C18       1.0  0.08276  0.58539  0.71388  1.0000 0.5978549627
C   C19       1.0  0.91724  0.58539  0.28612  1.0000 0.5978549627
C   C20       1.0  0.91724  0.41461  0.71388  1.0000 0.5978549627
C   C21       1.0  0.28612  0.08276  0.41461  1.0000 0.5978549627
C   C22       1.0  0.71388  0.08276  0.58539  1.0000 0.5978549627
C   C23       1.0  0.28612  0.91724  0.58539  1.0000 0.5978549627
C   C24       1.0  0.71388  0.91724  0.41461  1.0000 0.5978549627
C   C25       1.0  0.58539  0.71388  0.91724  1.0000 0.5978549627
C   C26       1.0  0.41461  0.28612  0.91724  1.0000 0.5978549627
C   C27       1.0  0.41461  0.71388  0.08276  1.0000 0.5978549627
C   C28       1.0  0.58539  0.28612  0.08276  1.0000 0.5978549627
C   C29       1.0  0.91724  0.58539  0.71388  1.0000 0.5978549627
C   C30       1.0  0.91724  0.41461  0.28612  1.0000 0.5978549627
C   C31       1.0  0.08276  0.41461  0.71388  1.0000 0.5978549627
C   C32       1.0  0.08276  0.58539  0.28612  1.0000 0.5978549627
C   C33       1.0  0.71388  0.91724  0.58539  1.0000 0.5978549627
C   C34       1.0  0.28612  0.91724  0.41461  1.0000 0.5978549627
C   C35       1.0  0.71388  0.08276  0.41461  1.0000 0.5978549627
C   C36       1.0  0.28612  0.08276  0.58539  1.0000 0.5978549627
C   C37       1.0  0.50000  0.16750  0.00000  1.0000 0.5941075432
C   C38       1.0  0.50000  0.83250  0.00000  1.0000 0.5941075432
C   C39       1.0  0.00000  0.50000  0.16750  1.0000 0.5941075432
C   C40       1.0  0.00000  0.50000  0.83250  1.0000 0.5941075432
C   C41       1.0  0.16750  0.00000  0.50000  1.0000 0.5941075432
C   C42       1.0  0.83250  0.00000  0.50000  1.0000 0.5941075432
C   C43       1.0  0.31200  0.28510  0.18150  1.0000 0.0541196513
C   C44       1.0  0.68800  0.71490  0.18150  1.0000 0.0541196513
C   C45       1.0  0.68800  0.28510  0.81850  1.0000 0.0541196513
C   C46       1.0  0.31200  0.71490  0.81850  1.0000 0.0541196513
C   C47       1.0  0.18150  0.31200  0.28510  1.0000 0.0541196513
C   C48       1.0  0.18150  0.68800  0.71490  1.0000 0.0541196513
C   C49       1.0  0.81850  0.68800  0.28510  1.0000 0.0541196513
C   C50       1.0  0.81850  0.31200  0.71490  1.0000 0.0541196513
C   C51       1.0  0.28510  0.18150  0.31200  1.0000 0.0541196513
C   C52       1.0  0.71490  0.18150  0.68800  1.0000 0.0541196513
C   C53       1.0  0.28510  0.81850  0.68800  1.0000 0.0541196513
C   C54       1.0  0.71490  0.81850  0.31200  1.0000 0.0541196513
C   C55       1.0  0.68800  0.71490  0.81850  1.0000 0.0541196513
C   C56       1.0  0.31200  0.28510  0.81850  1.0000 0.0541196513
C   C57       1.0  0.31200  0.71490  0.18150  1.0000 0.0541196513
C   C58       1.0  0.68800  0.28510  0.18150  1.0000 0.0541196513
C   C59       1.0  0.81850  0.68800  0.71490  1.0000 0.0541196513
C   C60       1.0  0.81850  0.31200  0.28510  1.0000 0.0541196513
C   C61       1.0  0.18150  0.31200  0.71490  1.0000 0.0541196513
C   C62       1.0  0.18150  0.68800  0.28510  1.0000 0.0541196513
C   C63       1.0  0.71490  0.81850  0.68800  1.0000 0.0541196513
C   C64       1.0  0.28510  0.81850  0.31200  1.0000 0.0541196513
C   C65       1.0  0.71490  0.18150  0.31200  1.0000 0.0541196513
C   C66       1.0  0.28510  0.18150  0.68800  1.0000 0.0541196513
C   C67       1.0  0.45990  0.47675  0.00000  1.0000 -0.0820886905
C   C68       1.0  0.54010  0.52325  0.00000  1.0000 -0.0820886905
C   C69       1.0  0.54010  0.47675  0.00000  1.0000 -0.0820886905
C   C70       1.0  0.45990  0.52325  0.00000  1.0000 -0.0820886905
C   C71       1.0  0.00000  0.45990  0.47675  1.0000 -0.0820886905
C   C72       1.0  0.00000  0.54010  0.52325  1.0000 -0.0820886905
C   C73       1.0  0.00000  0.54010  0.47675  1.0000 -0.0820886905
C   C74       1.0  0.00000  0.45990  0.52325  1.0000 -0.0820886905
C   C75       1.0  0.47675  0.00000  0.45990  1.0000 -0.0820886905
C   C76       1.0  0.52325  0.00000  0.54010  1.0000 -0.0820886905
C   C77       1.0  0.47675  0.00000  0.54010  1.0000 -0.0820886905
C   C78       1.0  0.52325  0.00000  0.45990  1.0000 -0.0820886905
C   C79       1.0  0.34391  0.25248  0.18360  1.0000 -0.0096392063
C   C80       1.0  0.65609  0.74752  0.18360  1.0000 -0.0096392063
C   C81       1.0  0.65609  0.25248  0.81640  1.0000 -0.0096392063
C   C82       1.0  0.34391  0.74752  0.81640  1.0000 -0.0096392063
C   C83       1.0  0.18360  0.34391  0.25248  1.0000 -0.0096392063
C   C84       1.0  0.18360  0.65609  0.74752  1.0000 -0.0096392063
C   C85       1.0  0.81640  0.65609  0.25248  1.0000 -0.0096392063
C   C86       1.0  0.81640  0.34391  0.74752  1.0000 -0.0096392063
C   C87       1.0  0.25248  0.18360  0.34391  1.0000 -0.0096392063
C   C88       1.0  0.74752  0.18360  0.65609  1.0000 -0.0096392063
C   C89       1.0  0.25248  0.81640  0.65609  1.0000 -0.0096392063
C   C90       1.0  0.74752  0.81640  0.34391  1.0000 -0.0096392063
C   C91       1.0  0.65609  0.74752  0.81640  1.0000 -0.0096392063
C   C92       1.0  0.34391  0.25248  0.81640  1.0000 -0.0096392063
C   C93       1.0  0.34391  0.74752  0.18360  1.0000 -0.0096392063
C   C94       1.0  0.65609  0.25248  0.18360  1.0000 -0.0096392063
C   C95       1.0  0.81640  0.65609  0.74752  1.0000 -0.0096392063
C   C96       1.0  0.81640  0.34391  0.25248  1.0000 -0.0096392063
C   C97       1.0  0.18360  0.34391  0.74752  1.0000 -0.0096392063
C   C98       1.0  0.18360  0.65609  0.25248  1.0000 -0.0096392063
C   C99       1.0  0.74752  0.81640  0.65609  1.0000 -0.0096392063
C   C100      1.0  0.25248  0.81640  0.34391  1.0000 -0.0096392063
C   C101      1.0  0.74752  0.18360  0.34391  1.0000 -0.0096392063
C   C102      1.0  0.25248  0.18360  0.65609  1.0000 -0.0096392063
C   C103      1.0  0.50000  0.11810  0.00000  1.0000 -0.0612674805
C   C104      1.0  0.50000  0.88190  0.00000  1.0000 -0.0612674805
C   C105      1.0  0.00000  0.50000  0.11810  1.0000 -0.0612674805
C   C106      1.0  0.00000  0.50000  0.88190  1.0000 -0.0612674805
C   C107      1.0  0.11810  0.00000  0.50000  1.0000 -0.0612674805
C   C108      1.0  0.88190  0.00000  0.50000  1.0000 -0.0612674805
C   C109      1.0  0.37910  0.25352  0.15061  1.0000 -0.1390651715
C   C110      1.0  0.62090  0.74648  0.15061  1.0000 -0.1390651715
C   C111      1.0  0.62090  0.25352  0.84939  1.0000 -0.1390651715
C   C112      1.0  0.37910  0.74648  0.84939  1.0000 -0.1390651715
C   C113      1.0  0.15061  0.37910  0.25352  1.0000 -0.1390651715
C   C114      1.0  0.15061  0.62090  0.74648  1.0000 -0.1390651715
C   C115      1.0  0.84939  0.62090  0.25352  1.0000 -0.1390651715
C   C116      1.0  0.84939  0.37910  0.74648  1.0000 -0.1390651715
C   C117      1.0  0.25352  0.15061  0.37910  1.0000 -0.1390651715
C   C118      1.0  0.74648  0.15061  0.62090  1.0000 -0.1390651715
C   C119      1.0  0.25352  0.84939  0.62090  1.0000 -0.1390651715
C   C120      1.0  0.74648  0.84939  0.37910  1.0000 -0.1390651715
C   C121      1.0  0.62090  0.74648  0.84939  1.0000 -0.1390651715
C   C122      1.0  0.37910  0.25352  0.84939  1.0000 -0.1390651715
C   C123      1.0  0.37910  0.74648  0.15061  1.0000 -0.1390651715
C   C124      1.0  0.62090  0.25352  0.15061  1.0000 -0.1390651715
C   C125      1.0  0.84939  0.62090  0.74648  1.0000 -0.1390651715
C   C126      1.0  0.84939  0.37910  0.25352  1.0000 -0.1390651715
C   C127      1.0  0.15061  0.37910  0.74648  1.0000 -0.1390651715
C   C128      1.0  0.15061  0.62090  0.25352  1.0000 -0.1390651715
C   C129      1.0  0.74648  0.84939  0.62090  1.0000 -0.1390651715
C   C130      1.0  0.25352  0.84939  0.37910  1.0000 -0.1390651715
C   C131      1.0  0.74648  0.15061  0.37910  1.0000 -0.1390651715
C   C132      1.0  0.25352  0.15061  0.62090  1.0000 -0.1390651715
C   C133      1.0  0.37810  0.28509  0.11775  1.0000 -0.019738591
C   C134      1.0  0.62190  0.71491  0.11775  1.0000 -0.019738591
C   C135      1.0  0.62190  0.28509  0.88225  1.0000 -0.019738591
C   C136      1.0  0.37810  0.71491  0.88225  1.0000 -0.019738591
C   C137      1.0  0.11775  0.37810  0.28509  1.0000 -0.019738591
C   C138      1.0  0.11775  0.62190  0.71491  1.0000 -0.019738591
C   C139      1.0  0.88225  0.62190  0.28509  1.0000 -0.019738591
C   C140      1.0  0.88225  0.37810  0.71491  1.0000 -0.019738591
C   C141      1.0  0.28509  0.11775  0.37810  1.0000 -0.019738591
C   C142      1.0  0.71491  0.11775  0.62190  1.0000 -0.019738591
C   C143      1.0  0.28509  0.88225  0.62190  1.0000 -0.019738591
C   C144      1.0  0.71491  0.88225  0.37810  1.0000 -0.019738591
C   C145      1.0  0.62190  0.71491  0.88225  1.0000 -0.019738591
C   C146      1.0  0.37810  0.28509  0.88225  1.0000 -0.019738591
C   C147      1.0  0.37810  0.71491  0.11775  1.0000 -0.019738591
C   C148      1.0  0.62190  0.28509  0.11775  1.0000 -0.019738591
C   C149      1.0  0.88225  0.62190  0.71491  1.0000 -0.019738591
C   C150      1.0  0.88225  0.37810  0.28509  1.0000 -0.019738591
C   C151      1.0  0.11775  0.37810  0.71491  1.0000 -0.019738591
C   C152      1.0  0.11775  0.62190  0.28509  1.0000 -0.019738591
C   C153      1.0  0.71491  0.88225  0.62190  1.0000 -0.019738591
C   C154      1.0  0.28509  0.88225  0.37810  1.0000 -0.019738591
C   C155      1.0  0.71491  0.11775  0.37810  1.0000 -0.019738591
C   C156      1.0  0.28509  0.11775  0.62190  1.0000 -0.019738591
C   C157      1.0  0.34450  0.31740  0.11680  1.0000 -0.097822952
C   C158      1.0  0.65550  0.68260  0.11680  1.0000 -0.097822952
C   C159      1.0  0.65550  0.31740  0.88320  1.0000 -0.097822952
C   C160      1.0  0.34450  0.68260  0.88320  1.0000 -0.097822952
C   C161      1.0  0.11680  0.34450  0.31740  1.0000 -0.097822952
C   C162      1.0  0.11680  0.65550  0.68260  1.0000 -0.097822952
C   C163      1.0  0.88320  0.65550  0.31740  1.0000 -0.097822952
C   C164      1.0  0.88320  0.34450  0.68260  1.0000 -0.097822952
C   C165      1.0  0.31740  0.11680  0.34450  1.0000 -0.097822952
C   C166      1.0  0.68260  0.11680  0.65550  1.0000 -0.097822952
C   C167      1.0  0.31740  0.88320  0.65550  1.0000 -0.097822952
C   C168      1.0  0.68260  0.88320  0.34450  1.0000 -0.097822952
C   C169      1.0  0.65550  0.68260  0.88320  1.0000 -0.097822952
C   C170      1.0  0.34450  0.31740  0.88320  1.0000 -0.097822952
C   C171      1.0  0.34450  0.68260  0.11680  1.0000 -0.097822952
C   C172      1.0  0.65550  0.31740  0.11680  1.0000 -0.097822952
C   C173      1.0  0.88320  0.65550  0.68260  1.0000 -0.097822952
C   C174      1.0  0.88320  0.34450  0.31740  1.0000 -0.097822952
C   C175      1.0  0.11680  0.34450  0.68260  1.0000 -0.097822952
C   C176      1.0  0.11680  0.65550  0.31740  1.0000 -0.097822952
C   C177      1.0  0.68260  0.88320  0.65550  1.0000 -0.097822952
C   C178      1.0  0.31740  0.88320  0.34450  1.0000 -0.097822952
C   C179      1.0  0.68260  0.11680  0.34450  1.0000 -0.097822952
C   C180      1.0  0.31740  0.11680  0.65550  1.0000 -0.097822952
C   C181      1.0  0.50000  0.02390  0.00000  1.0000 0.0764331902
C   C182      1.0  0.50000  0.97610  0.00000  1.0000 0.0764331902
C   C183      1.0  0.00000  0.50000  0.02390  1.0000 0.0764331902
C   C184      1.0  0.00000  0.50000  0.97610  1.0000 0.0764331902
C   C185      1.0  0.02390  0.00000  0.50000  1.0000 0.0764331902
C   C186      1.0  0.97610  0.00000  0.50000  1.0000 0.0764331902
C   C187      1.0  0.50000  0.09470  0.03960  1.0000 -0.0820886905
C   C188      1.0  0.50000  0.90530  0.03960  1.0000 -0.0820886905
C   C189      1.0  0.50000  0.09470  0.96040  1.0000 -0.0820886905
C   C190      1.0  0.50000  0.90530  0.96040  1.0000 -0.0820886905
C   C191      1.0  0.03960  0.50000  0.09470  1.0000 -0.0820886905
C   C192      1.0  0.03960  0.50000  0.90530  1.0000 -0.0820886905
C   C193      1.0  0.96040  0.50000  0.09470  1.0000 -0.0820886905
C   C194      1.0  0.96040  0.50000  0.90530  1.0000 -0.0820886905
C   C195      1.0  0.09470  0.03960  0.50000  1.0000 -0.0820886905
C   C196      1.0  0.90530  0.03960  0.50000  1.0000 -0.0820886905
C   C197      1.0  0.09470  0.96040  0.50000  1.0000 -0.0820886905
C   C198      1.0  0.90530  0.96040  0.50000  1.0000 -0.0820886905
C   C199      1.0  0.33930  0.22010  0.21960  1.0000 0.0905008814
C   C200      1.0  0.66070  0.77990  0.21960  1.0000 0.0905008814
C   C201      1.0  0.66070  0.22010  0.78040  1.0000 0.0905008814
C   C202      1.0  0.33930  0.77990  0.78040  1.0000 0.0905008814
C   C203      1.0  0.21960  0.33930  0.22010  1.0000 0.0905008814
C   C204      1.0  0.21960  0.66070  0.77990  1.0000 0.0905008814
C   C205      1.0  0.78040  0.66070  0.22010  1.0000 0.0905008814
C   C206      1.0  0.78040  0.33930  0.77990  1.0000 0.0905008814
C   C207      1.0  0.22010  0.21960  0.33930  1.0000 0.0905008814
C   C208      1.0  0.77990  0.21960  0.66070  1.0000 0.0905008814
C   C209      1.0  0.22010  0.78040  0.66070  1.0000 0.0905008814
C   C210      1.0  0.77990  0.78040  0.33930  1.0000 0.0905008814
C   C211      1.0  0.66070  0.77990  0.78040  1.0000 0.0905008814
C   C212      1.0  0.33930  0.22010  0.78040  1.0000 0.0905008814
C   C213      1.0  0.33930  0.77990  0.21960  1.0000 0.0905008814
C   C214      1.0  0.66070  0.22010  0.21960  1.0000 0.0905008814
C   C215      1.0  0.78040  0.66070  0.77990  1.0000 0.0905008814
C   C216      1.0  0.78040  0.33930  0.22010  1.0000 0.0905008814
C   C217      1.0  0.21960  0.33930  0.77990  1.0000 0.0905008814
C   C218      1.0  0.21960  0.66070  0.22010  1.0000 0.0905008814
C   C219      1.0  0.77990  0.78040  0.66070  1.0000 0.0905008814
C   C220      1.0  0.22010  0.78040  0.33930  1.0000 0.0905008814
C   C221      1.0  0.77990  0.21960  0.33930  1.0000 0.0905008814
C   C222      1.0  0.22010  0.21960  0.66070  1.0000 0.0905008814
C   C223      1.0  0.27970  0.27660  0.22160  1.0000 -0.0096392063
C   C224      1.0  0.72030  0.72340  0.22160  1.0000 -0.0096392063
C   C225      1.0  0.72030  0.27660  0.77840  1.0000 -0.0096392063
C   C226      1.0  0.27970  0.72340  0.77840  1.0000 -0.0096392063
C   C227      1.0  0.22160  0.27970  0.27660  1.0000 -0.0096392063
C   C228      1.0  0.22160  0.72030  0.72340  1.0000 -0.0096392063
C   C229      1.0  0.77840  0.72030  0.27660  1.0000 -0.0096392063
C   C230      1.0  0.77840  0.27970  0.72340  1.0000 -0.0096392063
C   C231      1.0  0.27660  0.22160  0.27970  1.0000 -0.0096392063
C   C232      1.0  0.72340  0.22160  0.72030  1.0000 -0.0096392063
C   C233      1.0  0.27660  0.77840  0.72030  1.0000 -0.0096392063
C   C234      1.0  0.72340  0.77840  0.27970  1.0000 -0.0096392063
C   C235      1.0  0.72030  0.72340  0.77840  1.0000 -0.0096392063
C   C236      1.0  0.27970  0.27660  0.77840  1.0000 -0.0096392063
C   C237      1.0  0.27970  0.72340  0.22160  1.0000 -0.0096392063
C   C238      1.0  0.72030  0.27660  0.22160  1.0000 -0.0096392063
C   C239      1.0  0.77840  0.72030  0.72340  1.0000 -0.0096392063
C   C240      1.0  0.77840  0.27970  0.27660  1.0000 -0.0096392063
C   C241      1.0  0.22160  0.27970  0.72340  1.0000 -0.0096392063
C   C242      1.0  0.22160  0.72030  0.27660  1.0000 -0.0096392063
C   C243      1.0  0.72340  0.77840  0.72030  1.0000 -0.0096392063
C   C244      1.0  0.27660  0.77840  0.27970  1.0000 -0.0096392063
C   C245      1.0  0.72340  0.22160  0.27970  1.0000 -0.0096392063
C   C246      1.0  0.27660  0.22160  0.72030  1.0000 -0.0096392063
C   C247      1.0  0.31110  0.31780  0.14920  1.0000 -0.157085414
C   C248      1.0  0.68890  0.68220  0.14920  1.0000 -0.157085414
C   C249      1.0  0.68890  0.31780  0.85080  1.0000 -0.157085414
C   C250      1.0  0.31110  0.68220  0.85080  1.0000 -0.157085414
C   C251      1.0  0.14920  0.31110  0.31780  1.0000 -0.157085414
C   C252      1.0  0.14920  0.68890  0.68220  1.0000 -0.157085414
C   C253      1.0  0.85080  0.68890  0.31780  1.0000 -0.157085414
C   C254      1.0  0.85080  0.31110  0.68220  1.0000 -0.157085414
C   C255      1.0  0.31780  0.14920  0.31110  1.0000 -0.157085414
C   C256      1.0  0.68220  0.14920  0.68890  1.0000 -0.157085414
C   C257      1.0  0.31780  0.85080  0.68890  1.0000 -0.157085414
C   C258      1.0  0.68220  0.85080  0.31110  1.0000 -0.157085414
C   C259      1.0  0.68890  0.68220  0.85080  1.0000 -0.157085414
C   C260      1.0  0.31110  0.31780  0.85080  1.0000 -0.157085414
C   C261      1.0  0.31110  0.68220  0.14920  1.0000 -0.157085414
C   C262      1.0  0.68890  0.31780  0.14920  1.0000 -0.157085414
C   C263      1.0  0.85080  0.68890  0.68220  1.0000 -0.157085414
C   C264      1.0  0.85080  0.31110  0.31780  1.0000 -0.157085414
C   C265      1.0  0.14920  0.31110  0.68220  1.0000 -0.157085414
C   C266      1.0  0.14920  0.68890  0.31780  1.0000 -0.157085414
C   C267      1.0  0.68220  0.85080  0.68890  1.0000 -0.157085414
C   C268      1.0  0.31780  0.85080  0.31110  1.0000 -0.157085414
C   C269      1.0  0.68220  0.14920  0.31110  1.0000 -0.157085414
C   C270      1.0  0.31780  0.14920  0.68890  1.0000 -0.157085414
C   C271      1.0  0.29744  0.23800  0.24250  1.0000 -0.0417086357
C   C272      1.0  0.70256  0.76200  0.24250  1.0000 -0.0417086357
C   C273      1.0  0.70256  0.23800  0.75750  1.0000 -0.0417086357
C   C274      1.0  0.29744  0.76200  0.75750  1.0000 -0.0417086357
C   C275      1.0  0.24250  0.29744  0.23800  1.0000 -0.0417086357
C   C276      1.0  0.24250  0.70256  0.76200  1.0000 -0.0417086357
C   C277      1.0  0.75750  0.70256  0.23800  1.0000 -0.0417086357
C   C278      1.0  0.75750  0.29744  0.76200  1.0000 -0.0417086357
C   C279      1.0  0.23800  0.24250  0.29744  1.0000 -0.0417086357
C   C280      1.0  0.76200  0.24250  0.70256  1.0000 -0.0417086357
C   C281      1.0  0.23800  0.75750  0.70256  1.0000 -0.0417086357
C   C282      1.0  0.76200  0.75750  0.29744  1.0000 -0.0417086357
C   C283      1.0  0.70256  0.76200  0.75750  1.0000 -0.0417086357
C   C284      1.0  0.29744  0.23800  0.75750  1.0000 -0.0417086357
C   C285      1.0  0.29744  0.76200  0.24250  1.0000 -0.0417086357
C   C286      1.0  0.70256  0.23800  0.24250  1.0000 -0.0417086357
C   C287      1.0  0.75750  0.70256  0.76200  1.0000 -0.0417086357
C   C288      1.0  0.75750  0.29744  0.23800  1.0000 -0.0417086357
C   C289      1.0  0.24250  0.29744  0.76200  1.0000 -0.0417086357
C   C290      1.0  0.24250  0.70256  0.23800  1.0000 -0.0417086357
C   C291      1.0  0.76200  0.75750  0.70256  1.0000 -0.0417086357
C   C292      1.0  0.23800  0.75750  0.29744  1.0000 -0.0417086357
C   C293      1.0  0.76200  0.24250  0.29744  1.0000 -0.0417086357
C   C294      1.0  0.23800  0.24250  0.70256  1.0000 -0.0417086357
C   C295      1.0  0.50000  0.04750  0.03750  1.0000 -0.1683284109
C   C296      1.0  0.50000  0.95250  0.03750  1.0000 -0.1683284109
C   C297      1.0  0.50000  0.04750  0.96250  1.0000 -0.1683284109
C   C298      1.0  0.50000  0.95250  0.96250  1.0000 -0.1683284109
C   C299      1.0  0.03750  0.50000  0.04750  1.0000 -0.1683284109
C   C300      1.0  0.03750  0.50000  0.95250  1.0000 -0.1683284109
C   C301      1.0  0.96250  0.50000  0.04750  1.0000 -0.1683284109
C   C302      1.0  0.96250  0.50000  0.95250  1.0000 -0.1683284109
C   C303      1.0  0.04750  0.03750  0.50000  1.0000 -0.1683284109
C   C304      1.0  0.95250  0.03750  0.50000  1.0000 -0.1683284109
C   C305      1.0  0.04750  0.96250  0.50000  1.0000 -0.1683284109
C   C306      1.0  0.95250  0.96250  0.50000  1.0000 -0.1683284109
C   C307      1.0  0.38920  0.27000  0.27230  1.0000 -0.1142110479
C   C308      1.0  0.61080  0.73000  0.27230  1.0000 -0.1142110479
C   C309      1.0  0.61080  0.27000  0.72770  1.0000 -0.1142110479
C   C310      1.0  0.38920  0.73000  0.72770  1.0000 -0.1142110479
C   C311      1.0  0.27230  0.38920  0.27000  1.0000 -0.1142110479
C   C312      1.0  0.27230  0.61080  0.73000  1.0000 -0.1142110479
C   C313      1.0  0.72770  0.61080  0.27000  1.0000 -0.1142110479
C   C314      1.0  0.72770  0.38920  0.73000  1.0000 -0.1142110479
C   C315      1.0  0.27000  0.27230  0.38920  1.0000 -0.1142110479
C   C316      1.0  0.73000  0.27230  0.61080  1.0000 -0.1142110479
C   C317      1.0  0.27000  0.72770  0.61080  1.0000 -0.1142110479
C   C318      1.0  0.73000  0.72770  0.38920  1.0000 -0.1142110479
C   C319      1.0  0.61080  0.73000  0.72770  1.0000 -0.1142110479
C   C320      1.0  0.38920  0.27000  0.72770  1.0000 -0.1142110479
C   C321      1.0  0.38920  0.73000  0.27230  1.0000 -0.1142110479
C   C322      1.0  0.61080  0.27000  0.27230  1.0000 -0.1142110479
C   C323      1.0  0.72770  0.61080  0.73000  1.0000 -0.1142110479
C   C324      1.0  0.72770  0.38920  0.27000  1.0000 -0.1142110479
C   C325      1.0  0.27230  0.38920  0.73000  1.0000 -0.1142110479
C   C326      1.0  0.27230  0.61080  0.27000  1.0000 -0.1142110479
C   C327      1.0  0.73000  0.72770  0.61080  1.0000 -0.1142110479
C   C328      1.0  0.27000  0.72770  0.38920  1.0000 -0.1142110479
C   C329      1.0  0.73000  0.27230  0.38920  1.0000 -0.1142110479
C   C330      1.0  0.27000  0.27230  0.61080  1.0000 -0.1142110479
C   C331      1.0  0.38070  0.22160  0.25010  1.0000 -0.2316200723
C   C332      1.0  0.61930  0.77840  0.25010  1.0000 -0.2316200723
C   C333      1.0  0.61930  0.22160  0.74990  1.0000 -0.2316200723
C   C334      1.0  0.38070  0.77840  0.74990  1.0000 -0.2316200723
C   C335      1.0  0.25010  0.38070  0.22160  1.0000 -0.2316200723
C   C336      1.0  0.25010  0.61930  0.77840  1.0000 -0.2316200723
C   C337      1.0  0.74990  0.61930  0.22160  1.0000 -0.2316200723
C   C338      1.0  0.74990  0.38070  0.77840  1.0000 -0.2316200723
C   C339      1.0  0.22160  0.25010  0.38070  1.0000 -0.2316200723
C   C340      1.0  0.77840  0.25010  0.61930  1.0000 -0.2316200723
C   C341      1.0  0.22160  0.74990  0.61930  1.0000 -0.2316200723
C   C342      1.0  0.77840  0.74990  0.38070  1.0000 -0.2316200723
C   C343      1.0  0.61930  0.77840  0.74990  1.0000 -0.2316200723
C   C344      1.0  0.38070  0.22160  0.74990  1.0000 -0.2316200723
C   C345      1.0  0.38070  0.77840  0.25010  1.0000 -0.2316200723
C   C346      1.0  0.61930  0.22160  0.25010  1.0000 -0.2316200723
C   C347      1.0  0.74990  0.61930  0.77840  1.0000 -0.2316200723
C   C348      1.0  0.74990  0.38070  0.22160  1.0000 -0.2316200723
C   C349      1.0  0.25010  0.38070  0.77840  1.0000 -0.2316200723
C   C350      1.0  0.25010  0.61930  0.22160  1.0000 -0.2316200723
C   C351      1.0  0.77840  0.74990  0.61930  1.0000 -0.2316200723
C   C352      1.0  0.22160  0.74990  0.38070  1.0000 -0.2316200723
C   C353      1.0  0.77840  0.25010  0.38070  1.0000 -0.2316200723
C   C354      1.0  0.22160  0.25010  0.61930  1.0000 -0.2316200723
C   C355      1.0  0.33440  0.17360  0.20020  1.0000 -0.2213976429
C   C356      1.0  0.66560  0.82640  0.20020  1.0000 -0.2213976429
C   C357      1.0  0.66560  0.17360  0.79980  1.0000 -0.2213976429
C   C358      1.0  0.33440  0.82640  0.79980  1.0000 -0.2213976429
C   C359      1.0  0.20020  0.33440  0.17360  1.0000 -0.2213976429
C   C360      1.0  0.20020  0.66560  0.82640  1.0000 -0.2213976429
C   C361      1.0  0.79980  0.66560  0.17360  1.0000 -0.2213976429
C   C362      1.0  0.79980  0.33440  0.82640  1.0000 -0.2213976429
C   C363      1.0  0.17360  0.20020  0.33440  1.0000 -0.2213976429
C   C364      1.0  0.82640  0.20020  0.66560  1.0000 -0.2213976429
C   C365      1.0  0.17360  0.79980  0.66560  1.0000 -0.2213976429
C   C366      1.0  0.82640  0.79980  0.33440  1.0000 -0.2213976429
C   C367      1.0  0.66560  0.82640  0.79980  1.0000 -0.2213976429
C   C368      1.0  0.33440  0.17360  0.79980  1.0000 -0.2213976429
C   C369      1.0  0.33440  0.82640  0.20020  1.0000 -0.2213976429
C   C370      1.0  0.66560  0.17360  0.20020  1.0000 -0.2213976429
C   C371      1.0  0.79980  0.66560  0.82640  1.0000 -0.2213976429
C   C372      1.0  0.79980  0.33440  0.17360  1.0000 -0.2213976429
C   C373      1.0  0.20020  0.33440  0.82640  1.0000 -0.2213976429
C   C374      1.0  0.20020  0.66560  0.17360  1.0000 -0.2213976429
C   C375      1.0  0.82640  0.79980  0.66560  1.0000 -0.2213976429
C   C376      1.0  0.17360  0.79980  0.33440  1.0000 -0.2213976429
C   C377      1.0  0.82640  0.20020  0.33440  1.0000 -0.2213976429
C   C378      1.0  0.17360  0.20020  0.66560  1.0000 -0.2213976429
C   C379      1.0  0.29370  0.16770  0.16810  1.0000 -0.1782221157
C   C380      1.0  0.70630  0.83230  0.16810  1.0000 -0.1782221157
C   C381      1.0  0.70630  0.16770  0.83190  1.0000 -0.1782221157
C   C382      1.0  0.29370  0.83230  0.83190  1.0000 -0.1782221157
C   C383      1.0  0.16810  0.29370  0.16770  1.0000 -0.1782221157
C   C384      1.0  0.16810  0.70630  0.83230  1.0000 -0.1782221157
C   C385      1.0  0.83190  0.70630  0.16770  1.0000 -0.1782221157
C   C386      1.0  0.83190  0.29370  0.83230  1.0000 -0.1782221157
C   C387      1.0  0.16770  0.16810  0.29370  1.0000 -0.1782221157
C   C388      1.0  0.83230  0.16810  0.70630  1.0000 -0.1782221157
C   C389      1.0  0.16770  0.83190  0.70630  1.0000 -0.1782221157
C   C390      1.0  0.83230  0.83190  0.29370  1.0000 -0.1782221157
C   C391      1.0  0.70630  0.83230  0.83190  1.0000 -0.1782221157
C   C392      1.0  0.29370  0.16770  0.83190  1.0000 -0.1782221157
C   C393      1.0  0.29370  0.83230  0.16810  1.0000 -0.1782221157
C   C394      1.0  0.70630  0.16770  0.16810  1.0000 -0.1782221157
C   C395      1.0  0.83190  0.70630  0.83230  1.0000 -0.1782221157
C   C396      1.0  0.83190  0.29370  0.16770  1.0000 -0.1782221157
C   C397      1.0  0.16810  0.29370  0.83230  1.0000 -0.1782221157
C   C398      1.0  0.16810  0.70630  0.16770  1.0000 -0.1782221157
C   C399      1.0  0.83230  0.83190  0.70630  1.0000 -0.1782221157
C   C400      1.0  0.16770  0.83190  0.29370  1.0000 -0.1782221157
C   C401      1.0  0.83230  0.16810  0.29370  1.0000 -0.1782221157
C   C402      1.0  0.16770  0.16810  0.70630  1.0000 -0.1782221157
C   C403      1.0  0.28620  0.11610  0.14340  1.0000 -0.3298920234
C   C404      1.0  0.71380  0.88390  0.14340  1.0000 -0.3298920234
C   C405      1.0  0.71380  0.11610  0.85660  1.0000 -0.3298920234
C   C406      1.0  0.28620  0.88390  0.85660  1.0000 -0.3298920234
C   C407      1.0  0.14340  0.28620  0.11610  1.0000 -0.3298920234
C   C408      1.0  0.14340  0.71380  0.88390  1.0000 -0.3298920234
C   C409      1.0  0.85660  0.71380  0.11610  1.0000 -0.3298920234
C   C410      1.0  0.85660  0.28620  0.88390  1.0000 -0.3298920234
C   C411      1.0  0.11610  0.14340  0.28620  1.0000 -0.3298920234
C   C412      1.0  0.88390  0.14340  0.71380  1.0000 -0.3298920234
C   C413      1.0  0.11610  0.85660  0.71380  1.0000 -0.3298920234
C   C414      1.0  0.88390  0.85660  0.28620  1.0000 -0.3298920234
C   C415      1.0  0.71380  0.88390  0.85660  1.0000 -0.3298920234
C   C416      1.0  0.28620  0.11610  0.85660  1.0000 -0.3298920234
C   C417      1.0  0.28620  0.88390  0.14340  1.0000 -0.3298920234
C   C418      1.0  0.71380  0.11610  0.14340  1.0000 -0.3298920234
C   C419      1.0  0.85660  0.71380  0.88390  1.0000 -0.3298920234
C   C420      1.0  0.85660  0.28620  0.11610  1.0000 -0.3298920234
C   C421      1.0  0.14340  0.28620  0.88390  1.0000 -0.3298920234
C   C422      1.0  0.14340  0.71380  0.11610  1.0000 -0.3298920234
C   C423      1.0  0.88390  0.85660  0.71380  1.0000 -0.3298920234
C   C424      1.0  0.11610  0.85660  0.28620  1.0000 -0.3298920234
C   C425      1.0  0.88390  0.14340  0.28620  1.0000 -0.3298920234
C   C426      1.0  0.11610  0.14340  0.71380  1.0000 -0.3298920234
C   C427      1.0  0.42620  0.26890  0.30880  1.0000 -0.3571405661
C   C428      1.0  0.57380  0.73110  0.30880  1.0000 -0.3571405661
C   C429      1.0  0.57380  0.26890  0.69120  1.0000 -0.3571405661
C   C430      1.0  0.42620  0.73110  0.69120  1.0000 -0.3571405661
C   C431      1.0  0.30880  0.42620  0.26890  1.0000 -0.3571405661
C   C432      1.0  0.30880  0.57380  0.73110  1.0000 -0.3571405661
C   C433      1.0  0.69120  0.57380  0.26890  1.0000 -0.3571405661
C   C434      1.0  0.69120  0.42620  0.73110  1.0000 -0.3571405661
C   C435      1.0  0.26890  0.30880  0.42620  1.0000 -0.3571405661
C   C436      1.0  0.73110  0.30880  0.57380  1.0000 -0.3571405661
C   C437      1.0  0.26890  0.69120  0.57380  1.0000 -0.3571405661
C   C438      1.0  0.73110  0.69120  0.42620  1.0000 -0.3571405661
C   C439      1.0  0.57380  0.73110  0.69120  1.0000 -0.3571405661
C   C440      1.0  0.42620  0.26890  0.69120  1.0000 -0.3571405661
C   C441      1.0  0.42620  0.73110  0.30880  1.0000 -0.3571405661
C   C442      1.0  0.57380  0.26890  0.30880  1.0000 -0.3571405661
C   C443      1.0  0.69120  0.57380  0.73110  1.0000 -0.3571405661
C   C444      1.0  0.69120  0.42620  0.26890  1.0000 -0.3571405661
C   C445      1.0  0.30880  0.42620  0.73110  1.0000 -0.3571405661
C   C446      1.0  0.30880  0.57380  0.26890  1.0000 -0.3571405661
C   C447      1.0  0.73110  0.69120  0.57380  1.0000 -0.3571405661
C   C448      1.0  0.26890  0.69120  0.42620  1.0000 -0.3571405661
C   C449      1.0  0.73110  0.30880  0.42620  1.0000 -0.3571405661
C   C450      1.0  0.26890  0.30880  0.57380  1.0000 -0.3571405661
O   O1        1.0  0.50000  0.28610  0.00000  1.0000 -1.0308183881
O   O2        1.0  0.50000  0.71390  0.00000  1.0000 -1.0308183881
O   O3        1.0  0.00000  0.50000  0.28610  1.0000 -1.0308183881
O   O4        1.0  0.00000  0.50000  0.71390  1.0000 -1.0308183881
O   O5        1.0  0.28610  0.00000  0.50000  1.0000 -1.0308183881
O   O6        1.0  0.71390  0.00000  0.50000  1.0000 -1.0308183881
O   O7        1.0  0.46292  0.38503  0.00000  1.0000 -0.5262579473
O   O8        1.0  0.53708  0.61497  0.00000  1.0000 -0.5262579473
O   O9        1.0  0.53708  0.38503  0.00000  1.0000 -0.5262579473
O   O10       1.0  0.46292  0.61497  0.00000  1.0000 -0.5262579473
O   O11       1.0  0.00000  0.46292  0.38503  1.0000 -0.5262579473
O   O12       1.0  0.00000  0.53708  0.61497  1.0000 -0.5262579473
O   O13       1.0  0.00000  0.53708  0.38503  1.0000 -0.5262579473
O   O14       1.0  0.00000  0.46292  0.61497  1.0000 -0.5262579473
O   O15       1.0  0.38503  0.00000  0.46292  1.0000 -0.5262579473
O   O16       1.0  0.61497  0.00000  0.53708  1.0000 -0.5262579473
O   O17       1.0  0.38503  0.00000  0.53708  1.0000 -0.5262579473
O   O18       1.0  0.61497  0.00000  0.46292  1.0000 -0.5262579473
O   O19       1.0  0.44674  0.25901  0.08824  1.0000 -0.5488618714
O   O20       1.0  0.55326  0.74099  0.08824  1.0000 -0.5488618714
O   O21       1.0  0.55326  0.25901  0.91176  1.0000 -0.5488618714
O   O22       1.0  0.44674  0.74099  0.91176  1.0000 -0.5488618714
O   O23       1.0  0.08824  0.44674  0.25901  1.0000 -0.5488618714
O   O24       1.0  0.08824  0.55326  0.74099  1.0000 -0.5488618714
O   O25       1.0  0.91176  0.55326  0.25901  1.0000 -0.5488618714
O   O26       1.0  0.91176  0.44674  0.74099  1.0000 -0.5488618714
O   O27       1.0  0.25901  0.08824  0.44674  1.0000 -0.5488618714
O   O28       1.0  0.74099  0.08824  0.55326  1.0000 -0.5488618714
O   O29       1.0  0.25901  0.91176  0.55326  1.0000 -0.5488618714
O   O30       1.0  0.74099  0.91176  0.44674  1.0000 -0.5488618714
O   O31       1.0  0.55326  0.74099  0.91176  1.0000 -0.5488618714
O   O32       1.0  0.44674  0.25901  0.91176  1.0000 -0.5488618714
O   O33       1.0  0.44674  0.74099  0.08824  1.0000 -0.5488618714
O   O34       1.0  0.55326  0.25901  0.08824  1.0000 -0.5488618714
O   O35       1.0  0.91176  0.55326  0.74099  1.0000 -0.5488618714
O   O36       1.0  0.91176  0.44674  0.25901  1.0000 -0.5488618714
O   O37       1.0  0.08824  0.44674  0.74099  1.0000 -0.5488618714
O   O38       1.0  0.08824  0.55326  0.25901  1.0000 -0.5488618714
O   O39       1.0  0.74099  0.91176  0.55326  1.0000 -0.5488618714
O   O40       1.0  0.25901  0.91176  0.44674  1.0000 -0.5488618714
O   O41       1.0  0.74099  0.08824  0.44674  1.0000 -0.5488618714
O   O42       1.0  0.25901  0.08824  0.55326  1.0000 -0.5488618714
O   O43       1.0  0.41009  0.31217  0.05167  1.0000 -0.510778333
O   O44       1.0  0.58991  0.68783  0.05167  1.0000 -0.510778333
O   O45       1.0  0.58991  0.31217  0.94833  1.0000 -0.510778333
O   O46       1.0  0.41009  0.68783  0.94833  1.0000 -0.510778333
O   O47       1.0  0.05167  0.41009  0.31217  1.0000 -0.510778333
O   O48       1.0  0.05167  0.58991  0.68783  1.0000 -0.510778333
O   O49       1.0  0.94833  0.58991  0.31217  1.0000 -0.510778333
O   O50       1.0  0.94833  0.41009  0.68783  1.0000 -0.510778333
O   O51       1.0  0.31217  0.05167  0.41009  1.0000 -0.510778333
O   O52       1.0  0.68783  0.05167  0.58991  1.0000 -0.510778333
O   O53       1.0  0.31217  0.94833  0.58991  1.0000 -0.510778333
O   O54       1.0  0.68783  0.94833  0.41009  1.0000 -0.510778333
O   O55       1.0  0.58991  0.68783  0.94833  1.0000 -0.510778333
O   O56       1.0  0.41009  0.31217  0.94833  1.0000 -0.510778333
O   O57       1.0  0.41009  0.68783  0.05167  1.0000 -0.510778333
O   O58       1.0  0.58991  0.31217  0.05167  1.0000 -0.510778333
O   O59       1.0  0.94833  0.58991  0.68783  1.0000 -0.510778333
O   O60       1.0  0.94833  0.41009  0.31217  1.0000 -0.510778333
O   O61       1.0  0.05167  0.41009  0.68783  1.0000 -0.510778333
O   O62       1.0  0.05167  0.58991  0.31217  1.0000 -0.510778333
O   O63       1.0  0.68783  0.94833  0.58991  1.0000 -0.510778333
O   O64       1.0  0.31217  0.94833  0.41009  1.0000 -0.510778333
O   O65       1.0  0.68783  0.05167  0.41009  1.0000 -0.510778333
O   O66       1.0  0.31217  0.05167  0.58991  1.0000 -0.510778333
O   O67       1.0  0.50000  0.18615  0.03760  1.0000 -0.5262579473
O   O68       1.0  0.50000  0.81385  0.03760  1.0000 -0.5262579473
O   O69       1.0  0.50000  0.18615  0.96240  1.0000 -0.5262579473
O   O70       1.0  0.50000  0.81385  0.96240  1.0000 -0.5262579473
O   O71       1.0  0.03760  0.50000  0.18615  1.0000 -0.5262579473
O   O72       1.0  0.03760  0.50000  0.81385  1.0000 -0.5262579473
O   O73       1.0  0.96240  0.50000  0.18615  1.0000 -0.5262579473
O   O74       1.0  0.96240  0.50000  0.81385  1.0000 -0.5262579473
O   O75       1.0  0.18615  0.03760  0.50000  1.0000 -0.5262579473
O   O76       1.0  0.81385  0.03760  0.50000  1.0000 -0.5262579473
O   O77       1.0  0.18615  0.96240  0.50000  1.0000 -0.5262579473
O   O78       1.0  0.81385  0.96240  0.50000  1.0000 -0.5262579473
