# DDEC6 charges by PACMAN v1.1 (https://github.com/mtap-research/PACMAN-charge/)
data_ja9b10501_si_016_FSR_pacman
_symmetry_space_group_name_H-M   'P 1'
_cell_length_a   19.33310000
_cell_length_b   19.33310000
_cell_length_c   36.23170000
_cell_angle_alpha   90.00000000
_cell_angle_beta   90.00000000
_cell_angle_gamma   90.00000000
_symmetry_Int_Tables_number   1
_chemical_formula_structural   Al16H156.16C242.24N6.08O73.92
_chemical_formula_sum   'Al16 H156.16 C242.24 N6.08 O73.92'
_cell_volume   13542.27742263
_cell_formula_units_Z   1
loop_
 _symmetry_equiv_pos_site_id
 _symmetry_equiv_pos_as_xyz
  1  'x, y, z'
loop_
 _atom_site_type_symbol
 _atom_site_label
 _atom_site_symmetry_multiplicity
 _atom_site_fract_x
 _atom_site_fract_y
 _atom_site_fract_z
 _atom_site_occupancy
 _atom_site_charge
Al  Al1  1  0.89847000  0.12201000  0.08185000  1.0 1.4298109823
Al  Al2  1  0.10153000  0.87799000  0.08185000  1.0 1.4298109823
Al  Al3  1  0.37799000  0.39847000  0.58185000  1.0 1.4298109823
Al  Al4  1  0.62201000  0.60153000  0.58185000  1.0 1.4298109823
Al  Al5  1  0.60153000  0.62201000  0.41815000  1.0 1.4298109823
Al  Al6  1  0.39847000  0.37799000  0.41815000  1.0 1.4298109823
Al  Al7  1  0.12201000  0.89847000  0.91815000  1.0 1.4298109823
Al  Al8  1  0.87799000  0.10153000  0.91815000  1.0 1.4298109823
Al  Al9  1  0.83832000  0.16168000  0.00000000  1.0 1.2578424626
Al  Al10  1  0.16168000  0.83832000  0.00000000  1.0 1.2578424626
Al  Al11  1  0.33832000  0.33832000  0.50000000  1.0 1.2578424626
Al  Al12  1  0.66168000  0.66168000  0.50000000  1.0 1.2578424626
Al  Al13  1  0.00000000  0.00000000  0.11612000  1.0 1.6474917643
Al  Al14  1  0.50000000  0.50000000  0.61612000  1.0 1.6474917643
Al  Al15  1  0.50000000  0.50000000  0.38388000  1.0 1.6474917643
Al  Al16  1  0.00000000  0.00000000  0.88388000  1.0 1.6474917643
H  H1  1  0.00327000  0.06708000  0.05950000  1.0 0.4067494609
H  H2  1  0.87188000  0.05192000  0.02791000  1.0 0.4067494609
H  H3  1  0.36144000  0.79045000  0.04255000  1.0 0.1209451999
H  H4  1  0.49855000  0.63921000  0.22212000  1.0 0.1098019313
H  H5  1  0.74275000  0.79993000  0.15877000  1.0 0.1098019313
H  H6  1  0.36120000  0.81193000  0.17080000  1.0 0.1098019313
H  H7  1  0.84040000  0.86475000  0.14291000  1.0 0.1209451999
H  H8  1  0.60724000  0.74093000  0.32366000  1.0 0.1209451999
H  H9  1  0.25742000  0.81521000  0.13863000  1.0 0.1270553554
H  H10  1  0.71755000  0.02131000  0.10917000  1.0 0.1209451999
H  H11  1  0.60869000  0.79630000  0.26708000  1.0 0.1098019313
H  H12  1  0.49617000  0.58435000  0.27959000  1.0 0.1209451999
H  H13  1  0.61947000  0.95760000  0.12552000  1.0 0.1098019313
H  H14  1  0.46562000  0.78749000  0.07471000  1.0 0.1098019313
H  H15  1  0.65139000  0.79610000  0.20416000  1.0 0.1098019313
H  H16  1  0.45306000  0.73634000  0.18890000  1.0 0.1098019313
H  H17  1  0.54698000  0.85730000  0.11315000  1.0 0.1098019313
H  H18  1  0.99673000  0.93292000  0.05950000  1.0 0.4067494609
H  H19  1  0.12812000  0.94808000  0.02791000  1.0 0.4067494609
H  H20  1  0.63856000  0.20955000  0.04255000  1.0 0.1209451999
H  H21  1  0.50145000  0.36079000  0.22212000  1.0 0.1098019313
H  H22  1  0.25725000  0.20007000  0.15877000  1.0 0.1098019313
H  H23  1  0.63880000  0.18807000  0.17080000  1.0 0.1098019313
H  H24  1  0.15960000  0.13525000  0.14291000  1.0 0.1209451999
H  H25  1  0.39276000  0.25907000  0.32366000  1.0 0.1209451999
H  H26  1  0.74258000  0.18479000  0.13863000  1.0 0.1209451999
H  H27  1  0.28245000  0.97869000  0.10917000  1.0 0.1209451999
H  H28  1  0.39131000  0.20370000  0.26708000  1.0 0.1098019313
H  H29  1  0.50383000  0.41565000  0.27959000  1.0 0.1209451999
H  H30  1  0.38053000  0.04240000  0.12552000  1.0 0.1098019313
H  H31  1  0.53438000  0.21251000  0.07471000  1.0 0.1098019313
H  H32  1  0.34861000  0.20390000  0.20416000  1.0 0.1098019313
H  H33  1  0.54694000  0.26366000  0.18890000  1.0 0.1098019313
H  H34  1  0.45302000  0.14270000  0.11315000  1.0 0.1098019313
H  H35  1  0.43292000  0.50327000  0.55950000  1.0 0.4067494609
H  H36  1  0.44808000  0.37188000  0.52791000  1.0 0.4067494609
H  H37  1  0.70955000  0.86144000  0.54255000  1.0 0.1209451999
H  H38  1  0.86079000  0.99855000  0.72212000  1.0 0.1098019313
H  H39  1  0.70007000  0.24275000  0.65877000  1.0 0.1098019313
H  H40  1  0.68807000  0.86120000  0.67080000  1.0 0.1098019313
H  H41  1  0.63525000  0.34040000  0.64291000  1.0 0.1209451999
H  H42  1  0.75907000  0.10724000  0.82366000  1.0 0.1209451999
H  H43  1  0.68479000  0.75742000  0.63863000  1.0 0.1209451999
H  H44  1  0.47869000  0.21755000  0.60917000  1.0 0.1209451999
H  H45  1  0.70370000  0.10869000  0.76708000  1.0 0.1098019313
H  H46  1  0.91565000  0.99617000  0.77959000  1.0 0.1209451999
H  H47  1  0.54240000  0.11947000  0.62552000  1.0 0.1098019313
H  H48  1  0.71251000  0.96562000  0.57471000  1.0 0.1098019313
H  H49  1  0.70390000  0.15139000  0.70416000  1.0 0.1098019313
H  H50  1  0.76366000  0.95306000  0.68890000  1.0 0.1098019313
H  H51  1  0.64270000  0.04698000  0.61315000  1.0 0.1098019313
H  H52  1  0.56708000  0.49673000  0.55950000  1.0 0.4067494609
H  H53  1  0.55192000  0.62812000  0.52791000  1.0 0.4067494609
H  H54  1  0.29045000  0.13856000  0.54255000  1.0 0.1209451999
H  H55  1  0.13921000  0.00145000  0.72212000  1.0 0.1098019313
H  H56  1  0.29993000  0.75725000  0.65877000  1.0 0.1098019313
H  H57  1  0.31193000  0.13880000  0.67080000  1.0 0.1098019313
H  H58  1  0.36475000  0.65960000  0.64291000  1.0 0.1209451999
H  H59  1  0.24093000  0.89276000  0.82366000  1.0 0.1209451999
H  H60  1  0.31521000  0.24258000  0.63863000  1.0 0.1270553554
H  H61  1  0.52131000  0.78245000  0.60917000  1.0 0.1209451999
H  H62  1  0.29630000  0.89131000  0.76708000  1.0 0.1098019313
H  H63  1  0.08435000  0.00383000  0.77959000  1.0 0.1209451999
H  H64  1  0.45760000  0.88053000  0.62552000  1.0 0.1098019313
H  H65  1  0.28749000  0.03438000  0.57471000  1.0 0.1098019313
H  H66  1  0.29610000  0.84861000  0.70416000  1.0 0.1098019313
H  H67  1  0.23634000  0.04694000  0.68890000  1.0 0.1098019313
H  H68  1  0.35730000  0.95302000  0.61315000  1.0 0.1098019313
H  H69  1  0.49673000  0.56708000  0.44050000  1.0 0.4067494609
H  H70  1  0.62812000  0.55192000  0.47209000  1.0 0.4067494609
H  H71  1  0.13856000  0.29045000  0.45745000  1.0 0.1209451999
H  H72  1  0.00145000  0.13921000  0.27788000  1.0 0.1098019313
H  H73  1  0.75725000  0.29993000  0.34123000  1.0 0.1098019313
H  H74  1  0.13880000  0.31193000  0.32920000  1.0 0.1098019313
H  H75  1  0.65960000  0.36475000  0.35709000  1.0 0.1209451999
H  H76  1  0.89276000  0.24093000  0.17634000  1.0 0.1209451999
H  H77  1  0.24258000  0.31521000  0.36137000  1.0 0.1270553554
H  H78  1  0.78245000  0.52131000  0.39083000  1.0 0.1209451999
H  H79  1  0.89131000  0.29630000  0.23292000  1.0 0.1098019313
H  H80  1  0.00383000  0.08435000  0.22041000  1.0 0.1209451999
H  H81  1  0.88053000  0.45760000  0.37448000  1.0 0.1098019313
H  H82  1  0.03438000  0.28749000  0.42529000  1.0 0.1098019313
H  H83  1  0.84861000  0.29610000  0.29584000  1.0 0.1098019313
H  H84  1  0.04694000  0.23634000  0.31110000  1.0 0.1098019313
H  H85  1  0.95302000  0.35730000  0.38685000  1.0 0.1098019313
H  H86  1  0.50327000  0.43292000  0.44050000  1.0 0.4067494609
H  H87  1  0.37188000  0.44808000  0.47209000  1.0 0.4067494609
H  H88  1  0.86144000  0.70955000  0.45745000  1.0 0.1209451999
H  H89  1  0.99855000  0.86079000  0.27788000  1.0 0.1098019313
H  H90  1  0.24275000  0.70007000  0.34123000  1.0 0.1098019313
H  H91  1  0.86120000  0.68807000  0.32920000  1.0 0.1098019313
H  H92  1  0.34040000  0.63525000  0.35709000  1.0 0.1209451999
H  H93  1  0.10724000  0.75907000  0.17634000  1.0 0.1209451999
H  H94  1  0.75742000  0.68479000  0.36137000  1.0 0.1209451999
H  H95  1  0.21755000  0.47869000  0.39083000  1.0 0.1209451999
H  H96  1  0.10869000  0.70370000  0.23292000  1.0 0.1098019313
H  H97  1  0.99617000  0.91565000  0.22041000  1.0 0.1209451999
H  H98  1  0.11947000  0.54240000  0.37448000  1.0 0.1098019313
H  H99  1  0.96562000  0.71251000  0.42529000  1.0 0.1098019313
H  H100  1  0.15139000  0.70390000  0.29584000  1.0 0.1098019313
H  H101  1  0.95306000  0.76366000  0.31110000  1.0 0.1098019313
H  H102  1  0.04698000  0.64270000  0.38685000  1.0 0.1098019313
H  H103  1  0.06708000  0.00327000  0.94050000  1.0 0.4067494609
H  H104  1  0.05192000  0.87188000  0.97209000  1.0 0.4067494609
H  H105  1  0.79045000  0.36144000  0.95745000  1.0 0.1209451999
H  H106  1  0.63921000  0.49855000  0.77788000  1.0 0.1098019313
H  H107  1  0.79993000  0.74275000  0.84123000  1.0 0.1098019313
H  H108  1  0.81193000  0.36120000  0.82920000  1.0 0.1098019313
H  H109  1  0.86475000  0.84040000  0.85709000  1.0 0.1209451999
H  H110  1  0.74093000  0.60724000  0.67634000  1.0 0.1209451999
H  H111  1  0.81521000  0.25742000  0.86137000  1.0 0.1270553554
H  H112  1  0.02131000  0.71755000  0.89083000  1.0 0.1209451999
H  H113  1  0.79630000  0.60869000  0.73292000  1.0 0.1098019313
H  H114  1  0.58435000  0.49617000  0.72041000  1.0 0.1209451999
H  H115  1  0.95760000  0.61947000  0.87448000  1.0 0.1098019313
H  H116  1  0.78749000  0.46562000  0.92529000  1.0 0.1098019313
H  H117  1  0.79610000  0.65139000  0.79584000  1.0 0.1098019313
H  H118  1  0.73634000  0.45306000  0.81110000  1.0 0.1098019313
H  H119  1  0.85730000  0.54698000  0.88685000  1.0 0.1098019313
H  H120  1  0.93292000  0.99673000  0.94050000  1.0 0.4067494609
H  H121  1  0.94808000  0.12812000  0.97209000  1.0 0.4067494609
H  H122  1  0.20955000  0.63856000  0.95745000  1.0 0.1209451999
H  H123  1  0.36079000  0.50145000  0.77788000  1.0 0.1098019313
H  H124  1  0.20007000  0.25725000  0.84123000  1.0 0.1098019313
H  H125  1  0.18807000  0.63880000  0.82920000  1.0 0.1098019313
H  H126  1  0.13525000  0.15960000  0.85709000  1.0 0.1209451999
H  H127  1  0.25907000  0.39276000  0.67634000  1.0 0.1209451999
H  H128  1  0.18479000  0.74258000  0.86137000  1.0 0.1270553554
H  H129  1  0.97869000  0.28245000  0.89083000  1.0 0.1209451999
H  H130  1  0.20370000  0.39131000  0.73292000  1.0 0.1098019313
H  H131  1  0.41565000  0.50383000  0.72041000  1.0 0.1209451999
H  H132  1  0.04240000  0.38053000  0.87448000  1.0 0.1098019313
H  H133  1  0.21251000  0.53438000  0.92529000  1.0 0.1098019313
H  H134  1  0.20390000  0.34861000  0.79584000  1.0 0.1098019313
H  H135  1  0.26366000  0.54694000  0.81110000  1.0 0.1098019313
H  H136  1  0.14270000  0.45302000  0.88685000  1.0 0.1098019313
H  H137  1  0.14349000  0.36524000  0.05826000  0.38 0.1270553554
H  H138  1  0.05515000  0.19008000  0.10117000  0.38 0.1270553554
H  H139  1  0.14980000  0.27086000  0.09952000  0.38 0.1098019313
H  H140  1  0.06865000  0.36448000  0.00960000  0.38 0.1209451999
H  H141  1  0.93882000  0.29745000  0.98700000  0.38 0.1396460664
H  H142  1  0.85651000  0.63476000  0.05826000  0.38 0.1270553554
H  H143  1  0.94485000  0.80992000  0.10117000  0.38 0.1270553554
H  H144  1  0.85020000  0.72914000  0.09952000  0.38 0.1098019313
H  H145  1  0.93135000  0.63552000  0.00960000  0.38 0.1209451999
H  H146  1  0.06118000  0.70255000  0.98700000  0.38 0.1396460664
H  H147  1  0.13476000  0.64349000  0.55826000  0.38 0.1270553554
H  H148  1  0.30992000  0.55515000  0.60117000  0.38 0.1270553554
H  H149  1  0.22914000  0.64980000  0.59952000  0.38 0.1098019313
H  H150  1  0.13552000  0.56865000  0.50960000  0.38 0.1209451999
H  H151  1  0.20255000  0.43882000  0.48700000  0.38 0.1396460664
H  H152  1  0.86524000  0.35651000  0.55826000  0.38 0.1270553554
H  H153  1  0.69008000  0.44485000  0.60117000  0.38 0.1270553554
H  H154  1  0.77086000  0.35020000  0.59952000  0.38 0.1098019313
H  H155  1  0.86448000  0.43135000  0.50960000  0.38 0.1209451999
H  H156  1  0.79745000  0.56118000  0.48700000  0.38 0.1396460664
H  H157  1  0.35651000  0.86524000  0.44174000  0.38 0.1270553554
H  H158  1  0.44485000  0.69008000  0.39883000  0.38 0.1270553554
H  H159  1  0.35020000  0.77086000  0.40048000  0.38 0.1098019313
H  H160  1  0.43135000  0.86448000  0.49040000  0.38 0.1209451999
H  H161  1  0.56118000  0.79745000  0.51300000  0.38 0.1396460664
H  H162  1  0.64349000  0.13476000  0.44174000  0.38 0.1270553554
H  H163  1  0.55515000  0.30992000  0.39883000  0.38 0.1270553554
H  H164  1  0.64980000  0.22914000  0.40048000  0.38 0.1098019313
H  H165  1  0.56865000  0.13552000  0.49040000  0.38 0.1209451999
H  H166  1  0.43882000  0.20255000  0.51300000  0.38 0.1396460664
H  H167  1  0.36524000  0.14349000  0.94174000  0.38 0.1270553554
H  H168  1  0.19008000  0.05515000  0.89883000  0.38 0.1270553554
H  H169  1  0.27086000  0.14980000  0.90048000  0.38 0.1098019313
H  H170  1  0.36448000  0.06865000  0.99040000  0.38 0.1209451999
H  H171  1  0.29745000  0.93882000  0.01300000  0.38 0.1396460664
H  H172  1  0.63476000  0.85651000  0.94174000  0.38 0.1270553554
H  H173  1  0.80992000  0.94485000  0.89883000  0.38 0.1270553554
H  H174  1  0.72914000  0.85020000  0.90048000  0.38 0.1098019313
H  H175  1  0.63552000  0.93135000  0.99040000  0.38 0.1209451999
H  H176  1  0.70255000  0.06118000  0.01300000  0.38 0.1396460664
H  H177  1  0.97156000  0.27930000  0.04072000  0.62 0.0998941822
H  H178  1  0.02844000  0.72070000  0.04072000  0.62 0.0998941822
H  H179  1  0.22070000  0.47156000  0.54072000  0.62 0.0998941822
H  H180  1  0.77930000  0.52844000  0.54072000  0.62 0.0998941822
H  H181  1  0.52844000  0.77930000  0.45928000  0.62 0.0998941822
H  H182  1  0.47156000  0.22070000  0.45928000  0.62 0.0998941822
H  H183  1  0.27930000  0.97156000  0.95928000  0.62 0.0998941822
H  H184  1  0.72070000  0.02844000  0.95928000  0.62 0.0998941822
C  C1  1  0.78819000  0.94890000  0.12408000  1.0 -0.0418463796
C  C2  1  0.29939000  0.80376000  0.08742000  1.0 -0.0264121871
C  C3  1  0.85094000  0.99001000  0.11418000  1.0 0.6217939854
C  C4  1  0.23212000  0.81125000  0.06747000  1.0 0.5909433776
C  C5  1  0.42380000  0.79940000  0.12621000  1.0 0.0685159354
C  C6  1  0.36150000  0.79510000  0.06865000  1.0 -0.1084939985
C  C7  1  0.52030000  0.66040000  0.24273000  1.0 -0.1573560721
C  C8  1  0.73730000  0.84510000  0.14889000  1.0 -0.1573560721
C  C9  1  0.36140000  0.80770000  0.14468000  1.0 -0.1492210519
C  C10  1  0.79550000  0.88350000  0.13916000  1.0 -0.0999423645
C  C11  1  0.58500000  0.72030000  0.30305000  1.0 -0.1084939985
C  C12  1  0.29970000  0.80970000  0.12563000  1.0 -0.0999423645
C  C13  1  0.72268000  0.97630000  0.11928000  1.0 -0.0999423645
C  C14  1  0.55111000  0.62110000  0.34350000  1.0 0.6217939854
C  C15  1  0.58560000  0.75310000  0.26943000  1.0 -0.1492210519
C  C16  1  0.55210000  0.76130000  0.20282000  1.0 0.0783716519
C  C17  1  0.51940000  0.62740000  0.27703000  1.0 -0.0999423645
C  C18  1  0.67130000  0.87230000  0.14426000  1.0 0.0685159354
C  C19  1  0.55143000  0.65630000  0.30702000  1.0 -0.050888442
C  C20  1  0.66420000  0.93850000  0.12911000  1.0 -0.1573560721
C  C21  1  0.42330000  0.79310000  0.08773000  1.0 -0.1492210519
C  C22  1  0.48980000  0.79760000  0.14785000  1.0 0.0783716519
C  C23  1  0.60910000  0.83360000  0.15700000  1.0 0.0783716519
C  C24  1  0.61010000  0.79690000  0.18997000  1.0 -0.2088940218
C  C25  1  0.49260000  0.76150000  0.18094000  1.0 -0.2088940218
C  C26  1  0.54830000  0.83300000  0.13594000  1.0 -0.2088940218
C  C27  1  0.55290000  0.72430000  0.23856000  1.0 0.0685159354
C  C28  1  0.21181000  0.05110000  0.12408000  1.0 -0.0418463796
C  C29  1  0.70061000  0.19624000  0.08742000  1.0 -0.0264121871
C  C30  1  0.14906000  0.00999000  0.11418000  1.0 0.6217939854
C  C31  1  0.76788000  0.18875000  0.06747000  1.0 0.5909433776
C  C32  1  0.57620000  0.20060000  0.12621000  1.0 0.0685159354
C  C33  1  0.63850000  0.20490000  0.06865000  1.0 -0.1084939985
C  C34  1  0.47970000  0.33960000  0.24273000  1.0 -0.1573560721
C  C35  1  0.26270000  0.15490000  0.14889000  1.0 -0.1573560721
C  C36  1  0.63860000  0.19230000  0.14468000  1.0 -0.1492210519
C  C37  1  0.20450000  0.11650000  0.13916000  1.0 -0.0999423645
C  C38  1  0.41500000  0.27970000  0.30305000  1.0 -0.1084939985
C  C39  1  0.70030000  0.19030000  0.12563000  1.0 -0.0999423645
C  C40  1  0.27732000  0.02370000  0.11928000  1.0 -0.0999423645
C  C41  1  0.44889000  0.37890000  0.34350000  1.0 0.6217939854
C  C42  1  0.41440000  0.24690000  0.26943000  1.0 -0.1492210519
C  C43  1  0.44790000  0.23870000  0.20282000  1.0 0.0783716519
C  C44  1  0.48060000  0.37260000  0.27703000  1.0 -0.0999423645
C  C45  1  0.32870000  0.12770000  0.14426000  1.0 0.0685159354
C  C46  1  0.44857000  0.34370000  0.30702000  1.0 -0.050888442
C  C47  1  0.33580000  0.06150000  0.12911000  1.0 -0.1573560721
C  C48  1  0.57670000  0.20690000  0.08773000  1.0 -0.1492210519
C  C49  1  0.51020000  0.20240000  0.14785000  1.0 0.0783716519
C  C50  1  0.39090000  0.16640000  0.15700000  1.0 0.0783716519
C  C51  1  0.38990000  0.20310000  0.18997000  1.0 -0.2088940218
C  C52  1  0.50740000  0.23850000  0.18094000  1.0 -0.2088940218
C  C53  1  0.45170000  0.16700000  0.13594000  1.0 -0.2088940218
C  C54  1  0.44710000  0.27570000  0.23856000  1.0 0.0685159354
C  C55  1  0.55110000  0.28819000  0.62408000  1.0 -0.0418463796
C  C56  1  0.69624000  0.79939000  0.58742000  1.0 -0.0264121871
C  C57  1  0.50999000  0.35094000  0.61418000  1.0 0.6217939854
C  C58  1  0.68875000  0.73212000  0.56747000  1.0 0.5909433776
C  C59  1  0.70060000  0.92380000  0.62621000  1.0 0.0685159354
C  C60  1  0.70490000  0.86150000  0.56865000  1.0 -0.1084939985
C  C61  1  0.83960000  0.02030000  0.74273000  1.0 -0.1573560721
C  C62  1  0.65490000  0.23730000  0.64889000  1.0 -0.1573560721
C  C63  1  0.69230000  0.86140000  0.64468000  1.0 -0.1492210519
C  C64  1  0.61650000  0.29550000  0.63916000  1.0 -0.0999423645
C  C65  1  0.77970000  0.08500000  0.80305000  1.0 -0.1084939985
C  C66  1  0.69030000  0.79970000  0.62563000  1.0 -0.0999423645
C  C67  1  0.52370000  0.22268000  0.61928000  1.0 -0.0999423645
C  C68  1  0.87890000  0.05111000  0.84350000  1.0 0.6217939854
C  C69  1  0.74690000  0.08560000  0.76943000  1.0 -0.1492210519
C  C70  1  0.73870000  0.05210000  0.70282000  1.0 0.0783716519
C  C71  1  0.87260000  0.01940000  0.77703000  1.0 -0.0999423645
C  C72  1  0.62770000  0.17130000  0.64426000  1.0 0.0685159354
C  C73  1  0.84370000  0.05143000  0.80702000  1.0 -0.050888442
C  C74  1  0.56150000  0.16420000  0.62911000  1.0 -0.1573560721
C  C75  1  0.70690000  0.92330000  0.58773000  1.0 -0.1492210519
C  C76  1  0.70240000  0.98980000  0.64785000  1.0 0.0783716519
C  C77  1  0.66640000  0.10910000  0.65700000  1.0 0.0783716519
C  C78  1  0.70310000  0.11010000  0.68997000  1.0 -0.2088940218
C  C79  1  0.73850000  0.99260000  0.68094000  1.0 -0.2088940218
C  C80  1  0.66700000  0.04830000  0.63594000  1.0 -0.2088940218
C  C81  1  0.77570000  0.05290000  0.73856000  1.0 0.0685159354
C  C82  1  0.44890000  0.71181000  0.62408000  1.0 -0.0418463796
C  C83  1  0.30376000  0.20061000  0.58742000  1.0 -0.0264121871
C  C84  1  0.49001000  0.64906000  0.61418000  1.0 0.6217939854
C  C85  1  0.31125000  0.26788000  0.56747000  1.0 0.5909433776
C  C86  1  0.29940000  0.07620000  0.62621000  1.0 0.0685159354
C  C87  1  0.29510000  0.13850000  0.56865000  1.0 -0.1084939985
C  C88  1  0.16040000  0.97970000  0.74273000  1.0 -0.1573560721
C  C89  1  0.34510000  0.76270000  0.64889000  1.0 -0.1573560721
C  C90  1  0.30770000  0.13860000  0.64468000  1.0 -0.1492210519
C  C91  1  0.38350000  0.70450000  0.63916000  1.0 -0.0999423645
C  C92  1  0.22030000  0.91500000  0.80305000  1.0 -0.1084939985
C  C93  1  0.30970000  0.20030000  0.62563000  1.0 -0.0999423645
C  C94  1  0.47630000  0.77732000  0.61928000  1.0 -0.0999423645
C  C95  1  0.12110000  0.94889000  0.84350000  1.0 0.6217939854
C  C96  1  0.25310000  0.91440000  0.76943000  1.0 -0.1492210519
C  C97  1  0.26130000  0.94790000  0.70282000  1.0 0.0783716519
C  C98  1  0.12740000  0.98060000  0.77703000  1.0 -0.0999423645
C  C99  1  0.37230000  0.82870000  0.64426000  1.0 0.0685159354
C  C100  1  0.15630000  0.94857000  0.80702000  1.0 -0.050888442
C  C101  1  0.43850000  0.83580000  0.62911000  1.0 -0.1573560721
C  C102  1  0.29310000  0.07670000  0.58773000  1.0 -0.1492210519
C  C103  1  0.29760000  0.01020000  0.64785000  1.0 0.0783716519
C  C104  1  0.33360000  0.89090000  0.65700000  1.0 0.0783716519
C  C105  1  0.29690000  0.88990000  0.68997000  1.0 -0.2088940218
C  C106  1  0.26150000  0.00740000  0.68094000  1.0 -0.2088940218
C  C107  1  0.33300000  0.95170000  0.63594000  1.0 -0.2088940218
C  C108  1  0.22430000  0.94710000  0.73856000  1.0 0.0685159354
C  C109  1  0.71181000  0.44890000  0.37592000  1.0 -0.0418463796
C  C110  1  0.20061000  0.30376000  0.41258000  1.0 -0.0264121871
C  C111  1  0.64906000  0.49001000  0.38582000  1.0 0.6217939854
C  C112  1  0.26788000  0.31125000  0.43253000  1.0 0.5909433776
C  C113  1  0.07620000  0.29940000  0.37379000  1.0 0.0685159354
C  C114  1  0.13850000  0.29510000  0.43135000  1.0 -0.1084939985
C  C115  1  0.97970000  0.16040000  0.25727000  1.0 -0.1573560721
C  C116  1  0.76270000  0.34510000  0.35111000  1.0 -0.1573560721
C  C117  1  0.13860000  0.30770000  0.35532000  1.0 -0.1492210519
C  C118  1  0.70450000  0.38350000  0.36084000  1.0 -0.0999423645
C  C119  1  0.91500000  0.22030000  0.19695000  1.0 -0.1084939985
C  C120  1  0.20030000  0.30970000  0.37437000  1.0 -0.0999423645
C  C121  1  0.77732000  0.47630000  0.38072000  1.0 -0.0999423645
C  C122  1  0.94889000  0.12110000  0.15650000  1.0 0.6217939854
C  C123  1  0.91440000  0.25310000  0.23057000  1.0 -0.1492210519
C  C124  1  0.94790000  0.26130000  0.29718000  1.0 0.0783716519
C  C125  1  0.98060000  0.12740000  0.22297000  1.0 -0.0999423645
C  C126  1  0.82870000  0.37230000  0.35574000  1.0 0.0685159354
C  C127  1  0.94857000  0.15630000  0.19298000  1.0 -0.050888442
C  C128  1  0.83580000  0.43850000  0.37089000  1.0 -0.1573560721
C  C129  1  0.07670000  0.29310000  0.41227000  1.0 -0.1492210519
C  C130  1  0.01020000  0.29760000  0.35215000  1.0 0.0783716519
C  C131  1  0.89090000  0.33360000  0.34300000  1.0 0.0783716519
C  C132  1  0.88990000  0.29690000  0.31003000  1.0 -0.2088940218
C  C133  1  0.00740000  0.26150000  0.31906000  1.0 -0.2088940218
C  C134  1  0.95170000  0.33300000  0.36406000  1.0 -0.2088940218
C  C135  1  0.94710000  0.22430000  0.26144000  1.0 0.0685159354
C  C136  1  0.28819000  0.55110000  0.37592000  1.0 -0.0418463796
C  C137  1  0.79939000  0.69624000  0.41258000  1.0 -0.0264121871
C  C138  1  0.35094000  0.50999000  0.38582000  1.0 0.6217939854
C  C139  1  0.73212000  0.68875000  0.43253000  1.0 0.5909433776
C  C140  1  0.92380000  0.70060000  0.37379000  1.0 0.0685159354
C  C141  1  0.86150000  0.70490000  0.43135000  1.0 -0.1084939985
C  C142  1  0.02030000  0.83960000  0.25727000  1.0 -0.1573560721
C  C143  1  0.23730000  0.65490000  0.35111000  1.0 -0.1573560721
C  C144  1  0.86140000  0.69230000  0.35532000  1.0 -0.1492210519
C  C145  1  0.29550000  0.61650000  0.36084000  1.0 -0.0999423645
C  C146  1  0.08500000  0.77970000  0.19695000  1.0 -0.1084939985
C  C147  1  0.79970000  0.69030000  0.37437000  1.0 -0.0999423645
C  C148  1  0.22268000  0.52370000  0.38072000  1.0 -0.0999423645
C  C149  1  0.05111000  0.87890000  0.15650000  1.0 0.6217939854
C  C150  1  0.08560000  0.74690000  0.23057000  1.0 -0.1492210519
C  C151  1  0.05210000  0.73870000  0.29718000  1.0 0.0783716519
C  C152  1  0.01940000  0.87260000  0.22297000  1.0 -0.0999423645
C  C153  1  0.17130000  0.62770000  0.35574000  1.0 0.0685159354
C  C154  1  0.05143000  0.84370000  0.19298000  1.0 -0.050888442
C  C155  1  0.16420000  0.56150000  0.37089000  1.0 -0.1573560721
C  C156  1  0.92330000  0.70690000  0.41227000  1.0 -0.1492210519
C  C157  1  0.98980000  0.70240000  0.35215000  1.0 0.0783716519
C  C158  1  0.10910000  0.66640000  0.34300000  1.0 0.0783716519
C  C159  1  0.11010000  0.70310000  0.31003000  1.0 -0.2088940218
C  C160  1  0.99260000  0.73850000  0.31906000  1.0 -0.2088940218
C  C161  1  0.04830000  0.66700000  0.36406000  1.0 -0.2088940218
C  C162  1  0.05290000  0.77570000  0.26144000  1.0 0.0685159354
C  C163  1  0.94890000  0.78819000  0.87592000  1.0 -0.0418463796
C  C164  1  0.80376000  0.29939000  0.91258000  1.0 -0.0264121871
C  C165  1  0.99001000  0.85094000  0.88582000  1.0 0.6217939854
C  C166  1  0.81125000  0.23212000  0.93253000  1.0 0.5909433776
C  C167  1  0.79940000  0.42380000  0.87379000  1.0 0.0685159354
C  C168  1  0.79510000  0.36150000  0.93135000  1.0 -0.1084939985
C  C169  1  0.66040000  0.52030000  0.75727000  1.0 -0.1573560721
C  C170  1  0.84510000  0.73730000  0.85111000  1.0 -0.1573560721
C  C171  1  0.80770000  0.36140000  0.85532000  1.0 -0.1492210519
C  C172  1  0.88350000  0.79550000  0.86084000  1.0 -0.0999423645
C  C173  1  0.72030000  0.58500000  0.69695000  1.0 -0.1084939985
C  C174  1  0.80970000  0.29970000  0.87437000  1.0 -0.0999423645
C  C175  1  0.97630000  0.72268000  0.88072000  1.0 -0.0999423645
C  C176  1  0.62110000  0.55111000  0.65650000  1.0 0.6217939854
C  C177  1  0.75310000  0.58560000  0.73057000  1.0 -0.1492210519
C  C178  1  0.76130000  0.55210000  0.79718000  1.0 0.0783716519
C  C179  1  0.62740000  0.51940000  0.72297000  1.0 -0.0999423645
C  C180  1  0.87230000  0.67130000  0.85574000  1.0 0.0685159354
C  C181  1  0.65630000  0.55143000  0.69298000  1.0 -0.050888442
C  C182  1  0.93850000  0.66420000  0.87089000  1.0 -0.1573560721
C  C183  1  0.79310000  0.42330000  0.91227000  1.0 -0.1492210519
C  C184  1  0.79760000  0.48980000  0.85215000  1.0 0.0783716519
C  C185  1  0.83360000  0.60910000  0.84300000  1.0 0.0783716519
C  C186  1  0.79690000  0.61010000  0.81003000  1.0 -0.2088940218
C  C187  1  0.76150000  0.49260000  0.81906000  1.0 -0.2088940218
C  C188  1  0.83300000  0.54830000  0.86406000  1.0 -0.2088940218
C  C189  1  0.72430000  0.55290000  0.76144000  1.0 0.0685159354
C  C190  1  0.05110000  0.21181000  0.87592000  1.0 -0.0418463796
C  C191  1  0.19624000  0.70061000  0.91258000  1.0 -0.0264121871
C  C192  1  0.00999000  0.14906000  0.88582000  1.0 0.6217939854
C  C193  1  0.18875000  0.76788000  0.93253000  1.0 0.5909433776
C  C194  1  0.20060000  0.57620000  0.87379000  1.0 0.0685159354
C  C195  1  0.20490000  0.63850000  0.93135000  1.0 -0.1084939985
C  C196  1  0.33960000  0.47970000  0.75727000  1.0 -0.1573560721
C  C197  1  0.15490000  0.26270000  0.85111000  1.0 -0.1573560721
C  C198  1  0.19230000  0.63860000  0.85532000  1.0 -0.1492210519
C  C199  1  0.11650000  0.20450000  0.86084000  1.0 -0.0999423645
C  C200  1  0.27970000  0.41500000  0.69695000  1.0 -0.1084939985
C  C201  1  0.19030000  0.70030000  0.87437000  1.0 -0.0999423645
C  C202  1  0.02370000  0.27732000  0.88072000  1.0 -0.0999423645
C  C203  1  0.37890000  0.44889000  0.65650000  1.0 0.6217939854
C  C204  1  0.24690000  0.41440000  0.73057000  1.0 -0.1492210519
C  C205  1  0.23870000  0.44790000  0.79718000  1.0 0.0783716519
C  C206  1  0.37260000  0.48060000  0.72297000  1.0 -0.0999423645
C  C207  1  0.12770000  0.32870000  0.85574000  1.0 0.0685159354
C  C208  1  0.34370000  0.44857000  0.69298000  1.0 -0.050888442
C  C209  1  0.06150000  0.33580000  0.87089000  1.0 -0.1573560721
C  C210  1  0.20690000  0.57670000  0.91227000  1.0 -0.1492210519
C  C211  1  0.20240000  0.51020000  0.85215000  1.0 0.0783716519
C  C212  1  0.16640000  0.39090000  0.84300000  1.0 0.0783716519
C  C213  1  0.20310000  0.38990000  0.81003000  1.0 -0.2088940218
C  C214  1  0.23850000  0.50740000  0.81906000  1.0 -0.2088940218
C  C215  1  0.16700000  0.45170000  0.86406000  1.0 -0.2088940218
C  C216  1  0.27570000  0.44710000  0.76144000  1.0 0.0685159354
C  C217  1  0.00410000  0.23400000  0.05910000  0.38 0.0998941822
C  C218  1  0.00530000  0.28590000  0.03200000  0.38 -0.0781856672
C  C219  1  0.11000000  0.32950000  0.05650000  0.38 -0.1084939985
C  C220  1  0.05580000  0.22660000  0.08370000  0.38 -0.2604036219
C  C221  1  0.11210000  0.27510000  0.08280000  0.38 -0.0729753235
C  C222  1  0.06380000  0.33290000  0.02950000  0.38 -0.1492210519
C  C223  1  0.94950000  0.27270000  0.00890000  0.38 -0.058139851
C  C224  1  0.99590000  0.76600000  0.05910000  0.38 0.0998941822
C  C225  1  0.99470000  0.71410000  0.03200000  0.38 -0.0781856672
C  C226  1  0.89000000  0.67050000  0.05650000  0.38 -0.1084939985
C  C227  1  0.94420000  0.77340000  0.08370000  0.38 -0.2604036219
C  C228  1  0.88790000  0.72490000  0.08280000  0.38 -0.0729753235
C  C229  1  0.93620000  0.66710000  0.02950000  0.38 -0.1443366966
C  C230  1  0.05050000  0.72730000  0.00890000  0.38 -0.050888442
C  C231  1  0.26600000  0.50410000  0.55910000  0.38 0.0998941822
C  C232  1  0.21410000  0.50530000  0.53200000  0.38 -0.0781856672
C  C233  1  0.17050000  0.61000000  0.55650000  0.38 -0.1084939985
C  C234  1  0.27340000  0.55580000  0.58370000  0.38 -0.2604036219
C  C235  1  0.22490000  0.61210000  0.58280000  0.38 -0.0729753235
C  C236  1  0.16710000  0.56380000  0.52950000  0.38 -0.1492210519
C  C237  1  0.22730000  0.44950000  0.50890000  0.38 -0.050888442
C  C238  1  0.73400000  0.49590000  0.55910000  0.38 0.0998941822
C  C239  1  0.78590000  0.49470000  0.53200000  0.38 -0.0781856672
C  C240  1  0.82950000  0.39000000  0.55650000  0.38 -0.0999423645
C  C241  1  0.72660000  0.44420000  0.58370000  0.38 -0.2604036219
C  C242  1  0.77510000  0.38790000  0.58280000  0.38 -0.0729753235
C  C243  1  0.83290000  0.43620000  0.52950000  0.38 -0.1443366966
C  C244  1  0.77270000  0.55050000  0.50890000  0.38 -0.050888442
C  C245  1  0.49590000  0.73400000  0.44090000  0.38 0.0998941822
C  C246  1  0.49470000  0.78590000  0.46800000  0.38 -0.0781856672
C  C247  1  0.39000000  0.82950000  0.44350000  0.38 -0.1084939985
C  C248  1  0.44420000  0.72660000  0.41630000  0.38 -0.2604036219
C  C249  1  0.38790000  0.77510000  0.41720000  0.38 -0.0729753235
C  C250  1  0.43620000  0.83290000  0.47050000  0.38 -0.1492210519
C  C251  1  0.55050000  0.77270000  0.49110000  0.38 -0.050888442
C  C252  1  0.50410000  0.26600000  0.44090000  0.38 0.0998941822
C  C253  1  0.50530000  0.21410000  0.46800000  0.38 -0.0781856672
C  C254  1  0.61000000  0.17050000  0.44350000  0.38 -0.0999423645
C  C255  1  0.55580000  0.27340000  0.41630000  0.38 -0.2604036219
C  C256  1  0.61210000  0.22490000  0.41720000  0.38 -0.0729753235
C  C257  1  0.56380000  0.16710000  0.47050000  0.38 -0.1492210519
C  C258  1  0.44950000  0.22730000  0.49110000  0.38 -0.050888442
C  C259  1  0.23400000  0.00410000  0.94090000  0.38 0.0948182755
C  C260  1  0.28590000  0.00530000  0.96800000  0.38 -0.0781856672
C  C261  1  0.32950000  0.11000000  0.94350000  0.38 -0.0999423645
C  C262  1  0.22660000  0.05580000  0.91630000  0.38 -0.2604036219
C  C263  1  0.27510000  0.11210000  0.91720000  0.38 -0.0729753235
C  C264  1  0.33290000  0.06380000  0.97050000  0.38 -0.1492210519
C  C265  1  0.27270000  0.94950000  0.99110000  0.38 -0.058139851
C  C266  1  0.76600000  0.99590000  0.94090000  0.38 0.0998941822
C  C267  1  0.71410000  0.99470000  0.96800000  0.38 -0.0781856672
C  C268  1  0.67050000  0.89000000  0.94350000  0.38 -0.1084939985
C  C269  1  0.77340000  0.94420000  0.91630000  0.38 -0.2604036219
C  C270  1  0.72490000  0.88790000  0.91720000  0.38 -0.0729753235
C  C271  1  0.66710000  0.93620000  0.97050000  0.38 -0.1492210519
C  C272  1  0.72730000  0.05050000  0.99110000  0.38 -0.050888442
C  C273  1  0.94290000  0.23940000  0.04170000  0.62 0.1638221704
C  C274  1  0.05710000  0.76060000  0.04170000  0.62 0.168360848
C  C275  1  0.26060000  0.44290000  0.54170000  0.62 0.168360848
C  C276  1  0.73940000  0.55710000  0.54170000  0.62 0.168360848
C  C277  1  0.55710000  0.73940000  0.45830000  0.62 0.168360848
C  C278  1  0.44290000  0.26060000  0.45830000  0.62 0.168360848
C  C279  1  0.23940000  0.94290000  0.95830000  0.62 0.1638221704
C  C280  1  0.76060000  0.05710000  0.95830000  0.62 0.168360848
N  N1  1  0.94640000  0.19380000  0.05390000  0.38 -0.058139851
N  N2  1  0.91320000  0.21920000  0.02260000  0.38 -0.058139851
N  N3  1  0.05360000  0.80620000  0.05390000  0.38 -0.058139851
N  N4  1  0.08680000  0.78080000  0.02260000  0.38 -0.058139851
N  N5  1  0.30620000  0.44640000  0.55390000  0.38 -0.058139851
N  N6  1  0.28080000  0.41320000  0.52260000  0.38 -0.058139851
N  N7  1  0.69380000  0.55360000  0.55390000  0.38 -0.058139851
N  N8  1  0.71920000  0.58680000  0.52260000  0.38 -0.058139851
N  N9  1  0.55360000  0.69380000  0.44610000  0.38 -0.058139851
N  N10  1  0.58680000  0.71920000  0.47740000  0.38 -0.058139851
N  N11  1  0.44640000  0.30620000  0.44610000  0.38 -0.058139851
N  N12  1  0.41320000  0.28080000  0.47740000  0.38 -0.058139851
N  N13  1  0.19380000  0.94640000  0.94610000  0.38 -0.058139851
N  N14  1  0.21920000  0.91320000  0.97740000  0.38 -0.058139851
N  N15  1  0.80620000  0.05360000  0.94610000  0.38 -0.058139851
N  N16  1  0.78080000  0.08680000  0.97740000  0.38 -0.058139851
O  O1  1  0.97434000  0.06384000  0.08063000  1.0 -0.9440422691
O  O2  1  0.84132000  0.05098000  0.10264000  1.0 -0.5989920559
O  O3  1  0.87007000  0.09930000  0.03480000  1.0 -0.8808130212
O  O4  1  0.17914000  0.81992000  0.08687000  1.0 -0.5883935205
O  O5  1  0.90939000  0.96156000  0.11803000  1.0 -0.6056109704
O  O6  1  0.52395000  0.56171000  0.34504000  1.0 -0.5883935205
O  O7  1  0.57814000  0.65282000  0.37044000  1.0 -0.5989920559
O  O8  1  0.23297000  0.80897000  0.03234000  1.0 -0.5989920559
O  O9  1  0.02566000  0.93616000  0.08063000  1.0 -0.9440422691
O  O10  1  0.15868000  0.94902000  0.10264000  1.0 -0.5989920559
O  O11  1  0.12993000  0.90070000  0.03480000  1.0 -0.8808130212
O  O12  1  0.82086000  0.18008000  0.08687000  1.0 -0.5883935205
O  O13  1  0.09061000  0.03844000  0.11803000  1.0 -0.6056109704
O  O14  1  0.47605000  0.43829000  0.34504000  1.0 -0.5883935205
O  O15  1  0.42186000  0.34718000  0.37044000  1.0 -0.5989920559
O  O16  1  0.76703000  0.19103000  0.03234000  1.0 -0.5989920559
O  O17  1  0.43616000  0.47434000  0.58063000  1.0 -0.9440422691
O  O18  1  0.44902000  0.34132000  0.60264000  1.0 -0.5989920559
O  O19  1  0.40070000  0.37007000  0.53480000  1.0 -0.8808130212
O  O20  1  0.68008000  0.67914000  0.58687000  1.0 -0.5883935205
O  O21  1  0.53844000  0.40939000  0.61803000  1.0 -0.6056109704
O  O22  1  0.93829000  0.02395000  0.84504000  1.0 -0.5883935205
O  O23  1  0.84718000  0.07814000  0.87044000  1.0 -0.5989920559
O  O24  1  0.69103000  0.73297000  0.53234000  1.0 -0.5989920559
O  O25  1  0.56384000  0.52566000  0.58063000  1.0 -0.9440422691
O  O26  1  0.55098000  0.65868000  0.60264000  1.0 -0.5989920559
O  O27  1  0.59930000  0.62993000  0.53480000  1.0 -0.8808130212
O  O28  1  0.31992000  0.32086000  0.58687000  1.0 -0.5883935205
O  O29  1  0.46156000  0.59061000  0.61803000  1.0 -0.6056109704
O  O30  1  0.06171000  0.97605000  0.84504000  1.0 -0.5883935205
O  O31  1  0.15282000  0.92186000  0.87044000  1.0 -0.5989920559
O  O32  1  0.30897000  0.26703000  0.53234000  1.0 -0.5989920559
O  O33  1  0.52566000  0.56384000  0.41937000  1.0 -0.9440422691
O  O34  1  0.65868000  0.55098000  0.39736000  1.0 -0.5989920559
O  O35  1  0.62993000  0.59930000  0.46520000  1.0 -0.8808130212
O  O36  1  0.32086000  0.31992000  0.41313000  1.0 -0.5883935205
O  O37  1  0.59061000  0.46156000  0.38197000  1.0 -0.6056109704
O  O38  1  0.97605000  0.06171000  0.15496000  1.0 -0.5883935205
O  O39  1  0.92186000  0.15282000  0.12956000  1.0 -0.5989920559
O  O40  1  0.26703000  0.30897000  0.46766000  1.0 -0.5989920559
O  O41  1  0.47434000  0.43616000  0.41937000  1.0 -0.9440422691
O  O42  1  0.34132000  0.44902000  0.39736000  1.0 -0.5989920559
O  O43  1  0.37007000  0.40070000  0.46520000  1.0 -0.8808130212
O  O44  1  0.67914000  0.68008000  0.41313000  1.0 -0.5883935205
O  O45  1  0.40939000  0.53844000  0.38197000  1.0 -0.6056109704
O  O46  1  0.02395000  0.93829000  0.15496000  1.0 -0.5883935205
O  O47  1  0.07814000  0.84718000  0.12956000  1.0 -0.5989920559
O  O48  1  0.73297000  0.69103000  0.46766000  1.0 -0.5989920559
O  O49  1  0.06384000  0.97434000  0.91937000  1.0 -0.9440422691
O  O50  1  0.05098000  0.84132000  0.89736000  1.0 -0.5989920559
O  O51  1  0.09930000  0.87007000  0.96520000  1.0 -0.8808130212
O  O52  1  0.81992000  0.17914000  0.91313000  1.0 -0.5883935205
O  O53  1  0.96156000  0.90939000  0.88197000  1.0 -0.6056109704
O  O54  1  0.56171000  0.52395000  0.65496000  1.0 -0.5883935205
O  O55  1  0.65282000  0.57814000  0.62956000  1.0 -0.5989920559
O  O56  1  0.80897000  0.23297000  0.96766000  1.0 -0.5989920559
O  O57  1  0.93616000  0.02566000  0.91937000  1.0 -0.9440422691
O  O58  1  0.94902000  0.15868000  0.89736000  1.0 -0.5989920559
O  O59  1  0.90070000  0.12993000  0.96520000  1.0 -0.8808130212
O  O60  1  0.18008000  0.82086000  0.91313000  1.0 -0.5883935205
O  O61  1  0.03844000  0.09061000  0.88197000  1.0 -0.6056109704
O  O62  1  0.43829000  0.47605000  0.65496000  1.0 -0.5883935205
O  O63  1  0.34718000  0.42186000  0.62956000  1.0 -0.5989920559
O  O64  1  0.19103000  0.76703000  0.96766000  1.0 -0.5989920559
O  O65  1  0.89820000  0.23580000  0.01630000  0.62 -0.1084939985
O  O66  1  0.95560000  0.20000000  0.06740000  0.62 -0.050888442
O  O67  1  0.10180000  0.76420000  0.01630000  0.62 -0.1084939985
O  O68  1  0.04440000  0.80000000  0.06740000  0.62 -0.050888442
O  O69  1  0.26420000  0.39820000  0.51630000  0.62 -0.1084939985
O  O70  1  0.30000000  0.45560000  0.56740000  0.62 -0.050888442
O  O71  1  0.73580000  0.60180000  0.51630000  0.62 -0.1084939985
O  O72  1  0.70000000  0.54440000  0.56740000  0.62 -0.050888442
O  O73  1  0.60180000  0.73580000  0.48370000  0.62 -0.1084939985
O  O74  1  0.54440000  0.70000000  0.43260000  0.62 -0.050888442
O  O75  1  0.39820000  0.26420000  0.48370000  0.62 -0.1084939985
O  O76  1  0.45560000  0.30000000  0.43260000  0.62 -0.050888442
O  O77  1  0.23580000  0.89820000  0.98370000  0.62 -0.1084939985
O  O78  1  0.20000000  0.95560000  0.93260000  0.62 -0.050888442
O  O79  1  0.76420000  0.10180000  0.98370000  0.62 -0.1084939985
O  O80  1  0.80000000  0.04440000  0.93260000  0.62 -0.050888442
