# DDEC6 charges by PACMAN v1.1 (https://github.com/mtap-research/PACMAN-charge/)
data_cm0c02277_si_001_FSR_pacman
_symmetry_space_group_name_H-M   'P 1'
_cell_length_a   42.41150000
_cell_length_b   42.41150000
_cell_length_c   42.41150000
_cell_angle_alpha   90.00000000
_cell_angle_beta   90.00000000
_cell_angle_gamma   90.00000000
_symmetry_Int_Tables_number   1
_chemical_formula_structural   Zn28C360O91
_chemical_formula_sum   'Zn28 C360 O91'
_cell_volume   76287.06354372
_cell_formula_units_Z   1
loop_
 _symmetry_equiv_pos_site_id
 _symmetry_equiv_pos_as_xyz
  1  'x, y, z'
loop_
 _atom_site_type_symbol
 _atom_site_label
 _atom_site_symmetry_multiplicity
 _atom_site_fract_x
 _atom_site_fract_y
 _atom_site_fract_z
 _atom_site_occupancy
 _atom_site_charge
Zn  Zn1  1  0.52594000  0.47406000  0.97506000  1.0 0.940792666
Zn  Zn2  1  0.47406000  0.52594000  0.97506000  1.0 0.940792666
Zn  Zn3  1  0.47406000  0.47406000  0.02494000  1.0 0.940792666
Zn  Zn4  1  0.52594000  0.52594000  0.02494000  1.0 0.940792666
Zn  Zn5  1  0.97506000  0.52594000  0.47406000  1.0 0.940792666
Zn  Zn6  1  0.97506000  0.47406000  0.52594000  1.0 0.940792666
Zn  Zn7  1  0.02494000  0.47406000  0.47406000  1.0 0.940792666
Zn  Zn8  1  0.02494000  0.52594000  0.52594000  1.0 0.940792666
Zn  Zn9  1  0.47406000  0.97506000  0.52594000  1.0 0.940792666
Zn  Zn10  1  0.52594000  0.97506000  0.47406000  1.0 0.940792666
Zn  Zn11  1  0.47406000  0.02494000  0.47406000  1.0 0.940792666
Zn  Zn12  1  0.52594000  0.02494000  0.52594000  1.0 0.940792666
Zn  Zn13  1  0.52664000  0.52664000  0.52664000  1.0 0.9700659525
Zn  Zn14  1  0.47336000  0.47336000  0.52664000  1.0 0.9700659525
Zn  Zn15  1  0.47336000  0.52664000  0.47336000  1.0 0.9700659525
Zn  Zn16  1  0.52664000  0.47336000  0.47336000  1.0 0.9700659525
Zn  Zn17  1  0.97400000  0.52070000  0.97400000  1.0 0.8529336374
Zn  Zn18  1  0.02600000  0.47930000  0.97400000  1.0 0.8555769399
Zn  Zn19  1  0.02600000  0.52070000  0.02600000  1.0 0.8529336374
Zn  Zn20  1  0.97400000  0.47930000  0.02600000  1.0 0.8555769399
Zn  Zn21  1  0.97400000  0.97400000  0.52070000  1.0 0.8529336374
Zn  Zn22  1  0.97400000  0.02600000  0.47930000  1.0 0.8555769399
Zn  Zn23  1  0.02600000  0.02600000  0.52070000  1.0 0.8529336374
Zn  Zn24  1  0.02600000  0.97400000  0.47930000  1.0 0.8555769399
Zn  Zn25  1  0.52070000  0.97400000  0.97400000  1.0 0.8529336374
Zn  Zn26  1  0.47930000  0.97400000  0.02600000  1.0 0.8555769399
Zn  Zn27  1  0.52070000  0.02600000  0.02600000  1.0 0.8555769399
Zn  Zn28  1  0.47930000  0.02600000  0.97400000  1.0 0.8555769399
C  C1  1  0.63550000  0.47900000  0.98050000  1.0 0.0094752216
C  C2  1  0.66810000  0.48130000  0.97840000  1.0 -0.0317240452
C  C3  1  0.73690000  0.52220000  0.01770000  1.0 -0.0495982647
C  C4  1  0.76940000  0.51870000  0.02130000  1.0 -0.0495982647
C  C5  1  0.83680000  0.52540000  0.01270000  1.0 0.0094752216
C  C6  1  0.86940000  0.52670000  0.00990000  1.0 -0.0103402232
C  C7  1  0.36450000  0.52100000  0.98050000  1.0 0.0196372002
C  C8  1  0.33190000  0.51870000  0.97840000  1.0 -0.0368053657
C  C9  1  0.26310000  0.47780000  0.01770000  1.0 -0.0652090822
C  C10  1  0.23060000  0.48130000  0.02130000  1.0 -0.0495982647
C  C11  1  0.16320000  0.47460000  0.01270000  1.0 -0.0103402232
C  C12  1  0.13060000  0.47330000  0.00990000  1.0 0.0094752216
C  C13  1  0.36450000  0.47900000  0.01950000  1.0 0.0196372002
C  C14  1  0.33190000  0.48130000  0.02160000  1.0 -0.0317240452
C  C15  1  0.26310000  0.52220000  0.98230000  1.0 -0.0368053657
C  C16  1  0.23060000  0.51870000  0.97870000  1.0 -0.0368053657
C  C17  1  0.16320000  0.52540000  0.98730000  1.0 -0.0178649996
C  C18  1  0.13060000  0.52670000  0.99010000  1.0 -0.0013908817
C  C19  1  0.63550000  0.52100000  0.01950000  1.0 0.0094752216
C  C20  1  0.66810000  0.51870000  0.02160000  1.0 -0.0317240452
C  C21  1  0.73690000  0.47780000  0.98230000  1.0 -0.0495982647
C  C22  1  0.76940000  0.48130000  0.97870000  1.0 -0.0495982647
C  C23  1  0.83680000  0.47460000  0.98730000  1.0 -0.0178649996
C  C24  1  0.86940000  0.47330000  0.99010000  1.0 0.0094752216
C  C25  1  0.98050000  0.63550000  0.47900000  1.0 0.0094752216
C  C26  1  0.97840000  0.66810000  0.48130000  1.0 -0.0317240452
C  C27  1  0.01770000  0.73690000  0.52220000  1.0 -0.0495982647
C  C28  1  0.02130000  0.76940000  0.51870000  1.0 -0.0495982647
C  C29  1  0.01270000  0.83680000  0.52540000  1.0 0.0094752216
C  C30  1  0.00990000  0.86940000  0.52670000  1.0 -0.0103402232
C  C31  1  0.98050000  0.36450000  0.52100000  1.0 0.0196372002
C  C32  1  0.97840000  0.33190000  0.51870000  1.0 -0.0368053657
C  C33  1  0.01770000  0.26310000  0.47780000  1.0 -0.059965164
C  C34  1  0.02130000  0.23060000  0.48130000  1.0 -0.0495982647
C  C35  1  0.01270000  0.16320000  0.47460000  1.0 -0.0178649996
C  C36  1  0.00990000  0.13060000  0.47330000  1.0 0.0094752216
C  C37  1  0.01950000  0.36450000  0.47900000  1.0 0.0196372002
C  C38  1  0.02160000  0.33190000  0.48130000  1.0 -0.0317240452
C  C39  1  0.98230000  0.26310000  0.52220000  1.0 -0.0368053657
C  C40  1  0.97870000  0.23060000  0.51870000  1.0 -0.0368053657
C  C41  1  0.98730000  0.16320000  0.52540000  1.0 -0.0178649996
C  C42  1  0.99010000  0.13060000  0.52670000  1.0 0.0019590377
C  C43  1  0.01950000  0.63550000  0.52100000  1.0 0.0094752216
C  C44  1  0.02160000  0.66810000  0.51870000  1.0 -0.0317240452
C  C45  1  0.98230000  0.73690000  0.47780000  1.0 -0.0495982647
C  C46  1  0.97870000  0.76940000  0.48130000  1.0 -0.0495982647
C  C47  1  0.98730000  0.83680000  0.47460000  1.0 -0.0103402232
C  C48  1  0.99010000  0.86940000  0.47330000  1.0 0.0094752216
C  C49  1  0.47900000  0.98050000  0.63550000  1.0 0.0094752216
C  C50  1  0.48130000  0.97840000  0.66810000  1.0 -0.0317240452
C  C51  1  0.52220000  0.01770000  0.73690000  1.0 -0.0495982647
C  C52  1  0.51870000  0.02130000  0.76940000  1.0 -0.0495982647
C  C53  1  0.52540000  0.01270000  0.83680000  1.0 0.0094752216
C  C54  1  0.52670000  0.00990000  0.86940000  1.0 -0.0103402232
C  C55  1  0.52100000  0.98050000  0.36450000  1.0 0.0196372002
C  C56  1  0.51870000  0.97840000  0.33190000  1.0 -0.0368053657
C  C57  1  0.47780000  0.01770000  0.26310000  1.0 -0.059965164
C  C58  1  0.48130000  0.02130000  0.23060000  1.0 -0.0495982647
C  C59  1  0.47460000  0.01270000  0.16320000  1.0 -0.0178649996
C  C60  1  0.47330000  0.00990000  0.13060000  1.0 0.0094752216
C  C61  1  0.47900000  0.01950000  0.36450000  1.0 0.0196372002
C  C62  1  0.48130000  0.02160000  0.33190000  1.0 -0.0317240452
C  C63  1  0.52220000  0.98230000  0.26310000  1.0 -0.0368053657
C  C64  1  0.51870000  0.97870000  0.23060000  1.0 -0.0368053657
C  C65  1  0.52540000  0.98730000  0.16320000  1.0 -0.0178649996
C  C66  1  0.52670000  0.99010000  0.13060000  1.0 -0.0013908817
C  C67  1  0.52100000  0.01950000  0.63550000  1.0 0.0094752216
C  C68  1  0.51870000  0.02160000  0.66810000  1.0 -0.0317240452
C  C69  1  0.47780000  0.98230000  0.73690000  1.0 -0.0495982647
C  C70  1  0.48130000  0.97870000  0.76940000  1.0 -0.0495982647
C  C71  1  0.47460000  0.98730000  0.83680000  1.0 -0.0103402232
C  C72  1  0.47330000  0.99010000  0.86940000  1.0 0.0094752216
C  C73  1  0.47900000  0.63550000  0.98050000  1.0 0.0094752216
C  C74  1  0.48130000  0.66810000  0.97840000  1.0 -0.0317240452
C  C75  1  0.52220000  0.73690000  0.01770000  1.0 -0.0495982647
C  C76  1  0.51870000  0.76940000  0.02130000  1.0 -0.0495982647
C  C77  1  0.52540000  0.83680000  0.01270000  1.0 0.0094752216
C  C78  1  0.52670000  0.86940000  0.00990000  1.0 -0.0103402232
C  C79  1  0.52100000  0.36450000  0.98050000  1.0 0.0196372002
C  C80  1  0.51870000  0.33190000  0.97840000  1.0 -0.0368053657
C  C81  1  0.47780000  0.26310000  0.01770000  1.0 -0.059965164
C  C82  1  0.48130000  0.23060000  0.02130000  1.0 -0.0495982647
C  C83  1  0.47460000  0.16320000  0.01270000  1.0 -0.0178649996
C  C84  1  0.47330000  0.13060000  0.00990000  1.0 0.0094752216
C  C85  1  0.47900000  0.36450000  0.01950000  1.0 0.0196372002
C  C86  1  0.48130000  0.33190000  0.02160000  1.0 -0.0317240452
C  C87  1  0.52220000  0.26310000  0.98230000  1.0 -0.0368053657
C  C88  1  0.51870000  0.23060000  0.97870000  1.0 -0.0368053657
C  C89  1  0.52540000  0.16320000  0.98730000  1.0 -0.0178649996
C  C90  1  0.52670000  0.13060000  0.99010000  1.0 -0.0013908817
C  C91  1  0.52100000  0.63550000  0.01950000  1.0 0.0094752216
C  C92  1  0.51870000  0.66810000  0.02160000  1.0 -0.0317240452
C  C93  1  0.47780000  0.73690000  0.98230000  1.0 -0.0495982647
C  C94  1  0.48130000  0.76940000  0.97870000  1.0 -0.0495982647
C  C95  1  0.47460000  0.83680000  0.98730000  1.0 -0.0178649996
C  C96  1  0.47330000  0.86940000  0.99010000  1.0 0.0019590377
C  C97  1  0.63550000  0.98050000  0.47900000  1.0 0.0094752216
C  C98  1  0.66810000  0.97840000  0.48130000  1.0 -0.0317240452
C  C99  1  0.73690000  0.01770000  0.52220000  1.0 -0.0495982647
C  C100  1  0.76940000  0.02130000  0.51870000  1.0 -0.0495982647
C  C101  1  0.83680000  0.01270000  0.52540000  1.0 0.0094752216
C  C102  1  0.86940000  0.00990000  0.52670000  1.0 -0.0103402232
C  C103  1  0.36450000  0.98050000  0.52100000  1.0 0.0196372002
C  C104  1  0.33190000  0.97840000  0.51870000  1.0 -0.0368053657
C  C105  1  0.26310000  0.01770000  0.47780000  1.0 -0.059965164
C  C106  1  0.23060000  0.02130000  0.48130000  1.0 -0.0495982647
C  C107  1  0.16320000  0.01270000  0.47460000  1.0 -0.0178649996
C  C108  1  0.13060000  0.00990000  0.47330000  1.0 0.0094752216
C  C109  1  0.36450000  0.01950000  0.47900000  1.0 0.0196372002
C  C110  1  0.33190000  0.02160000  0.48130000  1.0 -0.0317240452
C  C111  1  0.26310000  0.98230000  0.52220000  1.0 -0.0368053657
C  C112  1  0.23060000  0.97870000  0.51870000  1.0 -0.0368053657
C  C113  1  0.16320000  0.98730000  0.52540000  1.0 -0.0178649996
C  C114  1  0.13060000  0.99010000  0.52670000  1.0 -0.0013908817
C  C115  1  0.63550000  0.01950000  0.52100000  1.0 0.0094752216
C  C116  1  0.66810000  0.02160000  0.51870000  1.0 -0.0317240452
C  C117  1  0.73690000  0.98230000  0.47780000  1.0 -0.0495982647
C  C118  1  0.76940000  0.97870000  0.48130000  1.0 -0.0495982647
C  C119  1  0.83680000  0.98730000  0.47460000  1.0 -0.0103402232
C  C120  1  0.86940000  0.99010000  0.47330000  1.0 0.0094752216
C  C121  1  0.98050000  0.47900000  0.63550000  1.0 0.0094752216
C  C122  1  0.97840000  0.48130000  0.66810000  1.0 -0.0317240452
C  C123  1  0.01770000  0.52220000  0.73690000  1.0 -0.0495982647
C  C124  1  0.02130000  0.51870000  0.76940000  1.0 -0.0495982647
C  C125  1  0.01270000  0.52540000  0.83680000  1.0 0.0094752216
C  C126  1  0.00990000  0.52670000  0.86940000  1.0 -0.0103402232
C  C127  1  0.98050000  0.52100000  0.36450000  1.0 0.0196372002
C  C128  1  0.97840000  0.51870000  0.33190000  1.0 -0.0368053657
C  C129  1  0.01770000  0.47780000  0.26310000  1.0 -0.059965164
C  C130  1  0.02130000  0.48130000  0.23060000  1.0 -0.0495982647
C  C131  1  0.01270000  0.47460000  0.16320000  1.0 -0.0178649996
C  C132  1  0.00990000  0.47330000  0.13060000  1.0 0.0094752216
C  C133  1  0.01950000  0.47900000  0.36450000  1.0 0.0196372002
C  C134  1  0.02160000  0.48130000  0.33190000  1.0 -0.0317240452
C  C135  1  0.98230000  0.52220000  0.26310000  1.0 -0.0368053657
C  C136  1  0.97870000  0.51870000  0.23060000  1.0 -0.0368053657
C  C137  1  0.98730000  0.52540000  0.16320000  1.0 -0.0178649996
C  C138  1  0.99010000  0.52670000  0.13060000  1.0 -0.0013908817
C  C139  1  0.01950000  0.52100000  0.63550000  1.0 0.0094752216
C  C140  1  0.02160000  0.51870000  0.66810000  1.0 -0.0317240452
C  C141  1  0.98230000  0.47780000  0.73690000  1.0 -0.0495982647
C  C142  1  0.97870000  0.48130000  0.76940000  1.0 -0.0495982647
C  C143  1  0.98730000  0.47460000  0.83680000  1.0 -0.0103402232
C  C144  1  0.99010000  0.47330000  0.86940000  1.0 0.0094752216
C  C145  1  0.51990000  0.48010000  0.86770000  1.0 0.0259707181
C  C146  1  0.51990000  0.48010000  0.83480000  1.0 -0.0317240452
C  C147  1  0.51980000  0.48020000  0.76700000  1.0 -0.0495982647
C  C148  1  0.51970000  0.48030000  0.73430000  1.0 -0.059965164
C  C149  1  0.48010000  0.51990000  0.86770000  1.0 0.0259707181
C  C150  1  0.48010000  0.51990000  0.83480000  1.0 -0.0317240452
C  C151  1  0.48020000  0.51980000  0.76700000  1.0 -0.0495982647
C  C152  1  0.48030000  0.51970000  0.73430000  1.0 -0.059965164
C  C153  1  0.48010000  0.48010000  0.13230000  1.0 0.0196372002
C  C154  1  0.48010000  0.48010000  0.16520000  1.0 -0.0317240452
C  C155  1  0.48020000  0.48020000  0.23300000  1.0 -0.0495982647
C  C156  1  0.48030000  0.48030000  0.26570000  1.0 -0.059965164
C  C157  1  0.51990000  0.51990000  0.13230000  1.0 0.0196372002
C  C158  1  0.51990000  0.51990000  0.16520000  1.0 -0.0317240452
C  C159  1  0.51980000  0.51980000  0.23300000  1.0 -0.0495982647
C  C160  1  0.51970000  0.51970000  0.26570000  1.0 -0.0368053657
C  C161  1  0.86770000  0.51990000  0.48010000  1.0 0.0259707181
C  C162  1  0.83480000  0.51990000  0.48010000  1.0 -0.0317240452
C  C163  1  0.76700000  0.51980000  0.48020000  1.0 -0.0495982647
C  C164  1  0.73430000  0.51970000  0.48030000  1.0 -0.059965164
C  C165  1  0.86770000  0.48010000  0.51990000  1.0 0.0259707181
C  C166  1  0.83480000  0.48010000  0.51990000  1.0 -0.0317240452
C  C167  1  0.76700000  0.48020000  0.51980000  1.0 -0.0495982647
C  C168  1  0.73430000  0.48030000  0.51970000  1.0 -0.059965164
C  C169  1  0.13230000  0.48010000  0.48010000  1.0 0.0196372002
C  C170  1  0.16520000  0.48010000  0.48010000  1.0 -0.0317240452
C  C171  1  0.23300000  0.48020000  0.48020000  1.0 -0.0495982647
C  C172  1  0.26570000  0.48030000  0.48030000  1.0 -0.059965164
C  C173  1  0.13230000  0.51990000  0.51990000  1.0 0.0196372002
C  C174  1  0.16520000  0.51990000  0.51990000  1.0 -0.0317240452
C  C175  1  0.23300000  0.51980000  0.51980000  1.0 -0.0495982647
C  C176  1  0.26570000  0.51970000  0.51970000  1.0 -0.0368053657
C  C177  1  0.48010000  0.86770000  0.51990000  1.0 0.0259707181
C  C178  1  0.48010000  0.83480000  0.51990000  1.0 -0.0317240452
C  C179  1  0.48020000  0.76700000  0.51980000  1.0 -0.0495982647
C  C180  1  0.48030000  0.73430000  0.51970000  1.0 -0.059965164
C  C181  1  0.51990000  0.86770000  0.48010000  1.0 0.0259707181
C  C182  1  0.51990000  0.83480000  0.48010000  1.0 -0.0317240452
C  C183  1  0.51980000  0.76700000  0.48020000  1.0 -0.0495982647
C  C184  1  0.51970000  0.73430000  0.48030000  1.0 -0.059965164
C  C185  1  0.48010000  0.13230000  0.48010000  1.0 0.0196372002
C  C186  1  0.48010000  0.16520000  0.48010000  1.0 -0.0317240452
C  C187  1  0.48020000  0.23300000  0.48020000  1.0 -0.0495982647
C  C188  1  0.48030000  0.26570000  0.48030000  1.0 -0.059965164
C  C189  1  0.51990000  0.13230000  0.51990000  1.0 0.0196372002
C  C190  1  0.51990000  0.16520000  0.51990000  1.0 -0.0317240452
C  C191  1  0.51980000  0.23300000  0.51980000  1.0 -0.0495982647
C  C192  1  0.51970000  0.26570000  0.51970000  1.0 -0.0368053657
C  C193  1  0.51980000  0.51980000  0.66650000  1.0 -0.0178649996
C  C194  1  0.51990000  0.51990000  0.63380000  1.0 0.0094752216
C  C195  1  0.48020000  0.48020000  0.66650000  1.0 -0.0178649996
C  C196  1  0.48010000  0.48010000  0.63380000  1.0 0.0094752216
C  C197  1  0.48020000  0.51980000  0.33350000  1.0 -0.0317240452
C  C198  1  0.48010000  0.51990000  0.36620000  1.0 0.0094752216
C  C199  1  0.51980000  0.48020000  0.33350000  1.0 -0.0317240452
C  C200  1  0.51990000  0.48010000  0.36620000  1.0 0.0094752216
C  C201  1  0.66650000  0.51980000  0.51980000  1.0 -0.0178649996
C  C202  1  0.63380000  0.51990000  0.51990000  1.0 0.0094752216
C  C203  1  0.66650000  0.48020000  0.48020000  1.0 -0.0178649996
C  C204  1  0.63380000  0.48010000  0.48010000  1.0 0.0094752216
C  C205  1  0.33350000  0.48020000  0.51980000  1.0 -0.0317240452
C  C206  1  0.36620000  0.48010000  0.51990000  1.0 0.0094752216
C  C207  1  0.33350000  0.51980000  0.48020000  1.0 -0.0317240452
C  C208  1  0.36620000  0.51990000  0.48010000  1.0 0.0094752216
C  C209  1  0.51980000  0.66650000  0.51980000  1.0 -0.0178649996
C  C210  1  0.51990000  0.63380000  0.51990000  1.0 0.0094752216
C  C211  1  0.48020000  0.66650000  0.48020000  1.0 -0.0178649996
C  C212  1  0.48010000  0.63380000  0.48010000  1.0 0.0094752216
C  C213  1  0.51980000  0.33350000  0.48020000  1.0 -0.0317240452
C  C214  1  0.51990000  0.36620000  0.48010000  1.0 0.0094752216
C  C215  1  0.48020000  0.33350000  0.51980000  1.0 -0.0317240452
C  C216  1  0.48010000  0.36620000  0.51990000  1.0 0.0094752216
C  C217  1  0.50000000  0.50000000  0.91860000  1.0 0.600735432
C  C218  1  0.50000000  0.50000000  0.88420000  1.0 -0.1115733188
C  C219  1  0.50000000  0.50000000  0.81820000  1.0 0.0774759876
C  C220  1  0.50000000  0.50000000  0.78370000  1.0 0.0691126735
C  C221  1  0.50000000  0.50000000  0.71760000  1.0 0.0691126735
C  C222  1  0.50000000  0.50000000  0.68320000  1.0 0.0691126735
C  C223  1  0.50000000  0.50000000  0.61720000  1.0 -0.1115733188
C  C224  1  0.50000000  0.50000000  0.58290000  1.0 0.6397077899
C  C225  1  0.50000000  0.50000000  0.08140000  1.0 0.600735432
C  C226  1  0.50000000  0.50000000  0.11580000  1.0 -0.1115733188
C  C227  1  0.50000000  0.50000000  0.18180000  1.0 0.0774759876
C  C228  1  0.50000000  0.50000000  0.21630000  1.0 0.0691126735
C  C229  1  0.50000000  0.50000000  0.28240000  1.0 0.0691126735
C  C230  1  0.50000000  0.50000000  0.31680000  1.0 0.0691126735
C  C231  1  0.50000000  0.50000000  0.38280000  1.0 -0.1115733188
C  C232  1  0.50000000  0.50000000  0.41710000  1.0 0.6397077899
C  C233  1  0.91860000  0.50000000  0.50000000  1.0 0.600735432
C  C234  1  0.88420000  0.50000000  0.50000000  1.0 -0.1115733188
C  C235  1  0.81820000  0.50000000  0.50000000  1.0 0.0774759876
C  C236  1  0.78370000  0.50000000  0.50000000  1.0 0.0691126735
C  C237  1  0.71760000  0.50000000  0.50000000  1.0 0.0691126735
C  C238  1  0.68320000  0.50000000  0.50000000  1.0 0.0691126735
C  C239  1  0.61720000  0.50000000  0.50000000  1.0 -0.1115733188
C  C240  1  0.58290000  0.50000000  0.50000000  1.0 0.6397077899
C  C241  1  0.08140000  0.50000000  0.50000000  1.0 0.600735432
C  C242  1  0.11580000  0.50000000  0.50000000  1.0 -0.1115733188
C  C243  1  0.18180000  0.50000000  0.50000000  1.0 0.0774759876
C  C244  1  0.21630000  0.50000000  0.50000000  1.0 0.0691126735
C  C245  1  0.28240000  0.50000000  0.50000000  1.0 0.0691126735
C  C246  1  0.31680000  0.50000000  0.50000000  1.0 0.0691126735
C  C247  1  0.38280000  0.50000000  0.50000000  1.0 -0.1115733188
C  C248  1  0.41710000  0.50000000  0.50000000  1.0 0.6397077899
C  C249  1  0.50000000  0.91860000  0.50000000  1.0 0.600735432
C  C250  1  0.50000000  0.88420000  0.50000000  1.0 -0.1115733188
C  C251  1  0.50000000  0.81820000  0.50000000  1.0 0.0774759876
C  C252  1  0.50000000  0.78370000  0.50000000  1.0 0.0691126735
C  C253  1  0.50000000  0.71760000  0.50000000  1.0 0.0691126735
C  C254  1  0.50000000  0.68320000  0.50000000  1.0 0.0691126735
C  C255  1  0.50000000  0.61720000  0.50000000  1.0 -0.1115733188
C  C256  1  0.50000000  0.58290000  0.50000000  1.0 0.6397077899
C  C257  1  0.50000000  0.08140000  0.50000000  1.0 0.600735432
C  C258  1  0.50000000  0.11580000  0.50000000  1.0 -0.1115733188
C  C259  1  0.50000000  0.18180000  0.50000000  1.0 0.0774759876
C  C260  1  0.50000000  0.21630000  0.50000000  1.0 0.0691126735
C  C261  1  0.50000000  0.28240000  0.50000000  1.0 0.0691126735
C  C262  1  0.50000000  0.31680000  0.50000000  1.0 0.0691126735
C  C263  1  0.50000000  0.38280000  0.50000000  1.0 -0.1115733188
C  C264  1  0.50000000  0.41710000  0.50000000  1.0 0.6397077899
C  C265  1  0.58480000  0.50000000  0.00000000  1.0 0.6321079494
C  C266  1  0.61910000  0.50000000  0.00000000  1.0 -0.1243901689
C  C267  1  0.68500000  0.50000000  0.00000000  1.0 0.0774759876
C  C268  1  0.71990000  0.50000000  0.00000000  1.0 0.0691126735
C  C269  1  0.78590000  0.50000000  0.00000000  1.0 0.0691126735
C  C270  1  0.82020000  0.50000000  0.00000000  1.0 0.06483575
C  C271  1  0.88590000  0.50000000  0.00000000  1.0 -0.0979401495
C  C272  1  0.92020000  0.50000000  0.00000000  1.0 0.6199745299
C  C273  1  0.41520000  0.50000000  0.00000000  1.0 0.6321079494
C  C274  1  0.38090000  0.50000000  0.00000000  1.0 -0.1295935113
C  C275  1  0.31500000  0.50000000  0.00000000  1.0 0.0774759876
C  C276  1  0.28010000  0.50000000  0.00000000  1.0 0.0691126735
C  C277  1  0.21410000  0.50000000  0.00000000  1.0 0.0691126735
C  C278  1  0.17980000  0.50000000  0.00000000  1.0 0.0691126735
C  C279  1  0.11410000  0.50000000  0.00000000  1.0 -0.0979401495
C  C280  1  0.07980000  0.50000000  0.00000000  1.0 0.6199745299
C  C281  1  0.00000000  0.58480000  0.50000000  1.0 0.6321079494
C  C282  1  0.00000000  0.61910000  0.50000000  1.0 -0.1295935113
C  C283  1  0.00000000  0.68500000  0.50000000  1.0 0.0774759876
C  C284  1  0.00000000  0.71990000  0.50000000  1.0 0.0691126735
C  C285  1  0.00000000  0.78590000  0.50000000  1.0 0.0691126735
C  C286  1  0.00000000  0.82020000  0.50000000  1.0 0.06483575
C  C287  1  0.00000000  0.88590000  0.50000000  1.0 -0.0979401495
C  C288  1  0.00000000  0.92020000  0.50000000  1.0 0.6199745299
C  C289  1  0.00000000  0.41520000  0.50000000  1.0 0.6321079494
C  C290  1  0.00000000  0.38090000  0.50000000  1.0 -0.1295935113
C  C291  1  0.00000000  0.31500000  0.50000000  1.0 0.0774759876
C  C292  1  0.00000000  0.28010000  0.50000000  1.0 0.0691126735
C  C293  1  0.00000000  0.21410000  0.50000000  1.0 0.0691126735
C  C294  1  0.00000000  0.17980000  0.50000000  1.0 0.0691126735
C  C295  1  0.00000000  0.11410000  0.50000000  1.0 -0.0979401495
C  C296  1  0.00000000  0.07980000  0.50000000  1.0 0.6199745299
C  C297  1  0.50000000  0.00000000  0.58480000  1.0 0.6321079494
C  C298  1  0.50000000  0.00000000  0.61910000  1.0 -0.1295935113
C  C299  1  0.50000000  0.00000000  0.68500000  1.0 0.0774759876
C  C300  1  0.50000000  0.00000000  0.71990000  1.0 0.0691126735
C  C301  1  0.50000000  0.00000000  0.78590000  1.0 0.0691126735
C  C302  1  0.50000000  0.00000000  0.82020000  1.0 0.06483575
C  C303  1  0.50000000  0.00000000  0.88590000  1.0 -0.0979401495
C  C304  1  0.50000000  0.00000000  0.92020000  1.0 0.6199745299
C  C305  1  0.50000000  0.00000000  0.41520000  1.0 0.6321079494
C  C306  1  0.50000000  0.00000000  0.38090000  1.0 -0.1295935113
C  C307  1  0.50000000  0.00000000  0.31500000  1.0 0.0774759876
C  C308  1  0.50000000  0.00000000  0.28010000  1.0 0.0691126735
C  C309  1  0.50000000  0.00000000  0.21410000  1.0 0.0691126735
C  C310  1  0.50000000  0.00000000  0.17980000  1.0 0.0691126735
C  C311  1  0.50000000  0.00000000  0.11410000  1.0 -0.0979401495
C  C312  1  0.50000000  0.00000000  0.07980000  1.0 0.6199745299
C  C313  1  0.50000000  0.58480000  0.00000000  1.0 0.6321079494
C  C314  1  0.50000000  0.61910000  0.00000000  1.0 -0.1243901689
C  C315  1  0.50000000  0.68500000  0.00000000  1.0 0.0774759876
C  C316  1  0.50000000  0.71990000  0.00000000  1.0 0.0691126735
C  C317  1  0.50000000  0.78590000  0.00000000  1.0 0.0691126735
C  C318  1  0.50000000  0.82020000  0.00000000  1.0 0.06483575
C  C319  1  0.50000000  0.88590000  0.00000000  1.0 -0.0979401495
C  C320  1  0.50000000  0.92020000  0.00000000  1.0 0.6199745299
C  C321  1  0.50000000  0.41520000  0.00000000  1.0 0.6321079494
C  C322  1  0.50000000  0.38090000  0.00000000  1.0 -0.1295935113
C  C323  1  0.50000000  0.31500000  0.00000000  1.0 0.0774759876
C  C324  1  0.50000000  0.28010000  0.00000000  1.0 0.0691126735
C  C325  1  0.50000000  0.21410000  0.00000000  1.0 0.0691126735
C  C326  1  0.50000000  0.17980000  0.00000000  1.0 0.0691126735
C  C327  1  0.50000000  0.11410000  0.00000000  1.0 -0.0979401495
C  C328  1  0.50000000  0.07980000  0.00000000  1.0 0.6199745299
C  C329  1  0.58480000  0.00000000  0.50000000  1.0 0.6321079494
C  C330  1  0.61910000  0.00000000  0.50000000  1.0 -0.1243901689
C  C331  1  0.68500000  0.00000000  0.50000000  1.0 0.0774759876
C  C332  1  0.71990000  0.00000000  0.50000000  1.0 0.0691126735
C  C333  1  0.78590000  0.00000000  0.50000000  1.0 0.0691126735
C  C334  1  0.82020000  0.00000000  0.50000000  1.0 0.06483575
C  C335  1  0.88590000  0.00000000  0.50000000  1.0 -0.0979401495
C  C336  1  0.92020000  0.00000000  0.50000000  1.0 0.6199745299
C  C337  1  0.41520000  0.00000000  0.50000000  1.0 0.6321079494
C  C338  1  0.38090000  0.00000000  0.50000000  1.0 -0.1295935113
C  C339  1  0.31500000  0.00000000  0.50000000  1.0 0.0774759876
C  C340  1  0.28010000  0.00000000  0.50000000  1.0 0.0691126735
C  C341  1  0.21410000  0.00000000  0.50000000  1.0 0.0691126735
C  C342  1  0.17980000  0.00000000  0.50000000  1.0 0.0691126735
C  C343  1  0.11410000  0.00000000  0.50000000  1.0 -0.0979401495
C  C344  1  0.07980000  0.00000000  0.50000000  1.0 0.6199745299
C  C345  1  0.00000000  0.50000000  0.58480000  1.0 0.6321079494
C  C346  1  0.00000000  0.50000000  0.61910000  1.0 -0.1295935113
C  C347  1  0.00000000  0.50000000  0.68500000  1.0 0.0774759876
C  C348  1  0.00000000  0.50000000  0.71990000  1.0 0.0691126735
C  C349  1  0.00000000  0.50000000  0.78590000  1.0 0.0691126735
C  C350  1  0.00000000  0.50000000  0.82020000  1.0 0.06483575
C  C351  1  0.00000000  0.50000000  0.88590000  1.0 -0.0979401495
C  C352  1  0.00000000  0.50000000  0.92020000  1.0 0.6199745299
C  C353  1  0.00000000  0.50000000  0.41520000  1.0 0.6321079494
C  C354  1  0.00000000  0.50000000  0.38090000  1.0 -0.1295935113
C  C355  1  0.00000000  0.50000000  0.31500000  1.0 0.0774759876
C  C356  1  0.00000000  0.50000000  0.28010000  1.0 0.0691126735
C  C357  1  0.00000000  0.50000000  0.21410000  1.0 0.0691126735
C  C358  1  0.00000000  0.50000000  0.17980000  1.0 0.0691126735
C  C359  1  0.00000000  0.50000000  0.11410000  1.0 -0.0979401495
C  C360  1  0.00000000  0.50000000  0.07980000  1.0 0.6199745299
O  O1  1  0.57070000  0.48110000  0.98190000  1.0 -0.5158262316
O  O2  1  0.92970000  0.50530000  0.97170000  1.0 -0.4885126366
O  O3  1  0.42930000  0.51890000  0.98190000  1.0 -0.5158262316
O  O4  1  0.07030000  0.49470000  0.97170000  1.0 -0.4885126366
O  O5  1  0.42930000  0.48110000  0.01810000  1.0 -0.5158262316
O  O6  1  0.07030000  0.50530000  0.02830000  1.0 -0.4885126366
O  O7  1  0.57070000  0.51890000  0.01810000  1.0 -0.5158262316
O  O8  1  0.92970000  0.49470000  0.02830000  1.0 -0.4885126366
O  O9  1  0.98190000  0.57070000  0.48110000  1.0 -0.5158262316
O  O10  1  0.97170000  0.92970000  0.50530000  1.0 -0.4885126366
O  O11  1  0.98190000  0.42930000  0.51890000  1.0 -0.5158262316
O  O12  1  0.97170000  0.07030000  0.49470000  1.0 -0.4885126366
O  O13  1  0.01810000  0.42930000  0.48110000  1.0 -0.5158262316
O  O14  1  0.02830000  0.07030000  0.50530000  1.0 -0.4885126366
O  O15  1  0.01810000  0.57070000  0.51890000  1.0 -0.5158262316
O  O16  1  0.02830000  0.92970000  0.49470000  1.0 -0.4885126366
O  O17  1  0.48110000  0.98190000  0.57070000  1.0 -0.5158262316
O  O18  1  0.50530000  0.97170000  0.92970000  1.0 -0.4885126366
O  O19  1  0.51890000  0.98190000  0.42930000  1.0 -0.5158262316
O  O20  1  0.49470000  0.97170000  0.07030000  1.0 -0.4885126366
O  O21  1  0.48110000  0.01810000  0.42930000  1.0 -0.5158262316
O  O22  1  0.50530000  0.02830000  0.07030000  1.0 -0.4885126366
O  O23  1  0.51890000  0.01810000  0.57070000  1.0 -0.5158262316
O  O24  1  0.49470000  0.02830000  0.92970000  1.0 -0.4885126366
O  O25  1  0.48110000  0.57070000  0.98190000  1.0 -0.5158262316
O  O26  1  0.50530000  0.92970000  0.97170000  1.0 -0.4885126366
O  O27  1  0.51890000  0.42930000  0.98190000  1.0 -0.5158262316
O  O28  1  0.49470000  0.07030000  0.97170000  1.0 -0.4885126366
O  O29  1  0.48110000  0.42930000  0.01810000  1.0 -0.5158262316
O  O30  1  0.50530000  0.07030000  0.02830000  1.0 -0.4885126366
O  O31  1  0.51890000  0.57070000  0.01810000  1.0 -0.5158262316
O  O32  1  0.49470000  0.92970000  0.02830000  1.0 -0.4885126366
O  O33  1  0.57070000  0.98190000  0.48110000  1.0 -0.5158262316
O  O34  1  0.92970000  0.97170000  0.50530000  1.0 -0.4885126366
O  O35  1  0.42930000  0.98190000  0.51890000  1.0 -0.5158262316
O  O36  1  0.07030000  0.97170000  0.49470000  1.0 -0.4885126366
O  O37  1  0.42930000  0.01810000  0.48110000  1.0 -0.5158262316
O  O38  1  0.07030000  0.02830000  0.50530000  1.0 -0.4885126366
O  O39  1  0.57070000  0.01810000  0.51890000  1.0 -0.5158262316
O  O40  1  0.92970000  0.02830000  0.49470000  1.0 -0.4885126366
O  O41  1  0.98190000  0.48110000  0.57070000  1.0 -0.5158262316
O  O42  1  0.97170000  0.50530000  0.92970000  1.0 -0.4885126366
O  O43  1  0.98190000  0.51890000  0.42930000  1.0 -0.5158262316
O  O44  1  0.97170000  0.49470000  0.07030000  1.0 -0.4885126366
O  O45  1  0.01810000  0.48110000  0.42930000  1.0 -0.5158262316
O  O46  1  0.02830000  0.50530000  0.07030000  1.0 -0.4885126366
O  O47  1  0.01810000  0.51890000  0.57070000  1.0 -0.5158262316
O  O48  1  0.02830000  0.49470000  0.92970000  1.0 -0.4885126366
O  O49  1  0.51760000  0.48240000  0.93290000  1.0 -0.4689897387
O  O50  1  0.48240000  0.51760000  0.93290000  1.0 -0.4689897387
O  O51  1  0.48240000  0.48240000  0.06710000  1.0 -0.4689897387
O  O52  1  0.51760000  0.51760000  0.06710000  1.0 -0.4689897387
O  O53  1  0.93290000  0.51760000  0.48240000  1.0 -0.4689897387
O  O54  1  0.93290000  0.48240000  0.51760000  1.0 -0.4689897387
O  O55  1  0.06710000  0.48240000  0.48240000  1.0 -0.4689897387
O  O56  1  0.06710000  0.51760000  0.51760000  1.0 -0.4689897387
O  O57  1  0.48240000  0.93290000  0.51760000  1.0 -0.4689897387
O  O58  1  0.51760000  0.93290000  0.48240000  1.0 -0.4689897387
O  O59  1  0.48240000  0.06710000  0.48240000  1.0 -0.4689897387
O  O60  1  0.51760000  0.06710000  0.51760000  1.0 -0.4689897387
O  O61  1  0.98850000  0.56540000  0.98850000  1.0 -0.1295935113
O  O62  1  0.01150000  0.43460000  0.98850000  1.0 -0.1295935113
O  O63  1  0.01150000  0.56540000  0.01150000  1.0 -0.1295935113
O  O64  1  0.98850000  0.43460000  0.01150000  1.0 -0.1295935113
O  O65  1  0.98850000  0.98850000  0.56540000  1.0 -0.1295935113
O  O66  1  0.98850000  0.01150000  0.43460000  1.0 -0.1295935113
O  O67  1  0.01150000  0.01150000  0.56540000  1.0 -0.1295935113
O  O68  1  0.01150000  0.98850000  0.43460000  1.0 -0.1295935113
O  O69  1  0.56540000  0.98850000  0.98850000  1.0 -0.1295935113
O  O70  1  0.43460000  0.98850000  0.01150000  1.0 -0.1352794308
O  O71  1  0.56540000  0.01150000  0.01150000  1.0 -0.1295935113
O  O72  1  0.43460000  0.01150000  0.98850000  1.0 -0.1295935113
O  O73  1  0.50000000  0.50000000  0.00000000  1.0 -1.0362619002
O  O74  1  0.00000000  0.50000000  0.50000000  1.0 -1.0362619002
O  O75  1  0.50000000  0.00000000  0.50000000  1.0 -1.0362619002
O  O76  1  0.50000000  0.50000000  0.50000000  1.0 -1.0581431229
O  O77  1  0.51880000  0.51880000  0.56860000  1.0 -0.5330485343
O  O78  1  0.48120000  0.48120000  0.56860000  1.0 -0.5370367605
O  O79  1  0.48120000  0.51880000  0.43140000  1.0 -0.5330485343
O  O80  1  0.51880000  0.48120000  0.43140000  1.0 -0.5330485343
O  O81  1  0.56860000  0.51880000  0.51880000  1.0 -0.5330485343
O  O82  1  0.56860000  0.48120000  0.48120000  1.0 -0.5370367605
O  O83  1  0.43140000  0.48120000  0.51880000  1.0 -0.5330485343
O  O84  1  0.43140000  0.51880000  0.48120000  1.0 -0.5330485343
O  O85  1  0.51880000  0.56860000  0.51880000  1.0 -0.5330485343
O  O86  1  0.48120000  0.56860000  0.48120000  1.0 -0.5370367605
O  O87  1  0.51880000  0.43140000  0.48120000  1.0 -0.5330485343
O  O88  1  0.48120000  0.43140000  0.51880000  1.0 -0.5330485343
O  O89  1  0.00000000  0.50000000  0.00000000  1.0 -0.8696307579
O  O90  1  0.00000000  0.00000000  0.50000000  1.0 -0.8696307579
O  O91  1  0.50000000  0.00000000  0.00000000  1.0 -0.8696307579
