# DDEC6 charges by PACMAN v1.1 (https://github.com/mtap-research/PACMAN-charge/)
data_c7ce01447c2_3_FSR_pacman
_symmetry_space_group_name_H-M   'P 1'
_cell_length_a   21.75700000
_cell_length_b   21.75700000
_cell_length_c   34.65350000
_cell_angle_alpha   90.00000000
_cell_angle_beta   90.00000000
_cell_angle_gamma   90.00000000
_symmetry_Int_Tables_number   1
_chemical_formula_structural   Zn16H175.68C296N32O64
_chemical_formula_sum   'Zn16 H175.68 C296 N32 O64'
_cell_volume   16403.82503252
_cell_formula_units_Z   1
loop_
 _symmetry_equiv_pos_site_id
 _symmetry_equiv_pos_as_xyz
  1  'x, y, z'
loop_
 _atom_site_type_symbol
 _atom_site_label
 _atom_site_symmetry_multiplicity
 _atom_site_fract_x
 _atom_site_fract_y
 _atom_site_fract_z
 _atom_site_occupancy
 _atom_site_charge
Zn  Zn1  1  0.24493000  0.24493000  0.29261000  1.0 0.7537620151
Zn  Zn2  1  0.75507000  0.24493000  0.29261000  1.0 0.7537620151
Zn  Zn3  1  0.75507000  0.75507000  0.29261000  1.0 0.7537620151
Zn  Zn4  1  0.24493000  0.75507000  0.29261000  1.0 0.7537620151
Zn  Zn5  1  0.24493000  0.75507000  0.70739000  1.0 0.7537620151
Zn  Zn6  1  0.24493000  0.24493000  0.70739000  1.0 0.7537620151
Zn  Zn7  1  0.75507000  0.24493000  0.70739000  1.0 0.7537620151
Zn  Zn8  1  0.75507000  0.75507000  0.70739000  1.0 0.7537620151
Zn  Zn9  1  0.74493000  0.74493000  0.79261000  1.0 0.7537620151
Zn  Zn10  1  0.25507000  0.74493000  0.79261000  1.0 0.7537620151
Zn  Zn11  1  0.25507000  0.25507000  0.79261000  1.0 0.7537620151
Zn  Zn12  1  0.74493000  0.25507000  0.79261000  1.0 0.7537620151
Zn  Zn13  1  0.74493000  0.25507000  0.20739000  1.0 0.7537620151
Zn  Zn14  1  0.74493000  0.74493000  0.20739000  1.0 0.7537620151
Zn  Zn15  1  0.25507000  0.74493000  0.20739000  1.0 0.7537620151
Zn  Zn16  1  0.25507000  0.25507000  0.20739000  1.0 0.7537620151
H  H1  1  0.08350000  0.28200000  0.46640000  0.12 0.115418811
H  H2  1  0.71800000  0.08350000  0.46640000  0.12 0.115418811
H  H3  1  0.91650000  0.71800000  0.46640000  0.12 0.115418811
H  H4  1  0.28200000  0.91650000  0.46640000  0.12 0.115418811
H  H5  1  0.08350000  0.71800000  0.53360000  0.12 0.115418811
H  H6  1  0.28200000  0.08350000  0.53360000  0.12 0.115418811
H  H7  1  0.91650000  0.28200000  0.53360000  0.12 0.115418811
H  H8  1  0.71800000  0.91650000  0.53360000  0.12 0.115418811
H  H9  1  0.58350000  0.78200000  0.96640000  0.12 0.115418811
H  H10  1  0.21800000  0.58350000  0.96640000  0.12 0.115418811
H  H11  1  0.41650000  0.21800000  0.96640000  0.12 0.115418811
H  H12  1  0.78200000  0.41650000  0.96640000  0.12 0.115418811
H  H13  1  0.58350000  0.21800000  0.03360000  0.12 0.115418811
H  H14  1  0.78200000  0.58350000  0.03360000  0.12 0.115418811
H  H15  1  0.41650000  0.78200000  0.03360000  0.12 0.115418811
H  H16  1  0.21800000  0.41650000  0.03360000  0.12 0.115418811
H  H17  1  0.91650000  0.71800000  0.53360000  0.12 0.115418811
H  H18  1  0.28200000  0.91650000  0.53360000  0.12 0.115418811
H  H19  1  0.08350000  0.28200000  0.53360000  0.12 0.115418811
H  H20  1  0.71800000  0.08350000  0.53360000  0.12 0.115418811
H  H21  1  0.91650000  0.28200000  0.46640000  0.12 0.115418811
H  H22  1  0.71800000  0.91650000  0.46640000  0.12 0.115418811
H  H23  1  0.08350000  0.71800000  0.46640000  0.12 0.115418811
H  H24  1  0.28200000  0.08350000  0.46640000  0.12 0.115418811
H  H25  1  0.41650000  0.21800000  0.03360000  0.12 0.115418811
H  H26  1  0.78200000  0.41650000  0.03360000  0.12 0.115418811
H  H27  1  0.58350000  0.78200000  0.03360000  0.12 0.115418811
H  H28  1  0.21800000  0.58350000  0.03360000  0.12 0.115418811
H  H29  1  0.41650000  0.78200000  0.96640000  0.12 0.115418811
H  H30  1  0.21800000  0.41650000  0.96640000  0.12 0.115418811
H  H31  1  0.58350000  0.21800000  0.96640000  0.12 0.115418811
H  H32  1  0.78200000  0.58350000  0.96640000  0.12 0.115418811
H  H33  1  0.08020000  0.22170000  0.46590000  0.12 0.1104035282
H  H34  1  0.77830000  0.08020000  0.46590000  0.12 0.1104035282
H  H35  1  0.91980000  0.77830000  0.46590000  0.12 0.1104035282
H  H36  1  0.22170000  0.91980000  0.46590000  0.12 0.115418811
H  H37  1  0.08020000  0.77830000  0.53410000  0.12 0.115418811
H  H38  1  0.22170000  0.08020000  0.53410000  0.12 0.115418811
H  H39  1  0.91980000  0.22170000  0.53410000  0.12 0.1104035282
H  H40  1  0.77830000  0.91980000  0.53410000  0.12 0.115418811
H  H41  1  0.58020000  0.72170000  0.96590000  0.12 0.115418811
H  H42  1  0.27830000  0.58020000  0.96590000  0.12 0.115418811
H  H43  1  0.41980000  0.27830000  0.96590000  0.12 0.1104035282
H  H44  1  0.72170000  0.41980000  0.96590000  0.12 0.1104035282
H  H45  1  0.58020000  0.27830000  0.03410000  0.12 0.115418811
H  H46  1  0.72170000  0.58020000  0.03410000  0.12 0.115418811
H  H47  1  0.41980000  0.72170000  0.03410000  0.12 0.115418811
H  H48  1  0.27830000  0.41980000  0.03410000  0.12 0.115418811
H  H49  1  0.91980000  0.77830000  0.53410000  0.12 0.115418811
H  H50  1  0.22170000  0.91980000  0.53410000  0.12 0.115418811
H  H51  1  0.08020000  0.22170000  0.53410000  0.12 0.115418811
H  H52  1  0.77830000  0.08020000  0.53410000  0.12 0.1104035282
H  H53  1  0.91980000  0.22170000  0.46590000  0.12 0.1104035282
H  H54  1  0.77830000  0.91980000  0.46590000  0.12 0.115418811
H  H55  1  0.08020000  0.77830000  0.46590000  0.12 0.115418811
H  H56  1  0.22170000  0.08020000  0.46590000  0.12 0.1104035282
H  H57  1  0.41980000  0.27830000  0.03410000  0.12 0.115418811
H  H58  1  0.72170000  0.41980000  0.03410000  0.12 0.115418811
H  H59  1  0.58020000  0.72170000  0.03410000  0.12 0.115418811
H  H60  1  0.27830000  0.58020000  0.03410000  0.12 0.115418811
H  H61  1  0.41980000  0.72170000  0.96590000  0.12 0.115418811
H  H62  1  0.27830000  0.41980000  0.96590000  0.12 0.1104035282
H  H63  1  0.58020000  0.27830000  0.96590000  0.12 0.1104035282
H  H64  1  0.72170000  0.58020000  0.96590000  0.12 0.1104035282
H  H65  1  0.13010000  0.25060000  0.34040000  0.5 0.1367974993
H  H66  1  0.74940000  0.13010000  0.34040000  0.5 0.1367974993
H  H67  1  0.86990000  0.74940000  0.34040000  0.5 0.1367974993
H  H68  1  0.25060000  0.86990000  0.34040000  0.5 0.1367974993
H  H69  1  0.13010000  0.74940000  0.65960000  0.5 0.1367974993
H  H70  1  0.25060000  0.13010000  0.65960000  0.5 0.1367974993
H  H71  1  0.86990000  0.25060000  0.65960000  0.5 0.1367974993
H  H72  1  0.74940000  0.86990000  0.65960000  0.5 0.1367974993
H  H73  1  0.63010000  0.75060000  0.84040000  0.5 0.1367974993
H  H74  1  0.24940000  0.63010000  0.84040000  0.5 0.1367974993
H  H75  1  0.36990000  0.24940000  0.84040000  0.5 0.1367974993
H  H76  1  0.75060000  0.36990000  0.84040000  0.5 0.1367974993
H  H77  1  0.63010000  0.24940000  0.15960000  0.5 0.1367974993
H  H78  1  0.75060000  0.63010000  0.15960000  0.5 0.1367974993
H  H79  1  0.36990000  0.75060000  0.15960000  0.5 0.1367974993
H  H80  1  0.24940000  0.36990000  0.15960000  0.5 0.1367974993
H  H81  1  0.86990000  0.74940000  0.65960000  0.5 0.1367974993
H  H82  1  0.25060000  0.86990000  0.65960000  0.5 0.1367974993
H  H83  1  0.13010000  0.25060000  0.65960000  0.5 0.1367974993
H  H84  1  0.74940000  0.13010000  0.65960000  0.5 0.1367974993
H  H85  1  0.86990000  0.25060000  0.34040000  0.5 0.1367974993
H  H86  1  0.74940000  0.86990000  0.34040000  0.5 0.1367974993
H  H87  1  0.13010000  0.74940000  0.34040000  0.5 0.1367974993
H  H88  1  0.25060000  0.13010000  0.34040000  0.5 0.1367974993
H  H89  1  0.36990000  0.24940000  0.15960000  0.5 0.1367974993
H  H90  1  0.75060000  0.36990000  0.15960000  0.5 0.1367974993
H  H91  1  0.63010000  0.75060000  0.15960000  0.5 0.1367974993
H  H92  1  0.24940000  0.63010000  0.15960000  0.5 0.1367974993
H  H93  1  0.36990000  0.75060000  0.84040000  0.5 0.1367974993
H  H94  1  0.24940000  0.36990000  0.84040000  0.5 0.1367974993
H  H95  1  0.63010000  0.24940000  0.84040000  0.5 0.1367974993
H  H96  1  0.75060000  0.63010000  0.84040000  0.5 0.1367974993
H  H97  1  0.10200000  0.25110000  0.40500000  0.5 0.1104035282
H  H98  1  0.74890000  0.10200000  0.40500000  0.5 0.1104035282
H  H99  1  0.89800000  0.74890000  0.40500000  0.5 0.1104035282
H  H100  1  0.25110000  0.89800000  0.40500000  0.5 0.1104035282
H  H101  1  0.10200000  0.74890000  0.59500000  0.5 0.1104035282
H  H102  1  0.25110000  0.10200000  0.59500000  0.5 0.1104035282
H  H103  1  0.89800000  0.25110000  0.59500000  0.5 0.1104035282
H  H104  1  0.74890000  0.89800000  0.59500000  0.5 0.1104035282
H  H105  1  0.60200000  0.75110000  0.90500000  0.5 0.1104035282
H  H106  1  0.24890000  0.60200000  0.90500000  0.5 0.1104035282
H  H107  1  0.39800000  0.24890000  0.90500000  0.5 0.1104035282
H  H108  1  0.75110000  0.39800000  0.90500000  0.5 0.1104035282
H  H109  1  0.60200000  0.24890000  0.09500000  0.5 0.1104035282
H  H110  1  0.75110000  0.60200000  0.09500000  0.5 0.1104035282
H  H111  1  0.39800000  0.75110000  0.09500000  0.5 0.1104035282
H  H112  1  0.24890000  0.39800000  0.09500000  0.5 0.1104035282
H  H113  1  0.89800000  0.74890000  0.59500000  0.5 0.1104035282
H  H114  1  0.25110000  0.89800000  0.59500000  0.5 0.1104035282
H  H115  1  0.10200000  0.25110000  0.59500000  0.5 0.1104035282
H  H116  1  0.74890000  0.10200000  0.59500000  0.5 0.1104035282
H  H117  1  0.89800000  0.25110000  0.40500000  0.5 0.1104035282
H  H118  1  0.74890000  0.89800000  0.40500000  0.5 0.1104035282
H  H119  1  0.10200000  0.74890000  0.40500000  0.5 0.1104035282
H  H120  1  0.25110000  0.10200000  0.40500000  0.5 0.1104035282
H  H121  1  0.39800000  0.24890000  0.09500000  0.5 0.1104035282
H  H122  1  0.75110000  0.39800000  0.09500000  0.5 0.1104035282
H  H123  1  0.60200000  0.75110000  0.09500000  0.5 0.1104035282
H  H124  1  0.24890000  0.60200000  0.09500000  0.5 0.1104035282
H  H125  1  0.39800000  0.75110000  0.90500000  0.5 0.1104035282
H  H126  1  0.24890000  0.39800000  0.90500000  0.5 0.1104035282
H  H127  1  0.60200000  0.24890000  0.90500000  0.5 0.1104035282
H  H128  1  0.75110000  0.60200000  0.90500000  0.5 0.1104035282
H  H129  1  0.28010000  0.24530000  0.43540000  0.5 0.1104035282
H  H130  1  0.75470000  0.28010000  0.43540000  0.5 0.1104035282
H  H131  1  0.71990000  0.75470000  0.43540000  0.5 0.1104035282
H  H132  1  0.24530000  0.71990000  0.43540000  0.5 0.1104035282
H  H133  1  0.28010000  0.75470000  0.56460000  0.5 0.1104035282
H  H134  1  0.24530000  0.28010000  0.56460000  0.5 0.1104035282
H  H135  1  0.71990000  0.24530000  0.56460000  0.5 0.1104035282
H  H136  1  0.75470000  0.71990000  0.56460000  0.5 0.1104035282
H  H137  1  0.78010000  0.74530000  0.93540000  0.5 0.1104035282
H  H138  1  0.25470000  0.78010000  0.93540000  0.5 0.1104035282
H  H139  1  0.21990000  0.25470000  0.93540000  0.5 0.1104035282
H  H140  1  0.74530000  0.21990000  0.93540000  0.5 0.1104035282
H  H141  1  0.78010000  0.25470000  0.06460000  0.5 0.1104035282
H  H142  1  0.74530000  0.78010000  0.06460000  0.5 0.1104035282
H  H143  1  0.21990000  0.74530000  0.06460000  0.5 0.1104035282
H  H144  1  0.25470000  0.21990000  0.06460000  0.5 0.1104035282
H  H145  1  0.71990000  0.75470000  0.56460000  0.5 0.1104035282
H  H146  1  0.24530000  0.71990000  0.56460000  0.5 0.1104035282
H  H147  1  0.28010000  0.24530000  0.56460000  0.5 0.1104035282
H  H148  1  0.75470000  0.28010000  0.56460000  0.5 0.1104035282
H  H149  1  0.71990000  0.24530000  0.43540000  0.5 0.1104035282
H  H150  1  0.75470000  0.71990000  0.43540000  0.5 0.1104035282
H  H151  1  0.28010000  0.75470000  0.43540000  0.5 0.1104035282
H  H152  1  0.24530000  0.28010000  0.43540000  0.5 0.1104035282
H  H153  1  0.21990000  0.25470000  0.06460000  0.5 0.1104035282
H  H154  1  0.74530000  0.21990000  0.06460000  0.5 0.1104035282
H  H155  1  0.78010000  0.74530000  0.06460000  0.5 0.1104035282
H  H156  1  0.25470000  0.78010000  0.06460000  0.5 0.1104035282
H  H157  1  0.21990000  0.74530000  0.93540000  0.5 0.1104035282
H  H158  1  0.25470000  0.21990000  0.93540000  0.5 0.1104035282
H  H159  1  0.78010000  0.25470000  0.93540000  0.5 0.1104035282
H  H160  1  0.74530000  0.78010000  0.93540000  0.5 0.1104035282
H  H161  1  0.30810000  0.24470000  0.37090000  0.5 0.1346018339
H  H162  1  0.75530000  0.30810000  0.37090000  0.5 0.1346018339
H  H163  1  0.69190000  0.75530000  0.37090000  0.5 0.1346018339
H  H164  1  0.24470000  0.69190000  0.37090000  0.5 0.1346018339
H  H165  1  0.30810000  0.75530000  0.62910000  0.5 0.1346018339
H  H166  1  0.24470000  0.30810000  0.62910000  0.5 0.1346018339
H  H167  1  0.69190000  0.24470000  0.62910000  0.5 0.1346018339
H  H168  1  0.75530000  0.69190000  0.62910000  0.5 0.1346018339
H  H169  1  0.80810000  0.74470000  0.87090000  0.5 0.1346018339
H  H170  1  0.25530000  0.80810000  0.87090000  0.5 0.1346018339
H  H171  1  0.19190000  0.25530000  0.87090000  0.5 0.1346018339
H  H172  1  0.74470000  0.19190000  0.87090000  0.5 0.1346018339
H  H173  1  0.80810000  0.25530000  0.12910000  0.5 0.1346018339
H  H174  1  0.74470000  0.80810000  0.12910000  0.5 0.1346018339
H  H175  1  0.19190000  0.74470000  0.12910000  0.5 0.1346018339
H  H176  1  0.25530000  0.19190000  0.12910000  0.5 0.1346018339
H  H177  1  0.69190000  0.75530000  0.62910000  0.5 0.1346018339
H  H178  1  0.24470000  0.69190000  0.62910000  0.5 0.1346018339
H  H179  1  0.30810000  0.24470000  0.62910000  0.5 0.1346018339
H  H180  1  0.75530000  0.30810000  0.62910000  0.5 0.1346018339
H  H181  1  0.69190000  0.24470000  0.37090000  0.5 0.1346018339
H  H182  1  0.75530000  0.69190000  0.37090000  0.5 0.1346018339
H  H183  1  0.30810000  0.75530000  0.37090000  0.5 0.1346018339
H  H184  1  0.24470000  0.30810000  0.37090000  0.5 0.1346018339
H  H185  1  0.19190000  0.25530000  0.12910000  0.5 0.1346018339
H  H186  1  0.74470000  0.19190000  0.12910000  0.5 0.1346018339
H  H187  1  0.80810000  0.74470000  0.12910000  0.5 0.1346018339
H  H188  1  0.25530000  0.80810000  0.12910000  0.5 0.1346018339
H  H189  1  0.19190000  0.74470000  0.87090000  0.5 0.1346018339
H  H190  1  0.25530000  0.19190000  0.87090000  0.5 0.1346018339
H  H191  1  0.80810000  0.25530000  0.87090000  0.5 0.1346018339
H  H192  1  0.74470000  0.80810000  0.87090000  0.5 0.1346018339
H  H193  1  0.25620000  0.24800000  0.50000000  0.5 0.1346018339
H  H194  1  0.75200000  0.25620000  0.50000000  0.5 0.1346018339
H  H195  1  0.74380000  0.75200000  0.50000000  0.5 0.1346018339
H  H196  1  0.24800000  0.74380000  0.50000000  0.5 0.1346018339
H  H197  1  0.25620000  0.75200000  0.50000000  0.5 0.1346018339
H  H198  1  0.24800000  0.25620000  0.50000000  0.5 0.1346018339
H  H199  1  0.74380000  0.24800000  0.50000000  0.5 0.1346018339
H  H200  1  0.75200000  0.74380000  0.50000000  0.5 0.1346018339
H  H201  1  0.75620000  0.74800000  0.00000000  0.5 0.1346018339
H  H202  1  0.25200000  0.75620000  0.00000000  0.5 0.1346018339
H  H203  1  0.24380000  0.25200000  0.00000000  0.5 0.1346018339
H  H204  1  0.74800000  0.24380000  0.00000000  0.5 0.1346018339
H  H205  1  0.75620000  0.25200000  0.00000000  0.5 0.1346018339
H  H206  1  0.74800000  0.75620000  0.00000000  0.5 0.1346018339
H  H207  1  0.24380000  0.74800000  0.00000000  0.5 0.1346018339
H  H208  1  0.25200000  0.24380000  0.00000000  0.5 0.1346018339
H  H209  1  0.30680000  0.05070000  0.28630000  0.5 0.1104035282
H  H210  1  0.94930000  0.30680000  0.28630000  0.5 0.1104035282
H  H211  1  0.69320000  0.94930000  0.28630000  0.5 0.1104035282
H  H212  1  0.05070000  0.69320000  0.28630000  0.5 0.1104035282
H  H213  1  0.30680000  0.94930000  0.71370000  0.5 0.1104035282
H  H214  1  0.05070000  0.30680000  0.71370000  0.5 0.1104035282
H  H215  1  0.69320000  0.05070000  0.71370000  0.5 0.1104035282
H  H216  1  0.94930000  0.69320000  0.71370000  0.5 0.1104035282
H  H217  1  0.80680000  0.55070000  0.78630000  0.5 0.1104035282
H  H218  1  0.44930000  0.80680000  0.78630000  0.5 0.1104035282
H  H219  1  0.19320000  0.44930000  0.78630000  0.5 0.1104035282
H  H220  1  0.55070000  0.19320000  0.78630000  0.5 0.1104035282
H  H221  1  0.80680000  0.44930000  0.21370000  0.5 0.1104035282
H  H222  1  0.55070000  0.80680000  0.21370000  0.5 0.1104035282
H  H223  1  0.19320000  0.55070000  0.21370000  0.5 0.1104035282
H  H224  1  0.44930000  0.19320000  0.21370000  0.5 0.1104035282
H  H225  1  0.69320000  0.94930000  0.71370000  0.5 0.1104035282
H  H226  1  0.05070000  0.69320000  0.71370000  0.5 0.1104035282
H  H227  1  0.30680000  0.05070000  0.71370000  0.5 0.1104035282
H  H228  1  0.94930000  0.30680000  0.71370000  0.5 0.1104035282
H  H229  1  0.69320000  0.05070000  0.28630000  0.5 0.1104035282
H  H230  1  0.94930000  0.69320000  0.28630000  0.5 0.1104035282
H  H231  1  0.30680000  0.94930000  0.28630000  0.5 0.1104035282
H  H232  1  0.05070000  0.30680000  0.28630000  0.5 0.1104035282
H  H233  1  0.19320000  0.44930000  0.21370000  0.5 0.1104035282
H  H234  1  0.55070000  0.19320000  0.21370000  0.5 0.1104035282
H  H235  1  0.80680000  0.55070000  0.21370000  0.5 0.1104035282
H  H236  1  0.44930000  0.80680000  0.21370000  0.5 0.1104035282
H  H237  1  0.19320000  0.55070000  0.78630000  0.5 0.1104035282
H  H238  1  0.44930000  0.19320000  0.78630000  0.5 0.1104035282
H  H239  1  0.80680000  0.44930000  0.78630000  0.5 0.1104035282
H  H240  1  0.55070000  0.80680000  0.78630000  0.5 0.1104035282
H  H241  1  0.19380000  0.09810000  0.17500000  0.5 0.1038542063
H  H242  1  0.90190000  0.19380000  0.17500000  0.5 0.1038542063
H  H243  1  0.80620000  0.90190000  0.17500000  0.5 0.1038542063
H  H244  1  0.09810000  0.80620000  0.17500000  0.5 0.1038542063
H  H245  1  0.19380000  0.90190000  0.82500000  0.5 0.1038542063
H  H246  1  0.09810000  0.19380000  0.82500000  0.5 0.1038542063
H  H247  1  0.80620000  0.09810000  0.82500000  0.5 0.1038542063
H  H248  1  0.90190000  0.80620000  0.82500000  0.5 0.1038542063
H  H249  1  0.69380000  0.59810000  0.67500000  0.5 0.1038542063
H  H250  1  0.40190000  0.69380000  0.67500000  0.5 0.1038542063
H  H251  1  0.30620000  0.40190000  0.67500000  0.5 0.1038542063
H  H252  1  0.59810000  0.30620000  0.67500000  0.5 0.1038542063
H  H253  1  0.69380000  0.40190000  0.32500000  0.5 0.1038542063
H  H254  1  0.59810000  0.69380000  0.32500000  0.5 0.1038542063
H  H255  1  0.30620000  0.59810000  0.32500000  0.5 0.1038542063
H  H256  1  0.40190000  0.30620000  0.32500000  0.5 0.1038542063
H  H257  1  0.80620000  0.90190000  0.82500000  0.5 0.1038542063
H  H258  1  0.09810000  0.80620000  0.82500000  0.5 0.1038542063
H  H259  1  0.19380000  0.09810000  0.82500000  0.5 0.1038542063
H  H260  1  0.90190000  0.19380000  0.82500000  0.5 0.1038542063
H  H261  1  0.80620000  0.09810000  0.17500000  0.5 0.1038542063
H  H262  1  0.90190000  0.80620000  0.17500000  0.5 0.1038542063
H  H263  1  0.19380000  0.90190000  0.17500000  0.5 0.1038542063
H  H264  1  0.09810000  0.19380000  0.17500000  0.5 0.1038542063
H  H265  1  0.30620000  0.40190000  0.32500000  0.5 0.1038542063
H  H266  1  0.59810000  0.30620000  0.32500000  0.5 0.1038542063
H  H267  1  0.69380000  0.59810000  0.32500000  0.5 0.1038542063
H  H268  1  0.40190000  0.69380000  0.32500000  0.5 0.1038542063
H  H269  1  0.30620000  0.59810000  0.67500000  0.5 0.1038542063
H  H270  1  0.40190000  0.30620000  0.67500000  0.5 0.1038542063
H  H271  1  0.69380000  0.40190000  0.67500000  0.5 0.1038542063
H  H272  1  0.59810000  0.69380000  0.67500000  0.5 0.1038542063
H  H273  1  0.13920000  0.05630000  0.12630000  0.5 0.1104035282
H  H274  1  0.94370000  0.13920000  0.12630000  0.5 0.1104035282
H  H275  1  0.86080000  0.94370000  0.12630000  0.5 0.1104035282
H  H276  1  0.05630000  0.86080000  0.12630000  0.5 0.1104035282
H  H277  1  0.13920000  0.94370000  0.87370000  0.5 0.1104035282
H  H278  1  0.05630000  0.13920000  0.87370000  0.5 0.1104035282
H  H279  1  0.86080000  0.05630000  0.87370000  0.5 0.1104035282
H  H280  1  0.94370000  0.86080000  0.87370000  0.5 0.1104035282
H  H281  1  0.63920000  0.55630000  0.62630000  0.5 0.1104035282
H  H282  1  0.44370000  0.63920000  0.62630000  0.5 0.1104035282
H  H283  1  0.36080000  0.44370000  0.62630000  0.5 0.1104035282
H  H284  1  0.55630000  0.36080000  0.62630000  0.5 0.1104035282
H  H285  1  0.63920000  0.44370000  0.37370000  0.5 0.1104035282
H  H286  1  0.55630000  0.63920000  0.37370000  0.5 0.1104035282
H  H287  1  0.36080000  0.55630000  0.37370000  0.5 0.1104035282
H  H288  1  0.44370000  0.36080000  0.37370000  0.5 0.1104035282
H  H289  1  0.86080000  0.94370000  0.87370000  0.5 0.1104035282
H  H290  1  0.05630000  0.86080000  0.87370000  0.5 0.1104035282
H  H291  1  0.13920000  0.05630000  0.87370000  0.5 0.1104035282
H  H292  1  0.94370000  0.13920000  0.87370000  0.5 0.1104035282
H  H293  1  0.86080000  0.05630000  0.12630000  0.5 0.1104035282
H  H294  1  0.94370000  0.86080000  0.12630000  0.5 0.1104035282
H  H295  1  0.13920000  0.94370000  0.12630000  0.5 0.1104035282
H  H296  1  0.05630000  0.13920000  0.12630000  0.5 0.1104035282
H  H297  1  0.36080000  0.44370000  0.37370000  0.5 0.1104035282
H  H298  1  0.55630000  0.36080000  0.37370000  0.5 0.1104035282
H  H299  1  0.63920000  0.55630000  0.37370000  0.5 0.1104035282
H  H300  1  0.44370000  0.63920000  0.37370000  0.5 0.1104035282
H  H301  1  0.36080000  0.55630000  0.62630000  0.5 0.1104035282
H  H302  1  0.44370000  0.36080000  0.62630000  0.5 0.1104035282
H  H303  1  0.63920000  0.44370000  0.62630000  0.5 0.1104035282
H  H304  1  0.55630000  0.63920000  0.62630000  0.5 0.1104035282
H  H305  1  0.19620000  0.05280000  0.28430000  0.5 0.1104035282
H  H306  1  0.94720000  0.19620000  0.28430000  0.5 0.1104035282
H  H307  1  0.80380000  0.94720000  0.28430000  0.5 0.1104035282
H  H308  1  0.05280000  0.80380000  0.28430000  0.5 0.1104035282
H  H309  1  0.19620000  0.94720000  0.71570000  0.5 0.1104035282
H  H310  1  0.05280000  0.19620000  0.71570000  0.5 0.1104035282
H  H311  1  0.80380000  0.05280000  0.71570000  0.5 0.1104035282
H  H312  1  0.94720000  0.80380000  0.71570000  0.5 0.1104035282
H  H313  1  0.69620000  0.55280000  0.78430000  0.5 0.1104035282
H  H314  1  0.44720000  0.69620000  0.78430000  0.5 0.1104035282
H  H315  1  0.30380000  0.44720000  0.78430000  0.5 0.1104035282
H  H316  1  0.55280000  0.30380000  0.78430000  0.5 0.1104035282
H  H317  1  0.69620000  0.44720000  0.21570000  0.5 0.1104035282
H  H318  1  0.55280000  0.69620000  0.21570000  0.5 0.1104035282
H  H319  1  0.30380000  0.55280000  0.21570000  0.5 0.1104035282
H  H320  1  0.44720000  0.30380000  0.21570000  0.5 0.1104035282
H  H321  1  0.80380000  0.94720000  0.71570000  0.5 0.1104035282
H  H322  1  0.05280000  0.80380000  0.71570000  0.5 0.1104035282
H  H323  1  0.19620000  0.05280000  0.71570000  0.5 0.1104035282
H  H324  1  0.94720000  0.19620000  0.71570000  0.5 0.1104035282
H  H325  1  0.80380000  0.05280000  0.28430000  0.5 0.1104035282
H  H326  1  0.94720000  0.80380000  0.28430000  0.5 0.1104035282
H  H327  1  0.19620000  0.94720000  0.28430000  0.5 0.1104035282
H  H328  1  0.05280000  0.19620000  0.28430000  0.5 0.1104035282
H  H329  1  0.30380000  0.44720000  0.21570000  0.5 0.1104035282
H  H330  1  0.55280000  0.30380000  0.21570000  0.5 0.1104035282
H  H331  1  0.69620000  0.55280000  0.21570000  0.5 0.1104035282
H  H332  1  0.44720000  0.69620000  0.21570000  0.5 0.1104035282
H  H333  1  0.30380000  0.55280000  0.78430000  0.5 0.1104035282
H  H334  1  0.44720000  0.30380000  0.78430000  0.5 0.1104035282
H  H335  1  0.69620000  0.44720000  0.78430000  0.5 0.1104035282
H  H336  1  0.55280000  0.69620000  0.78430000  0.5 0.1104035282
H  H337  1  0.33600000  0.10170000  0.18540000  0.5 0.1104035282
H  H338  1  0.89830000  0.33600000  0.18540000  0.5 0.1104035282
H  H339  1  0.66400000  0.89830000  0.18540000  0.5 0.1104035282
H  H340  1  0.10170000  0.66400000  0.18540000  0.5 0.1104035282
H  H341  1  0.33600000  0.89830000  0.81460000  0.5 0.1104035282
H  H342  1  0.10170000  0.33600000  0.81460000  0.5 0.1104035282
H  H343  1  0.66400000  0.10170000  0.81460000  0.5 0.1104035282
H  H344  1  0.89830000  0.66400000  0.81460000  0.5 0.1104035282
H  H345  1  0.83600000  0.60170000  0.68540000  0.5 0.1104035282
H  H346  1  0.39830000  0.83600000  0.68540000  0.5 0.1104035282
H  H347  1  0.16400000  0.39830000  0.68540000  0.5 0.1104035282
H  H348  1  0.60170000  0.16400000  0.68540000  0.5 0.1104035282
H  H349  1  0.83600000  0.39830000  0.31460000  0.5 0.1104035282
H  H350  1  0.60170000  0.83600000  0.31460000  0.5 0.1104035282
H  H351  1  0.16400000  0.60170000  0.31460000  0.5 0.1104035282
H  H352  1  0.39830000  0.16400000  0.31460000  0.5 0.1104035282
H  H353  1  0.66400000  0.89830000  0.81460000  0.5 0.1104035282
H  H354  1  0.10170000  0.66400000  0.81460000  0.5 0.1104035282
H  H355  1  0.33600000  0.10170000  0.81460000  0.5 0.1104035282
H  H356  1  0.89830000  0.33600000  0.81460000  0.5 0.1104035282
H  H357  1  0.66400000  0.10170000  0.18540000  0.5 0.1104035282
H  H358  1  0.89830000  0.66400000  0.18540000  0.5 0.1104035282
H  H359  1  0.33600000  0.89830000  0.18540000  0.5 0.1104035282
H  H360  1  0.10170000  0.33600000  0.18540000  0.5 0.1104035282
H  H361  1  0.16400000  0.39830000  0.31460000  0.5 0.1104035282
H  H362  1  0.60170000  0.16400000  0.31460000  0.5 0.1104035282
H  H363  1  0.83600000  0.60170000  0.31460000  0.5 0.1104035282
H  H364  1  0.39830000  0.83600000  0.31460000  0.5 0.1104035282
H  H365  1  0.16400000  0.60170000  0.68540000  0.5 0.1104035282
H  H366  1  0.39830000  0.16400000  0.68540000  0.5 0.1104035282
H  H367  1  0.83600000  0.39830000  0.68540000  0.5 0.1104035282
H  H368  1  0.60170000  0.83600000  0.68540000  0.5 0.1104035282
H  H369  1  0.35530000  0.05450000  0.12660000  0.5 0.1104035282
H  H370  1  0.94550000  0.35530000  0.12660000  0.5 0.1104035282
H  H371  1  0.64470000  0.94550000  0.12660000  0.5 0.1104035282
H  H372  1  0.05450000  0.64470000  0.12660000  0.5 0.1104035282
H  H373  1  0.35530000  0.94550000  0.87340000  0.5 0.1104035282
H  H374  1  0.05450000  0.35530000  0.87340000  0.5 0.1104035282
H  H375  1  0.64470000  0.05450000  0.87340000  0.5 0.1104035282
H  H376  1  0.94550000  0.64470000  0.87340000  0.5 0.1104035282
H  H377  1  0.85530000  0.55450000  0.62660000  0.5 0.1104035282
H  H378  1  0.44550000  0.85530000  0.62660000  0.5 0.1104035282
H  H379  1  0.14470000  0.44550000  0.62660000  0.5 0.1104035282
H  H380  1  0.55450000  0.14470000  0.62660000  0.5 0.1104035282
H  H381  1  0.85530000  0.44550000  0.37340000  0.5 0.1104035282
H  H382  1  0.55450000  0.85530000  0.37340000  0.5 0.1104035282
H  H383  1  0.14470000  0.55450000  0.37340000  0.5 0.1104035282
H  H384  1  0.44550000  0.14470000  0.37340000  0.5 0.1104035282
H  H385  1  0.64470000  0.94550000  0.87340000  0.5 0.1104035282
H  H386  1  0.05450000  0.64470000  0.87340000  0.5 0.1104035282
H  H387  1  0.35530000  0.05450000  0.87340000  0.5 0.1104035282
H  H388  1  0.94550000  0.35530000  0.87340000  0.5 0.1104035282
H  H389  1  0.64470000  0.05450000  0.12660000  0.5 0.1104035282
H  H390  1  0.94550000  0.64470000  0.12660000  0.5 0.1104035282
H  H391  1  0.35530000  0.94550000  0.12660000  0.5 0.1104035282
H  H392  1  0.05450000  0.35530000  0.12660000  0.5 0.1104035282
H  H393  1  0.14470000  0.44550000  0.37340000  0.5 0.1104035282
H  H394  1  0.55450000  0.14470000  0.37340000  0.5 0.1104035282
H  H395  1  0.85530000  0.55450000  0.37340000  0.5 0.1104035282
H  H396  1  0.44550000  0.85530000  0.37340000  0.5 0.1104035282
H  H397  1  0.14470000  0.55450000  0.62660000  0.5 0.1104035282
H  H398  1  0.44550000  0.14470000  0.62660000  0.5 0.1104035282
H  H399  1  0.85530000  0.44550000  0.62660000  0.5 0.1104035282
H  H400  1  0.55450000  0.85530000  0.62660000  0.5 0.1104035282
C  C1  1  0.24995000  0.13170000  0.24200000  1.0 0.5304520493
C  C2  1  0.86830000  0.24995000  0.24200000  1.0 0.5304520493
C  C3  1  0.75005000  0.86830000  0.24200000  1.0 0.5304520493
C  C4  1  0.13170000  0.75005000  0.24200000  1.0 0.5304520493
C  C5  1  0.24995000  0.86830000  0.75800000  1.0 0.5304520493
C  C6  1  0.13170000  0.24995000  0.75800000  1.0 0.5304520493
C  C7  1  0.75005000  0.13170000  0.75800000  1.0 0.5304520493
C  C8  1  0.86830000  0.75005000  0.75800000  1.0 0.5304520493
C  C9  1  0.74995000  0.63170000  0.74200000  1.0 0.5304520493
C  C10  1  0.36830000  0.74995000  0.74200000  1.0 0.5304520493
C  C11  1  0.25005000  0.36830000  0.74200000  1.0 0.5304520493
C  C12  1  0.63170000  0.25005000  0.74200000  1.0 0.5304520493
C  C13  1  0.74995000  0.36830000  0.25800000  1.0 0.5304520493
C  C14  1  0.63170000  0.74995000  0.25800000  1.0 0.5304520493
C  C15  1  0.25005000  0.63170000  0.25800000  1.0 0.5304520493
C  C16  1  0.36830000  0.25005000  0.25800000  1.0 0.5304520493
C  C17  1  0.75005000  0.86830000  0.75800000  1.0 0.5304520493
C  C18  1  0.13170000  0.75005000  0.75800000  1.0 0.5304520493
C  C19  1  0.24995000  0.13170000  0.75800000  1.0 0.5304520493
C  C20  1  0.86830000  0.24995000  0.75800000  1.0 0.5304520493
C  C21  1  0.75005000  0.13170000  0.24200000  1.0 0.5304520493
C  C22  1  0.86830000  0.75005000  0.24200000  1.0 0.5304520493
C  C23  1  0.24995000  0.86830000  0.24200000  1.0 0.5304520493
C  C24  1  0.13170000  0.24995000  0.24200000  1.0 0.5304520493
C  C25  1  0.25005000  0.36830000  0.25800000  1.0 0.5304520493
C  C26  1  0.63170000  0.25005000  0.25800000  1.0 0.5304520493
C  C27  1  0.74995000  0.63170000  0.25800000  1.0 0.5304520493
C  C28  1  0.36830000  0.74995000  0.25800000  1.0 0.5304520493
C  C29  1  0.25005000  0.63170000  0.74200000  1.0 0.5304520493
C  C30  1  0.36830000  0.25005000  0.74200000  1.0 0.5304520493
C  C31  1  0.74995000  0.36830000  0.74200000  1.0 0.5304520493
C  C32  1  0.63170000  0.74995000  0.74200000  1.0 0.5304520493
C  C33  1  0.25030000  0.06550000  0.24010000  1.0 -0.0470043042
C  C34  1  0.93450000  0.25030000  0.24010000  1.0 -0.0470043042
C  C35  1  0.74970000  0.93450000  0.24010000  1.0 -0.0470043042
C  C36  1  0.06550000  0.74970000  0.24010000  1.0 -0.0470043042
C  C37  1  0.25030000  0.93450000  0.75990000  1.0 -0.0470043042
C  C38  1  0.06550000  0.25030000  0.75990000  1.0 -0.0470043042
C  C39  1  0.74970000  0.06550000  0.75990000  1.0 -0.0470043042
C  C40  1  0.93450000  0.74970000  0.75990000  1.0 -0.0470043042
C  C41  1  0.75030000  0.56550000  0.74010000  1.0 -0.0470043042
C  C42  1  0.43450000  0.75030000  0.74010000  1.0 -0.0470043042
C  C43  1  0.24970000  0.43450000  0.74010000  1.0 -0.0470043042
C  C44  1  0.56550000  0.24970000  0.74010000  1.0 -0.0470043042
C  C45  1  0.75030000  0.43450000  0.25990000  1.0 -0.0470043042
C  C46  1  0.56550000  0.75030000  0.25990000  1.0 -0.0470043042
C  C47  1  0.24970000  0.56550000  0.25990000  1.0 -0.0470043042
C  C48  1  0.43450000  0.24970000  0.25990000  1.0 -0.0470043042
C  C49  1  0.74970000  0.93450000  0.75990000  1.0 -0.0470043042
C  C50  1  0.06550000  0.74970000  0.75990000  1.0 -0.0470043042
C  C51  1  0.25030000  0.06550000  0.75990000  1.0 -0.0470043042
C  C52  1  0.93450000  0.25030000  0.75990000  1.0 -0.0470043042
C  C53  1  0.74970000  0.06550000  0.24010000  1.0 -0.0470043042
C  C54  1  0.93450000  0.74970000  0.24010000  1.0 -0.0470043042
C  C55  1  0.25030000  0.93450000  0.24010000  1.0 -0.0470043042
C  C56  1  0.06550000  0.25030000  0.24010000  1.0 -0.0470043042
C  C57  1  0.24970000  0.43450000  0.25990000  1.0 -0.0470043042
C  C58  1  0.56550000  0.24970000  0.25990000  1.0 -0.0470043042
C  C59  1  0.75030000  0.56550000  0.25990000  1.0 -0.0470043042
C  C60  1  0.43450000  0.75030000  0.25990000  1.0 -0.0470043042
C  C61  1  0.24970000  0.56550000  0.74010000  1.0 -0.0470043042
C  C62  1  0.43450000  0.24970000  0.74010000  1.0 -0.0470043042
C  C63  1  0.75030000  0.43450000  0.74010000  1.0 -0.0470043042
C  C64  1  0.56550000  0.75030000  0.74010000  1.0 -0.0470043042
C  C65  1  0.16010000  0.24950000  0.35942000  0.5 -0.1200904674
C  C66  1  0.75050000  0.16010000  0.35942000  0.5 -0.1200904674
C  C67  1  0.83990000  0.75050000  0.35942000  0.5 -0.1200904674
C  C68  1  0.24950000  0.83990000  0.35942000  0.5 -0.1200904674
C  C69  1  0.16010000  0.75050000  0.64058000  0.5 -0.1200904674
C  C70  1  0.24950000  0.16010000  0.64058000  0.5 -0.1200904674
C  C71  1  0.83990000  0.24950000  0.64058000  0.5 -0.1200904674
C  C72  1  0.75050000  0.83990000  0.64058000  0.5 -0.1200904674
C  C73  1  0.66010000  0.74950000  0.85942000  0.5 -0.1200904674
C  C74  1  0.25050000  0.66010000  0.85942000  0.5 -0.1200904674
C  C75  1  0.33990000  0.25050000  0.85942000  0.5 -0.1200904674
C  C76  1  0.74950000  0.33990000  0.85942000  0.5 -0.1200904674
C  C77  1  0.66010000  0.25050000  0.14058000  0.5 -0.1200904674
C  C78  1  0.74950000  0.66010000  0.14058000  0.5 -0.1200904674
C  C79  1  0.33990000  0.74950000  0.14058000  0.5 -0.1200904674
C  C80  1  0.25050000  0.33990000  0.14058000  0.5 -0.1200904674
C  C81  1  0.83990000  0.75050000  0.64058000  0.5 -0.1200904674
C  C82  1  0.24950000  0.83990000  0.64058000  0.5 -0.1200904674
C  C83  1  0.16010000  0.24950000  0.64058000  0.5 -0.1200904674
C  C84  1  0.75050000  0.16010000  0.64058000  0.5 -0.1200904674
C  C85  1  0.83990000  0.24950000  0.35942000  0.5 -0.1200904674
C  C86  1  0.75050000  0.83990000  0.35942000  0.5 -0.1200904674
C  C87  1  0.16010000  0.75050000  0.35942000  0.5 -0.1200904674
C  C88  1  0.24950000  0.16010000  0.35942000  0.5 -0.1200904674
C  C89  1  0.33990000  0.25050000  0.14058000  0.5 -0.1200904674
C  C90  1  0.74950000  0.33990000  0.14058000  0.5 -0.1200904674
C  C91  1  0.66010000  0.74950000  0.14058000  0.5 -0.1200904674
C  C92  1  0.25050000  0.66010000  0.14058000  0.5 -0.1200904674
C  C93  1  0.33990000  0.74950000  0.85942000  0.5 -0.1200904674
C  C94  1  0.25050000  0.33990000  0.85942000  0.5 -0.1200904674
C  C95  1  0.66010000  0.25050000  0.85942000  0.5 -0.1200904674
C  C96  1  0.74950000  0.66010000  0.85942000  0.5 -0.1200904674
C  C97  1  0.14330000  0.24980000  0.39810000  0.5 -0.2825663882
C  C98  1  0.75020000  0.14330000  0.39810000  0.5 -0.2825663882
C  C99  1  0.85670000  0.75020000  0.39810000  0.5 -0.2825663882
C  C100  1  0.24980000  0.85670000  0.39810000  0.5 -0.2825663882
C  C101  1  0.14330000  0.75020000  0.60190000  0.5 -0.2825663882
C  C102  1  0.24980000  0.14330000  0.60190000  0.5 -0.2825663882
C  C103  1  0.85670000  0.24980000  0.60190000  0.5 -0.2825663882
C  C104  1  0.75020000  0.85670000  0.60190000  0.5 -0.2825663882
C  C105  1  0.64330000  0.74980000  0.89810000  0.5 -0.2825663882
C  C106  1  0.25020000  0.64330000  0.89810000  0.5 -0.2825663882
C  C107  1  0.35670000  0.25020000  0.89810000  0.5 -0.2825663882
C  C108  1  0.74980000  0.35670000  0.89810000  0.5 -0.2825663882
C  C109  1  0.64330000  0.25020000  0.10190000  0.5 -0.2825663882
C  C110  1  0.74980000  0.64330000  0.10190000  0.5 -0.2825663882
C  C111  1  0.35670000  0.74980000  0.10190000  0.5 -0.2825663882
C  C112  1  0.25020000  0.35670000  0.10190000  0.5 -0.2825663882
C  C113  1  0.85670000  0.75020000  0.60190000  0.5 -0.2825663882
C  C114  1  0.24980000  0.85670000  0.60190000  0.5 -0.2825663882
C  C115  1  0.14330000  0.24980000  0.60190000  0.5 -0.2825663882
C  C116  1  0.75020000  0.14330000  0.60190000  0.5 -0.2825663882
C  C117  1  0.85670000  0.24980000  0.39810000  0.5 -0.2825663882
C  C118  1  0.75020000  0.85670000  0.39810000  0.5 -0.2825663882
C  C119  1  0.14330000  0.75020000  0.39810000  0.5 -0.2825663882
C  C120  1  0.24980000  0.14330000  0.39810000  0.5 -0.2825663882
C  C121  1  0.35670000  0.25020000  0.10190000  0.5 -0.2825663882
C  C122  1  0.74980000  0.35670000  0.10190000  0.5 -0.2825663882
C  C123  1  0.64330000  0.74980000  0.10190000  0.5 -0.2825663882
C  C124  1  0.25020000  0.64330000  0.10190000  0.5 -0.2825663882
C  C125  1  0.35670000  0.74980000  0.89810000  0.5 -0.2825663882
C  C126  1  0.25020000  0.35670000  0.89810000  0.5 -0.2825663882
C  C127  1  0.64330000  0.25020000  0.89810000  0.5 -0.2825663882
C  C128  1  0.74980000  0.64330000  0.89810000  0.5 -0.2825663882
C  C129  1  0.18830000  0.24830000  0.42660000  0.5 0.0413742372
C  C130  1  0.75170000  0.18830000  0.42660000  0.5 0.0413742372
C  C131  1  0.81170000  0.75170000  0.42660000  0.5 0.0413742372
C  C132  1  0.24830000  0.81170000  0.42660000  0.5 0.0413742372
C  C133  1  0.18830000  0.75170000  0.57340000  0.5 0.0413742372
C  C134  1  0.24830000  0.18830000  0.57340000  0.5 0.0413742372
C  C135  1  0.81170000  0.24830000  0.57340000  0.5 0.0413742372
C  C136  1  0.75170000  0.81170000  0.57340000  0.5 0.0413742372
C  C137  1  0.68830000  0.74830000  0.92660000  0.5 0.0413742372
C  C138  1  0.25170000  0.68830000  0.92660000  0.5 0.0413742372
C  C139  1  0.31170000  0.25170000  0.92660000  0.5 0.0413742372
C  C140  1  0.74830000  0.31170000  0.92660000  0.5 0.0413742372
C  C141  1  0.68830000  0.25170000  0.07340000  0.5 0.0413742372
C  C142  1  0.74830000  0.68830000  0.07340000  0.5 0.0413742372
C  C143  1  0.31170000  0.74830000  0.07340000  0.5 0.0413742372
C  C144  1  0.25170000  0.31170000  0.07340000  0.5 0.0413742372
C  C145  1  0.81170000  0.75170000  0.57340000  0.5 0.0413742372
C  C146  1  0.24830000  0.81170000  0.57340000  0.5 0.0413742372
C  C147  1  0.18830000  0.24830000  0.57340000  0.5 0.0413742372
C  C148  1  0.75170000  0.18830000  0.57340000  0.5 0.0413742372
C  C149  1  0.81170000  0.24830000  0.42660000  0.5 0.0413742372
C  C150  1  0.75170000  0.81170000  0.42660000  0.5 0.0413742372
C  C151  1  0.18830000  0.75170000  0.42660000  0.5 0.0413742372
C  C152  1  0.24830000  0.18830000  0.42660000  0.5 0.0413742372
C  C153  1  0.31170000  0.25170000  0.07340000  0.5 0.0413742372
C  C154  1  0.74830000  0.31170000  0.07340000  0.5 0.0413742372
C  C155  1  0.68830000  0.74830000  0.07340000  0.5 0.0413742372
C  C156  1  0.25170000  0.68830000  0.07340000  0.5 0.0413742372
C  C157  1  0.31170000  0.74830000  0.92660000  0.5 0.0413742372
C  C158  1  0.25170000  0.31170000  0.92660000  0.5 0.0413742372
C  C159  1  0.68830000  0.25170000  0.92660000  0.5 0.0413742372
C  C160  1  0.74830000  0.68830000  0.92660000  0.5 0.0413742372
C  C161  1  0.25000000  0.24640000  0.41640000  0.5 -0.1571169183
C  C162  1  0.75360000  0.25000000  0.41640000  0.5 -0.1571169183
C  C163  1  0.75000000  0.75360000  0.41640000  0.5 -0.1571169183
C  C164  1  0.24640000  0.75000000  0.41640000  0.5 -0.1571169183
C  C165  1  0.25000000  0.75360000  0.58360000  0.5 -0.1571169183
C  C166  1  0.24640000  0.25000000  0.58360000  0.5 -0.1571169183
C  C167  1  0.75000000  0.24640000  0.58360000  0.5 -0.1571169183
C  C168  1  0.75360000  0.75000000  0.58360000  0.5 -0.1571169183
C  C169  1  0.75000000  0.74640000  0.91640000  0.5 -0.1571169183
C  C170  1  0.25360000  0.75000000  0.91640000  0.5 -0.1571169183
C  C171  1  0.25000000  0.25360000  0.91640000  0.5 -0.1571169183
C  C172  1  0.74640000  0.25000000  0.91640000  0.5 -0.1571169183
C  C173  1  0.75000000  0.25360000  0.08360000  0.5 -0.1571169183
C  C174  1  0.74640000  0.75000000  0.08360000  0.5 -0.1571169183
C  C175  1  0.25000000  0.74640000  0.08360000  0.5 -0.1571169183
C  C176  1  0.25360000  0.25000000  0.08360000  0.5 -0.1571169183
C  C177  1  0.75000000  0.75360000  0.58360000  0.5 -0.1571169183
C  C178  1  0.24640000  0.75000000  0.58360000  0.5 -0.1571169183
C  C179  1  0.25000000  0.24640000  0.58360000  0.5 -0.1571169183
C  C180  1  0.75360000  0.25000000  0.58360000  0.5 -0.1571169183
C  C181  1  0.75000000  0.24640000  0.41640000  0.5 -0.1571169183
C  C182  1  0.75360000  0.75000000  0.41640000  0.5 -0.1571169183
C  C183  1  0.25000000  0.75360000  0.41640000  0.5 -0.1571169183
C  C184  1  0.24640000  0.25000000  0.41640000  0.5 -0.1571169183
C  C185  1  0.25000000  0.25360000  0.08360000  0.5 -0.1571169183
C  C186  1  0.74640000  0.25000000  0.08360000  0.5 -0.1571169183
C  C187  1  0.75000000  0.74640000  0.08360000  0.5 -0.1571169183
C  C188  1  0.25360000  0.75000000  0.08360000  0.5 -0.1571169183
C  C189  1  0.25000000  0.74640000  0.91640000  0.5 -0.1571169183
C  C190  1  0.25360000  0.25000000  0.91640000  0.5 -0.1571169183
C  C191  1  0.75000000  0.25360000  0.91640000  0.5 -0.1571169183
C  C192  1  0.74640000  0.75000000  0.91640000  0.5 -0.1571169183
C  C193  1  0.26680000  0.24600000  0.37770000  0.5 0.0709231523
C  C194  1  0.75400000  0.26680000  0.37770000  0.5 0.0709231523
C  C195  1  0.73320000  0.75400000  0.37770000  0.5 0.0709231523
C  C196  1  0.24600000  0.73320000  0.37770000  0.5 0.0709231523
C  C197  1  0.26680000  0.75400000  0.62230000  0.5 0.0709231523
C  C198  1  0.24600000  0.26680000  0.62230000  0.5 0.0709231523
C  C199  1  0.73320000  0.24600000  0.62230000  0.5 0.0709231523
C  C200  1  0.75400000  0.73320000  0.62230000  0.5 0.0709231523
C  C201  1  0.76680000  0.74600000  0.87770000  0.5 0.0709231523
C  C202  1  0.25400000  0.76680000  0.87770000  0.5 0.0709231523
C  C203  1  0.23320000  0.25400000  0.87770000  0.5 0.0709231523
C  C204  1  0.74600000  0.23320000  0.87770000  0.5 0.0709231523
C  C205  1  0.76680000  0.25400000  0.12230000  0.5 0.0709231523
C  C206  1  0.74600000  0.76680000  0.12230000  0.5 0.0709231523
C  C207  1  0.23320000  0.74600000  0.12230000  0.5 0.0709231523
C  C208  1  0.25400000  0.23320000  0.12230000  0.5 0.0709231523
C  C209  1  0.73320000  0.75400000  0.62230000  0.5 0.0709231523
C  C210  1  0.24600000  0.73320000  0.62230000  0.5 0.0709231523
C  C211  1  0.26680000  0.24600000  0.62230000  0.5 0.0709231523
C  C212  1  0.75400000  0.26680000  0.62230000  0.5 0.0709231523
C  C213  1  0.73320000  0.24600000  0.37770000  0.5 0.0709231523
C  C214  1  0.75400000  0.73320000  0.37770000  0.5 0.0709231523
C  C215  1  0.26680000  0.75400000  0.37770000  0.5 0.0709231523
C  C216  1  0.24600000  0.26680000  0.37770000  0.5 0.0709231523
C  C217  1  0.23320000  0.25400000  0.12230000  0.5 0.0709231523
C  C218  1  0.74600000  0.23320000  0.12230000  0.5 0.0709231523
C  C219  1  0.76680000  0.74600000  0.12230000  0.5 0.0709231523
C  C220  1  0.25400000  0.76680000  0.12230000  0.5 0.0709231523
C  C221  1  0.23320000  0.74600000  0.87770000  0.5 0.0709231523
C  C222  1  0.25400000  0.23320000  0.87770000  0.5 0.0709231523
C  C223  1  0.76680000  0.25400000  0.87770000  0.5 0.0709231523
C  C224  1  0.74600000  0.76680000  0.87770000  0.5 0.0709231523
C  C225  1  0.21340000  0.24750000  0.50000000  0.5 -0.1659001252
C  C226  1  0.75250000  0.21340000  0.50000000  0.5 -0.1659001252
C  C227  1  0.78660000  0.75250000  0.50000000  0.5 -0.1659001252
C  C228  1  0.24750000  0.78660000  0.50000000  0.5 -0.1659001252
C  C229  1  0.21340000  0.75250000  0.50000000  0.5 -0.1659001252
C  C230  1  0.24750000  0.21340000  0.50000000  0.5 -0.1659001252
C  C231  1  0.78660000  0.24750000  0.50000000  0.5 -0.1659001252
C  C232  1  0.75250000  0.78660000  0.50000000  0.5 -0.1659001252
C  C233  1  0.71340000  0.74750000  0.00000000  0.5 -0.1659001252
C  C234  1  0.25250000  0.71340000  0.00000000  0.5 -0.1659001252
C  C235  1  0.28660000  0.25250000  0.00000000  0.5 -0.1659001252
C  C236  1  0.74750000  0.28660000  0.00000000  0.5 -0.1659001252
C  C237  1  0.71340000  0.25250000  0.00000000  0.5 -0.1659001252
C  C238  1  0.74750000  0.71340000  0.00000000  0.5 -0.1659001252
C  C239  1  0.28660000  0.74750000  0.00000000  0.5 -0.1659001252
C  C240  1  0.25250000  0.28660000  0.00000000  0.5 -0.1659001252
C  C241  1  0.28400000  0.03020000  0.26760000  0.5 -0.0810016742
C  C242  1  0.96980000  0.28400000  0.26760000  0.5 -0.0810016742
C  C243  1  0.71600000  0.96980000  0.26760000  0.5 -0.0810016742
C  C244  1  0.03020000  0.71600000  0.26760000  0.5 -0.0810016742
C  C245  1  0.28400000  0.96980000  0.73240000  0.5 -0.0810016742
C  C246  1  0.03020000  0.28400000  0.73240000  0.5 -0.0810016742
C  C247  1  0.71600000  0.03020000  0.73240000  0.5 -0.0810016742
C  C248  1  0.96980000  0.71600000  0.73240000  0.5 -0.0810016742
C  C249  1  0.78400000  0.53020000  0.76760000  0.5 -0.0810016742
C  C250  1  0.46980000  0.78400000  0.76760000  0.5 -0.0810016742
C  C251  1  0.21600000  0.46980000  0.76760000  0.5 -0.0810016742
C  C252  1  0.53020000  0.21600000  0.76760000  0.5 -0.0810016742
C  C253  1  0.78400000  0.46980000  0.23240000  0.5 -0.0810016742
C  C254  1  0.53020000  0.78400000  0.23240000  0.5 -0.0810016742
C  C255  1  0.21600000  0.53020000  0.23240000  0.5 -0.0810016742
C  C256  1  0.46980000  0.21600000  0.23240000  0.5 -0.0810016742
C  C257  1  0.71600000  0.96980000  0.73240000  0.5 -0.0810016742
C  C258  1  0.03020000  0.71600000  0.73240000  0.5 -0.0810016742
C  C259  1  0.28400000  0.03020000  0.73240000  0.5 -0.0810016742
C  C260  1  0.96980000  0.28400000  0.73240000  0.5 -0.0810016742
C  C261  1  0.71600000  0.03020000  0.26760000  0.5 -0.0810016742
C  C262  1  0.96980000  0.71600000  0.26760000  0.5 -0.0810016742
C  C263  1  0.28400000  0.96980000  0.26760000  0.5 -0.0810016742
C  C264  1  0.03020000  0.28400000  0.26760000  0.5 -0.0810016742
C  C265  1  0.21600000  0.46980000  0.23240000  0.5 -0.0810016742
C  C266  1  0.53020000  0.21600000  0.23240000  0.5 -0.0810016742
C  C267  1  0.78400000  0.53020000  0.23240000  0.5 -0.0810016742
C  C268  1  0.46980000  0.78400000  0.23240000  0.5 -0.0810016742
C  C269  1  0.21600000  0.53020000  0.76760000  0.5 -0.0810016742
C  C270  1  0.46980000  0.21600000  0.76760000  0.5 -0.0810016742
C  C271  1  0.78400000  0.46980000  0.76760000  0.5 -0.0810016742
C  C272  1  0.53020000  0.78400000  0.76760000  0.5 -0.0810016742
C  C273  1  0.21200000  0.03620000  0.21330000  0.5 0.0709231523
C  C274  1  0.96380000  0.21200000  0.21330000  0.5 0.0709231523
C  C275  1  0.78800000  0.96380000  0.21330000  0.5 0.0709231523
C  C276  1  0.03620000  0.78800000  0.21330000  0.5 0.0709231523
C  C277  1  0.21200000  0.96380000  0.78670000  0.5 0.0709231523
C  C278  1  0.03620000  0.21200000  0.78670000  0.5 0.0709231523
C  C279  1  0.78800000  0.03620000  0.78670000  0.5 0.0709231523
C  C280  1  0.96380000  0.78800000  0.78670000  0.5 0.0709231523
C  C281  1  0.71200000  0.53620000  0.71330000  0.5 0.0709231523
C  C282  1  0.46380000  0.71200000  0.71330000  0.5 0.0709231523
C  C283  1  0.28800000  0.46380000  0.71330000  0.5 0.0709231523
C  C284  1  0.53620000  0.28800000  0.71330000  0.5 0.0709231523
C  C285  1  0.71200000  0.46380000  0.28670000  0.5 0.0709231523
C  C286  1  0.53620000  0.71200000  0.28670000  0.5 0.0709231523
C  C287  1  0.28800000  0.53620000  0.28670000  0.5 0.0709231523
C  C288  1  0.46380000  0.28800000  0.28670000  0.5 0.0709231523
C  C289  1  0.78800000  0.96380000  0.78670000  0.5 0.0709231523
C  C290  1  0.03620000  0.78800000  0.78670000  0.5 0.0709231523
C  C291  1  0.21200000  0.03620000  0.78670000  0.5 0.0709231523
C  C292  1  0.96380000  0.21200000  0.78670000  0.5 0.0709231523
C  C293  1  0.78800000  0.03620000  0.21330000  0.5 0.0709231523
C  C294  1  0.96380000  0.78800000  0.21330000  0.5 0.0709231523
C  C295  1  0.21200000  0.96380000  0.21330000  0.5 0.0709231523
C  C296  1  0.03620000  0.21200000  0.21330000  0.5 0.0709231523
C  C297  1  0.28800000  0.46380000  0.28670000  0.5 0.0709231523
C  C298  1  0.53620000  0.28800000  0.28670000  0.5 0.0709231523
C  C299  1  0.71200000  0.53620000  0.28670000  0.5 0.0709231523
C  C300  1  0.46380000  0.71200000  0.28670000  0.5 0.0709231523
C  C301  1  0.28800000  0.53620000  0.71330000  0.5 0.0709231523
C  C302  1  0.46380000  0.28800000  0.71330000  0.5 0.0709231523
C  C303  1  0.71200000  0.46380000  0.71330000  0.5 0.0709231523
C  C304  1  0.53620000  0.71200000  0.71330000  0.5 0.0709231523
C  C305  1  0.18770000  0.05600000  0.17790000  0.5 -0.1876715673
C  C306  1  0.94400000  0.18770000  0.17790000  0.5 -0.1876715673
C  C307  1  0.81230000  0.94400000  0.17790000  0.5 -0.1876715673
C  C308  1  0.05600000  0.81230000  0.17790000  0.5 -0.1876715673
C  C309  1  0.18770000  0.94400000  0.82210000  0.5 -0.1876715673
C  C310  1  0.05600000  0.18770000  0.82210000  0.5 -0.1876715673
C  C311  1  0.81230000  0.05600000  0.82210000  0.5 -0.1876715673
C  C312  1  0.94400000  0.81230000  0.82210000  0.5 -0.1876715673
C  C313  1  0.68770000  0.55600000  0.67790000  0.5 -0.1876715673
C  C314  1  0.44400000  0.68770000  0.67790000  0.5 -0.1876715673
C  C315  1  0.31230000  0.44400000  0.67790000  0.5 -0.1876715673
C  C316  1  0.55600000  0.31230000  0.67790000  0.5 -0.1876715673
C  C317  1  0.68770000  0.44400000  0.32210000  0.5 -0.1876715673
C  C318  1  0.55600000  0.68770000  0.32210000  0.5 -0.1876715673
C  C319  1  0.31230000  0.55600000  0.32210000  0.5 -0.1876715673
C  C320  1  0.44400000  0.31230000  0.32210000  0.5 -0.1876715673
C  C321  1  0.81230000  0.94400000  0.82210000  0.5 -0.1876715673
C  C322  1  0.05600000  0.81230000  0.82210000  0.5 -0.1876715673
C  C323  1  0.18770000  0.05600000  0.82210000  0.5 -0.1876715673
C  C324  1  0.94400000  0.18770000  0.82210000  0.5 -0.1876715673
C  C325  1  0.81230000  0.05600000  0.17790000  0.5 -0.1876715673
C  C326  1  0.94400000  0.81230000  0.17790000  0.5 -0.1876715673
C  C327  1  0.18770000  0.94400000  0.17790000  0.5 -0.1876715673
C  C328  1  0.05600000  0.18770000  0.17790000  0.5 -0.1876715673
C  C329  1  0.31230000  0.44400000  0.32210000  0.5 -0.1876715673
C  C330  1  0.55600000  0.31230000  0.32210000  0.5 -0.1876715673
C  C331  1  0.68770000  0.55600000  0.32210000  0.5 -0.1876715673
C  C332  1  0.44400000  0.68770000  0.32210000  0.5 -0.1876715673
C  C333  1  0.31230000  0.55600000  0.67790000  0.5 -0.1876715673
C  C334  1  0.44400000  0.31230000  0.67790000  0.5 -0.1876715673
C  C335  1  0.68770000  0.44400000  0.67790000  0.5 -0.1876715673
C  C336  1  0.55600000  0.68770000  0.67790000  0.5 -0.1876715673
C  C337  1  0.15720000  0.03223000  0.14540000  0.5 -0.1200904674
C  C338  1  0.96777000  0.15720000  0.14540000  0.5 -0.1200904674
C  C339  1  0.84280000  0.96777000  0.14540000  0.5 -0.1200904674
C  C340  1  0.03223000  0.84280000  0.14540000  0.5 -0.1200904674
C  C341  1  0.15720000  0.96777000  0.85460000  0.5 -0.1200904674
C  C342  1  0.03223000  0.15720000  0.85460000  0.5 -0.1200904674
C  C343  1  0.84280000  0.03223000  0.85460000  0.5 -0.1200904674
C  C344  1  0.96777000  0.84280000  0.85460000  0.5 -0.1200904674
C  C345  1  0.65720000  0.53223000  0.64540000  0.5 -0.1200904674
C  C346  1  0.46777000  0.65720000  0.64540000  0.5 -0.1200904674
C  C347  1  0.34280000  0.46777000  0.64540000  0.5 -0.1200904674
C  C348  1  0.53223000  0.34280000  0.64540000  0.5 -0.1200904674
C  C349  1  0.65720000  0.46777000  0.35460000  0.5 -0.1200904674
C  C350  1  0.53223000  0.65720000  0.35460000  0.5 -0.1200904674
C  C351  1  0.34280000  0.53223000  0.35460000  0.5 -0.1200904674
C  C352  1  0.46777000  0.34280000  0.35460000  0.5 -0.1200904674
C  C353  1  0.84280000  0.96777000  0.85460000  0.5 -0.1200904674
C  C354  1  0.03223000  0.84280000  0.85460000  0.5 -0.1200904674
C  C355  1  0.15720000  0.03223000  0.85460000  0.5 -0.1200904674
C  C356  1  0.96777000  0.15720000  0.85460000  0.5 -0.1200904674
C  C357  1  0.84280000  0.03223000  0.14540000  0.5 -0.1200904674
C  C358  1  0.96777000  0.84280000  0.14540000  0.5 -0.1200904674
C  C359  1  0.15720000  0.96777000  0.14540000  0.5 -0.1200904674
C  C360  1  0.03223000  0.15720000  0.14540000  0.5 -0.1200904674
C  C361  1  0.34280000  0.46777000  0.35460000  0.5 -0.1200904674
C  C362  1  0.53223000  0.34280000  0.35460000  0.5 -0.1200904674
C  C363  1  0.65720000  0.53223000  0.35460000  0.5 -0.1200904674
C  C364  1  0.46777000  0.65720000  0.35460000  0.5 -0.1200904674
C  C365  1  0.34280000  0.53223000  0.64540000  0.5 -0.1200904674
C  C366  1  0.46777000  0.34280000  0.64540000  0.5 -0.1200904674
C  C367  1  0.65720000  0.46777000  0.64540000  0.5 -0.1200904674
C  C368  1  0.53223000  0.65720000  0.64540000  0.5 -0.1200904674
C  C369  1  0.21910000  0.03240000  0.26560000  0.5 -0.0563136174
C  C370  1  0.96760000  0.21910000  0.26560000  0.5 -0.0563136174
C  C371  1  0.78090000  0.96760000  0.26560000  0.5 -0.0563136174
C  C372  1  0.03240000  0.78090000  0.26560000  0.5 -0.0563136174
C  C373  1  0.21910000  0.96760000  0.73440000  0.5 -0.0563136174
C  C374  1  0.03240000  0.21910000  0.73440000  0.5 -0.0563136174
C  C375  1  0.78090000  0.03240000  0.73440000  0.5 -0.0563136174
C  C376  1  0.96760000  0.78090000  0.73440000  0.5 -0.0563136174
C  C377  1  0.71910000  0.53240000  0.76560000  0.5 -0.0563136174
C  C378  1  0.46760000  0.71910000  0.76560000  0.5 -0.0563136174
C  C379  1  0.28090000  0.46760000  0.76560000  0.5 -0.0563136174
C  C380  1  0.53240000  0.28090000  0.76560000  0.5 -0.0563136174
C  C381  1  0.71910000  0.46760000  0.23440000  0.5 -0.0563136174
C  C382  1  0.53240000  0.71910000  0.23440000  0.5 -0.0563136174
C  C383  1  0.28090000  0.53240000  0.23440000  0.5 -0.0563136174
C  C384  1  0.46760000  0.28090000  0.23440000  0.5 -0.0563136174
C  C385  1  0.78090000  0.96760000  0.73440000  0.5 -0.0563136174
C  C386  1  0.03240000  0.78090000  0.73440000  0.5 -0.0563136174
C  C387  1  0.21910000  0.03240000  0.73440000  0.5 -0.0563136174
C  C388  1  0.96760000  0.21910000  0.73440000  0.5 -0.0563136174
C  C389  1  0.78090000  0.03240000  0.26560000  0.5 -0.0563136174
C  C390  1  0.96760000  0.78090000  0.26560000  0.5 -0.0563136174
C  C391  1  0.21910000  0.96760000  0.26560000  0.5 -0.0563136174
C  C392  1  0.03240000  0.21910000  0.26560000  0.5 -0.0563136174
C  C393  1  0.28090000  0.46760000  0.23440000  0.5 -0.0563136174
C  C394  1  0.53240000  0.28090000  0.23440000  0.5 -0.0563136174
C  C395  1  0.71910000  0.53240000  0.23440000  0.5 -0.0563136174
C  C396  1  0.46760000  0.71910000  0.23440000  0.5 -0.0563136174
C  C397  1  0.28090000  0.53240000  0.76560000  0.5 -0.0563136174
C  C398  1  0.46760000  0.28090000  0.76560000  0.5 -0.0563136174
C  C399  1  0.71910000  0.46760000  0.76560000  0.5 -0.0563136174
C  C400  1  0.53240000  0.71910000  0.76560000  0.5 -0.0563136174
C  C401  1  0.28400000  0.03730000  0.21030000  0.5 0.0501665508
C  C402  1  0.96270000  0.28400000  0.21030000  0.5 0.0501665508
C  C403  1  0.71600000  0.96270000  0.21030000  0.5 0.0501665508
C  C404  1  0.03730000  0.71600000  0.21030000  0.5 0.0501665508
C  C405  1  0.28400000  0.96270000  0.78970000  0.5 0.0501665508
C  C406  1  0.03730000  0.28400000  0.78970000  0.5 0.0501665508
C  C407  1  0.71600000  0.03730000  0.78970000  0.5 0.0501665508
C  C408  1  0.96270000  0.71600000  0.78970000  0.5 0.0501665508
C  C409  1  0.78400000  0.53730000  0.71030000  0.5 0.0501665508
C  C410  1  0.46270000  0.78400000  0.71030000  0.5 0.0501665508
C  C411  1  0.21600000  0.46270000  0.71030000  0.5 0.0501665508
C  C412  1  0.53730000  0.21600000  0.71030000  0.5 0.0501665508
C  C413  1  0.78400000  0.46270000  0.28970000  0.5 0.0501665508
C  C414  1  0.53730000  0.78400000  0.28970000  0.5 0.0501665508
C  C415  1  0.21600000  0.53730000  0.28970000  0.5 0.0501665508
C  C416  1  0.46270000  0.21600000  0.28970000  0.5 0.0501665508
C  C417  1  0.71600000  0.96270000  0.78970000  0.5 0.0501665508
C  C418  1  0.03730000  0.71600000  0.78970000  0.5 0.0501665508
C  C419  1  0.28400000  0.03730000  0.78970000  0.5 0.0501665508
C  C420  1  0.96270000  0.28400000  0.78970000  0.5 0.0501665508
C  C421  1  0.71600000  0.03730000  0.21030000  0.5 0.0501665508
C  C422  1  0.96270000  0.71600000  0.21030000  0.5 0.0501665508
C  C423  1  0.28400000  0.96270000  0.21030000  0.5 0.0501665508
C  C424  1  0.03730000  0.28400000  0.21030000  0.5 0.0501665508
C  C425  1  0.21600000  0.46270000  0.28970000  0.5 0.0501665508
C  C426  1  0.53730000  0.21600000  0.28970000  0.5 0.0501665508
C  C427  1  0.78400000  0.53730000  0.28970000  0.5 0.0501665508
C  C428  1  0.46270000  0.78400000  0.28970000  0.5 0.0501665508
C  C429  1  0.21600000  0.53730000  0.71030000  0.5 0.0501665508
C  C430  1  0.46270000  0.21600000  0.71030000  0.5 0.0501665508
C  C431  1  0.78400000  0.46270000  0.71030000  0.5 0.0501665508
C  C432  1  0.53730000  0.78400000  0.71030000  0.5 0.0501665508
C  C433  1  0.32240000  0.06160000  0.18170000  0.5 -0.1536331466
C  C434  1  0.93840000  0.32240000  0.18170000  0.5 -0.1536331466
C  C435  1  0.67760000  0.93840000  0.18170000  0.5 -0.1536331466
C  C436  1  0.06160000  0.67760000  0.18170000  0.5 -0.1536331466
C  C437  1  0.32240000  0.93840000  0.81830000  0.5 -0.1536331466
C  C438  1  0.06160000  0.32240000  0.81830000  0.5 -0.1536331466
C  C439  1  0.67760000  0.06160000  0.81830000  0.5 -0.1536331466
C  C440  1  0.93840000  0.67760000  0.81830000  0.5 -0.1536331466
C  C441  1  0.82240000  0.56160000  0.68170000  0.5 -0.1571169183
C  C442  1  0.43840000  0.82240000  0.68170000  0.5 -0.1571169183
C  C443  1  0.17760000  0.43840000  0.68170000  0.5 -0.1571169183
C  C444  1  0.56160000  0.17760000  0.68170000  0.5 -0.1571169183
C  C445  1  0.82240000  0.43840000  0.31830000  0.5 -0.1571169183
C  C446  1  0.56160000  0.82240000  0.31830000  0.5 -0.1571169183
C  C447  1  0.17760000  0.56160000  0.31830000  0.5 -0.1571169183
C  C448  1  0.43840000  0.17760000  0.31830000  0.5 -0.1571169183
C  C449  1  0.67760000  0.93840000  0.81830000  0.5 -0.1536331466
C  C450  1  0.06160000  0.67760000  0.81830000  0.5 -0.1536331466
C  C451  1  0.32240000  0.06160000  0.81830000  0.5 -0.1536331466
C  C452  1  0.93840000  0.32240000  0.81830000  0.5 -0.1536331466
C  C453  1  0.67760000  0.06160000  0.18170000  0.5 -0.1536331466
C  C454  1  0.93840000  0.67760000  0.18170000  0.5 -0.1536331466
C  C455  1  0.32240000  0.93840000  0.18170000  0.5 -0.1536331466
C  C456  1  0.06160000  0.32240000  0.18170000  0.5 -0.1536331466
C  C457  1  0.17760000  0.43840000  0.31830000  0.5 -0.1571169183
C  C458  1  0.56160000  0.17760000  0.31830000  0.5 -0.1571169183
C  C459  1  0.82240000  0.56160000  0.31830000  0.5 -0.1571169183
C  C460  1  0.43840000  0.82240000  0.31830000  0.5 -0.1571169183
C  C461  1  0.17760000  0.56160000  0.68170000  0.5 -0.1571169183
C  C462  1  0.43840000  0.17760000  0.68170000  0.5 -0.1571169183
C  C463  1  0.82240000  0.43840000  0.68170000  0.5 -0.1571169183
C  C464  1  0.56160000  0.82240000  0.68170000  0.5 -0.1571169183
C  C465  1  0.34250000  0.03224000  0.14800000  0.5 -0.1018660917
C  C466  1  0.96776000  0.34250000  0.14800000  0.5 -0.1018660917
C  C467  1  0.65750000  0.96776000  0.14800000  0.5 -0.1018660917
C  C468  1  0.03224000  0.65750000  0.14800000  0.5 -0.1018660917
C  C469  1  0.34250000  0.96776000  0.85200000  0.5 -0.1018660917
C  C470  1  0.03224000  0.34250000  0.85200000  0.5 -0.1018660917
C  C471  1  0.65750000  0.03224000  0.85200000  0.5 -0.1018660917
C  C472  1  0.96776000  0.65750000  0.85200000  0.5 -0.1018660917
C  C473  1  0.84250000  0.53224000  0.64800000  0.5 -0.1018660917
C  C474  1  0.46776000  0.84250000  0.64800000  0.5 -0.1018660917
C  C475  1  0.15750000  0.46776000  0.64800000  0.5 -0.1018660917
C  C476  1  0.53224000  0.15750000  0.64800000  0.5 -0.1018660917
C  C477  1  0.84250000  0.46776000  0.35200000  0.5 -0.1018660917
C  C478  1  0.53224000  0.84250000  0.35200000  0.5 -0.1018660917
C  C479  1  0.15750000  0.53224000  0.35200000  0.5 -0.1018660917
C  C480  1  0.46776000  0.15750000  0.35200000  0.5 -0.1018660917
C  C481  1  0.65750000  0.96776000  0.85200000  0.5 -0.1018660917
C  C482  1  0.03224000  0.65750000  0.85200000  0.5 -0.1018660917
C  C483  1  0.34250000  0.03224000  0.85200000  0.5 -0.1018660917
C  C484  1  0.96776000  0.34250000  0.85200000  0.5 -0.1018660917
C  C485  1  0.65750000  0.03224000  0.14800000  0.5 -0.1018660917
C  C486  1  0.96776000  0.65750000  0.14800000  0.5 -0.1018660917
C  C487  1  0.34250000  0.96776000  0.14800000  0.5 -0.1018660917
C  C488  1  0.03224000  0.34250000  0.14800000  0.5 -0.1018660917
C  C489  1  0.15750000  0.46776000  0.35200000  0.5 -0.1018660917
C  C490  1  0.53224000  0.15750000  0.35200000  0.5 -0.1018660917
C  C491  1  0.84250000  0.53224000  0.35200000  0.5 -0.1018660917
C  C492  1  0.46776000  0.84250000  0.35200000  0.5 -0.1018660917
C  C493  1  0.15750000  0.53224000  0.64800000  0.5 -0.1018660917
C  C494  1  0.46776000  0.15750000  0.64800000  0.5 -0.1018660917
C  C495  1  0.84250000  0.46776000  0.64800000  0.5 -0.1018660917
C  C496  1  0.53224000  0.84250000  0.64800000  0.5 -0.1018660917
C  C497  1  0.17100000  0.24700000  0.46910000  0.5 -0.0363274139
C  C498  1  0.75300000  0.17100000  0.46910000  0.5 -0.0363274139
C  C499  1  0.82900000  0.75300000  0.46910000  0.5 -0.0363274139
C  C500  1  0.24700000  0.82900000  0.46910000  0.5 -0.0363274139
C  C501  1  0.17100000  0.75300000  0.53090000  0.5 -0.0363274139
C  C502  1  0.24700000  0.17100000  0.53090000  0.5 -0.0363274139
C  C503  1  0.82900000  0.24700000  0.53090000  0.5 -0.0363274139
C  C504  1  0.75300000  0.82900000  0.53090000  0.5 -0.0363274139
C  C505  1  0.67100000  0.74700000  0.96910000  0.5 -0.0363274139
C  C506  1  0.25300000  0.67100000  0.96910000  0.5 -0.0363274139
C  C507  1  0.32900000  0.25300000  0.96910000  0.5 -0.0363274139
C  C508  1  0.74700000  0.32900000  0.96910000  0.5 -0.0363274139
C  C509  1  0.67100000  0.25300000  0.03090000  0.5 -0.0349471709
C  C510  1  0.74700000  0.67100000  0.03090000  0.5 -0.0363274139
C  C511  1  0.32900000  0.74700000  0.03090000  0.5 -0.0363274139
C  C512  1  0.25300000  0.32900000  0.03090000  0.5 -0.0363274139
C  C513  1  0.82900000  0.75300000  0.53090000  0.5 -0.0363274139
C  C514  1  0.24700000  0.82900000  0.53090000  0.5 -0.0363274139
C  C515  1  0.17100000  0.24700000  0.53090000  0.5 -0.0363274139
C  C516  1  0.75300000  0.17100000  0.53090000  0.5 -0.0363274139
C  C517  1  0.82900000  0.24700000  0.46910000  0.5 -0.0363274139
C  C518  1  0.75300000  0.82900000  0.46910000  0.5 -0.0363274139
C  C519  1  0.17100000  0.75300000  0.46910000  0.5 -0.0363274139
C  C520  1  0.24700000  0.17100000  0.46910000  0.5 -0.0363274139
C  C521  1  0.32900000  0.25300000  0.03090000  0.5 -0.0363274139
C  C522  1  0.74700000  0.32900000  0.03090000  0.5 -0.0349471709
C  C523  1  0.67100000  0.74700000  0.03090000  0.5 -0.0363274139
C  C524  1  0.25300000  0.67100000  0.03090000  0.5 -0.0363274139
C  C525  1  0.32900000  0.74700000  0.96910000  0.5 -0.0363274139
C  C526  1  0.25300000  0.32900000  0.96910000  0.5 -0.0363274139
C  C527  1  0.67100000  0.25300000  0.96910000  0.5 -0.0363274139
C  C528  1  0.74700000  0.67100000  0.96910000  0.5 -0.0363274139
N  N1  1  0.11300000  0.27020000  0.48120000  0.25 -0.0810016742
N  N2  1  0.72980000  0.11300000  0.48120000  0.25 -0.0810016742
N  N3  1  0.88700000  0.72980000  0.48120000  0.25 -0.0810016742
N  N4  1  0.27020000  0.88700000  0.48120000  0.25 -0.0810016742
N  N5  1  0.11300000  0.72980000  0.51880000  0.25 -0.0810016742
N  N6  1  0.27020000  0.11300000  0.51880000  0.25 -0.0810016742
N  N7  1  0.88700000  0.27020000  0.51880000  0.25 -0.0810016742
N  N8  1  0.72980000  0.88700000  0.51880000  0.25 -0.0810016742
N  N9  1  0.61300000  0.77020000  0.98120000  0.25 -0.0810016742
N  N10  1  0.22980000  0.61300000  0.98120000  0.25 -0.0810016742
N  N11  1  0.38700000  0.22980000  0.98120000  0.25 -0.0810016742
N  N12  1  0.77020000  0.38700000  0.98120000  0.25 -0.0810016742
N  N13  1  0.61300000  0.22980000  0.01880000  0.25 -0.0810016742
N  N14  1  0.77020000  0.61300000  0.01880000  0.25 -0.0810016742
N  N15  1  0.38700000  0.77020000  0.01880000  0.25 -0.0810016742
N  N16  1  0.22980000  0.38700000  0.01880000  0.25 -0.0810016742
N  N17  1  0.88700000  0.72980000  0.51880000  0.25 -0.0810016742
N  N18  1  0.27020000  0.88700000  0.51880000  0.25 -0.0810016742
N  N19  1  0.11300000  0.27020000  0.51880000  0.25 -0.0810016742
N  N20  1  0.72980000  0.11300000  0.51880000  0.25 -0.0810016742
N  N21  1  0.88700000  0.27020000  0.48120000  0.25 -0.0810016742
N  N22  1  0.72980000  0.88700000  0.48120000  0.25 -0.0810016742
N  N23  1  0.11300000  0.72980000  0.48120000  0.25 -0.0810016742
N  N24  1  0.27020000  0.11300000  0.48120000  0.25 -0.0810016742
N  N25  1  0.38700000  0.22980000  0.01880000  0.25 -0.0810016742
N  N26  1  0.77020000  0.38700000  0.01880000  0.25 -0.0810016742
N  N27  1  0.61300000  0.77020000  0.01880000  0.25 -0.0810016742
N  N28  1  0.22980000  0.61300000  0.01880000  0.25 -0.0810016742
N  N29  1  0.38700000  0.77020000  0.98120000  0.25 -0.0810016742
N  N30  1  0.22980000  0.38700000  0.98120000  0.25 -0.0810016742
N  N31  1  0.61300000  0.22980000  0.98120000  0.25 -0.0810016742
N  N32  1  0.77020000  0.61300000  0.98120000  0.25 -0.0810016742
N  N33  1  0.11070000  0.23020000  0.48080000  0.25 -0.0878026907
N  N34  1  0.76980000  0.11070000  0.48080000  0.25 -0.0878026907
N  N35  1  0.88930000  0.76980000  0.48080000  0.25 -0.0878026907
N  N36  1  0.23020000  0.88930000  0.48080000  0.25 -0.0878026907
N  N37  1  0.11070000  0.76980000  0.51920000  0.25 -0.0878026907
N  N38  1  0.23020000  0.11070000  0.51920000  0.25 -0.0878026907
N  N39  1  0.88930000  0.23020000  0.51920000  0.25 -0.0878026907
N  N40  1  0.76980000  0.88930000  0.51920000  0.25 -0.0878026907
N  N41  1  0.61070000  0.73020000  0.98080000  0.25 -0.0878026907
N  N42  1  0.26980000  0.61070000  0.98080000  0.25 -0.0878026907
N  N43  1  0.38930000  0.26980000  0.98080000  0.25 -0.0878026907
N  N44  1  0.73020000  0.38930000  0.98080000  0.25 -0.0878026907
N  N45  1  0.61070000  0.26980000  0.01920000  0.25 -0.0878026907
N  N46  1  0.73020000  0.61070000  0.01920000  0.25 -0.0878026907
N  N47  1  0.38930000  0.73020000  0.01920000  0.25 -0.0878026907
N  N48  1  0.26980000  0.38930000  0.01920000  0.25 -0.0878026907
N  N49  1  0.88930000  0.76980000  0.51920000  0.25 -0.0878026907
N  N50  1  0.23020000  0.88930000  0.51920000  0.25 -0.0878026907
N  N51  1  0.11070000  0.23020000  0.51920000  0.25 -0.0878026907
N  N52  1  0.76980000  0.11070000  0.51920000  0.25 -0.0878026907
N  N53  1  0.88930000  0.23020000  0.48080000  0.25 -0.0878026907
N  N54  1  0.76980000  0.88930000  0.48080000  0.25 -0.0878026907
N  N55  1  0.11070000  0.76980000  0.48080000  0.25 -0.0878026907
N  N56  1  0.23020000  0.11070000  0.48080000  0.25 -0.0878026907
N  N57  1  0.38930000  0.26980000  0.01920000  0.25 -0.0878026907
N  N58  1  0.73020000  0.38930000  0.01920000  0.25 -0.0878026907
N  N59  1  0.61070000  0.73020000  0.01920000  0.25 -0.0878026907
N  N60  1  0.26980000  0.61070000  0.01920000  0.25 -0.0878026907
N  N61  1  0.38930000  0.73020000  0.98080000  0.25 -0.0878026907
N  N62  1  0.26980000  0.38930000  0.98080000  0.25 -0.0878026907
N  N63  1  0.61070000  0.26980000  0.98080000  0.25 -0.0878026907
N  N64  1  0.73020000  0.61070000  0.98080000  0.25 -0.0878026907
N  N65  1  0.22190000  0.24760000  0.34920000  0.5 0.0752844242
N  N66  1  0.75240000  0.22190000  0.34920000  0.5 0.0752844242
N  N67  1  0.77810000  0.75240000  0.34920000  0.5 0.0752844242
N  N68  1  0.24760000  0.77810000  0.34920000  0.5 0.0752844242
N  N69  1  0.22190000  0.75240000  0.65080000  0.5 0.0752844242
N  N70  1  0.24760000  0.22190000  0.65080000  0.5 0.0709231523
N  N71  1  0.77810000  0.24760000  0.65080000  0.5 0.0709231523
N  N72  1  0.75240000  0.77810000  0.65080000  0.5 0.0709231523
N  N73  1  0.72190000  0.74760000  0.84920000  0.5 0.0709231523
N  N74  1  0.25240000  0.72190000  0.84920000  0.5 0.0709231523
N  N75  1  0.27810000  0.25240000  0.84920000  0.5 0.0709231523
N  N76  1  0.74760000  0.27810000  0.84920000  0.5 0.0709231523
N  N77  1  0.72190000  0.25240000  0.15080000  0.5 0.0709231523
N  N78  1  0.74760000  0.72190000  0.15080000  0.5 0.0752844242
N  N79  1  0.27810000  0.74760000  0.15080000  0.5 0.0752844242
N  N80  1  0.25240000  0.27810000  0.15080000  0.5 0.0752844242
N  N81  1  0.77810000  0.75240000  0.65080000  0.5 0.0709231523
N  N82  1  0.24760000  0.77810000  0.65080000  0.5 0.0752844242
N  N83  1  0.22190000  0.24760000  0.65080000  0.5 0.0709231523
N  N84  1  0.75240000  0.22190000  0.65080000  0.5 0.0709231523
N  N85  1  0.77810000  0.24760000  0.34920000  0.5 0.0752844242
N  N86  1  0.75240000  0.77810000  0.34920000  0.5 0.0752844242
N  N87  1  0.22190000  0.75240000  0.34920000  0.5 0.0752844242
N  N88  1  0.24760000  0.22190000  0.34920000  0.5 0.0752844242
N  N89  1  0.27810000  0.25240000  0.15080000  0.5 0.0752844242
N  N90  1  0.74760000  0.27810000  0.15080000  0.5 0.0709231523
N  N91  1  0.72190000  0.74760000  0.15080000  0.5 0.0752844242
N  N92  1  0.25240000  0.72190000  0.15080000  0.5 0.0752844242
N  N93  1  0.27810000  0.74760000  0.84920000  0.5 0.0709231523
N  N94  1  0.25240000  0.27810000  0.84920000  0.5 0.0709231523
N  N95  1  0.72190000  0.25240000  0.84920000  0.5 0.0709231523
N  N96  1  0.74760000  0.72190000  0.84920000  0.5 0.0709231523
O  O1  1  0.24782000  0.15620000  0.27393000  1.0 -0.5111847585
O  O2  1  0.84380000  0.24782000  0.27393000  1.0 -0.5111847585
O  O3  1  0.75218000  0.84380000  0.27393000  1.0 -0.5111847585
O  O4  1  0.15620000  0.75218000  0.27393000  1.0 -0.5111847585
O  O5  1  0.24782000  0.84380000  0.72607000  1.0 -0.5111847585
O  O6  1  0.15620000  0.24782000  0.72607000  1.0 -0.5111847585
O  O7  1  0.75218000  0.15620000  0.72607000  1.0 -0.5111847585
O  O8  1  0.84380000  0.75218000  0.72607000  1.0 -0.5111847585
O  O9  1  0.74782000  0.65620000  0.77393000  1.0 -0.5111847585
O  O10  1  0.34380000  0.74782000  0.77393000  1.0 -0.5111847585
O  O11  1  0.25218000  0.34380000  0.77393000  1.0 -0.5111847585
O  O12  1  0.65620000  0.25218000  0.77393000  1.0 -0.5111847585
O  O13  1  0.74782000  0.34380000  0.22607000  1.0 -0.5111847585
O  O14  1  0.65620000  0.74782000  0.22607000  1.0 -0.5111847585
O  O15  1  0.25218000  0.65620000  0.22607000  1.0 -0.5111847585
O  O16  1  0.34380000  0.25218000  0.22607000  1.0 -0.5111847585
O  O17  1  0.75218000  0.84380000  0.72607000  1.0 -0.5111847585
O  O18  1  0.15620000  0.75218000  0.72607000  1.0 -0.5111847585
O  O19  1  0.24782000  0.15620000  0.72607000  1.0 -0.5111847585
O  O20  1  0.84380000  0.24782000  0.72607000  1.0 -0.5111847585
O  O21  1  0.75218000  0.15620000  0.27393000  1.0 -0.5111847585
O  O22  1  0.84380000  0.75218000  0.27393000  1.0 -0.5111847585
O  O23  1  0.24782000  0.84380000  0.27393000  1.0 -0.5111847585
O  O24  1  0.15620000  0.24782000  0.27393000  1.0 -0.5111847585
O  O25  1  0.25218000  0.34380000  0.22607000  1.0 -0.5111847585
O  O26  1  0.65620000  0.25218000  0.22607000  1.0 -0.5111847585
O  O27  1  0.74782000  0.65620000  0.22607000  1.0 -0.5111847585
O  O28  1  0.34380000  0.74782000  0.22607000  1.0 -0.5111847585
O  O29  1  0.25218000  0.65620000  0.77393000  1.0 -0.5111847585
O  O30  1  0.34380000  0.25218000  0.77393000  1.0 -0.5111847585
O  O31  1  0.74782000  0.34380000  0.77393000  1.0 -0.5111847585
O  O32  1  0.65620000  0.74782000  0.77393000  1.0 -0.5111847585
O  O33  1  0.25239000  0.16260000  0.21031000  1.0 -0.5498831189
O  O34  1  0.83740000  0.25239000  0.21031000  1.0 -0.5498831189
O  O35  1  0.74761000  0.83740000  0.21031000  1.0 -0.5498831189
O  O36  1  0.16260000  0.74761000  0.21031000  1.0 -0.5498831189
O  O37  1  0.25239000  0.83740000  0.78969000  1.0 -0.5498831189
O  O38  1  0.16260000  0.25239000  0.78969000  1.0 -0.5498831189
O  O39  1  0.74761000  0.16260000  0.78969000  1.0 -0.5498831189
O  O40  1  0.83740000  0.74761000  0.78969000  1.0 -0.5498831189
O  O41  1  0.75239000  0.66260000  0.71031000  1.0 -0.5498831189
O  O42  1  0.33740000  0.75239000  0.71031000  1.0 -0.5498831189
O  O43  1  0.24761000  0.33740000  0.71031000  1.0 -0.5498831189
O  O44  1  0.66260000  0.24761000  0.71031000  1.0 -0.5498831189
O  O45  1  0.75239000  0.33740000  0.28969000  1.0 -0.5498831189
O  O46  1  0.66260000  0.75239000  0.28969000  1.0 -0.5498831189
O  O47  1  0.24761000  0.66260000  0.28969000  1.0 -0.5498831189
O  O48  1  0.33740000  0.24761000  0.28969000  1.0 -0.5498831189
O  O49  1  0.74761000  0.83740000  0.78969000  1.0 -0.5498831189
O  O50  1  0.16260000  0.74761000  0.78969000  1.0 -0.5498831189
O  O51  1  0.25239000  0.16260000  0.78969000  1.0 -0.5498831189
O  O52  1  0.83740000  0.25239000  0.78969000  1.0 -0.5498831189
O  O53  1  0.74761000  0.16260000  0.21031000  1.0 -0.5498831189
O  O54  1  0.83740000  0.74761000  0.21031000  1.0 -0.5498831189
O  O55  1  0.25239000  0.83740000  0.21031000  1.0 -0.5498831189
O  O56  1  0.16260000  0.25239000  0.21031000  1.0 -0.5498831189
O  O57  1  0.24761000  0.33740000  0.28969000  1.0 -0.5498831189
O  O58  1  0.66260000  0.24761000  0.28969000  1.0 -0.5498831189
O  O59  1  0.75239000  0.66260000  0.28969000  1.0 -0.5498831189
O  O60  1  0.33740000  0.75239000  0.28969000  1.0 -0.5498831189
O  O61  1  0.24761000  0.66260000  0.71031000  1.0 -0.5498831189
O  O62  1  0.33740000  0.24761000  0.71031000  1.0 -0.5498831189
O  O63  1  0.75239000  0.33740000  0.71031000  1.0 -0.5498831189
O  O64  1  0.66260000  0.75239000  0.71031000  1.0 -0.5498831189
