# DDEC6 charges by PACMAN v1.1 (https://github.com/mtap-research/PACMAN-charge/)
data_oc7b00169_si_003_6_FSR_pacman
_symmetry_space_group_name_H-M   'P 1'
_cell_length_a   19.12300000
_cell_length_b   19.12300000
_cell_length_c   36.64800000
_cell_angle_alpha   90.00000000
_cell_angle_beta   90.00000000
_cell_angle_gamma   90.00000000
_symmetry_Int_Tables_number   1
_chemical_formula_structural   Al2H21(C17O5)2
_chemical_formula_sum   'Al16 H168 C272 O80'
_cell_volume   13401.77519959
_cell_formula_units_Z   8
loop_
 _symmetry_equiv_pos_site_id
 _symmetry_equiv_pos_as_xyz
  1  'x, y, z'
loop_
 _atom_site_type_symbol
 _atom_site_label
 _atom_site_symmetry_multiplicity
 _atom_site_fract_x
 _atom_site_fract_y
 _atom_site_fract_z
 _atom_site_occupancy
 _atom_site_charge
Al  Al1  1  0.66395000  0.33605000  0.50000000  1.0 1.6500571981
Al  Al2  1  0.16395000  0.16395000  0.00000000  1.0 1.6500571981
Al  Al3  1  0.33605000  0.66395000  0.50000000  1.0 1.6500571981
Al  Al4  1  0.83605000  0.83605000  0.00000000  1.0 1.6500571981
Al  Al5  1  0.61963000  0.39078000  0.41693000  1.0 1.6500571981
Al  Al6  1  0.10922000  0.11963000  0.91693000  1.0 1.6500571981
Al  Al7  1  0.38037000  0.60922000  0.41693000  1.0 1.6500571981
Al  Al8  1  0.89078000  0.88037000  0.91693000  1.0 1.6500571981
Al  Al9  1  0.11963000  0.10922000  0.08307000  1.0 1.6500571981
Al  Al10  1  0.88037000  0.89078000  0.08307000  1.0 1.6500571981
Al  Al11  1  0.39078000  0.61963000  0.58307000  1.0 1.6500571981
Al  Al12  1  0.60922000  0.38037000  0.58307000  1.0 1.6500571981
Al  Al13  1  0.50000000  0.50000000  0.38478000  1.0 1.6500571981
Al  Al14  1  0.00000000  0.00000000  0.88478000  1.0 1.6500571981
Al  Al15  1  0.00000000  0.00000000  0.11522000  1.0 1.6500571981
Al  Al16  1  0.50000000  0.50000000  0.61522000  1.0 1.6500571981
H  H1  1  0.57570000  0.50290000  0.43700000  1.0 0.4228492524
H  H2  1  0.99710000  0.07570000  0.93700000  1.0 0.4228492524
H  H3  1  0.42430000  0.49710000  0.43700000  1.0 0.4228492524
H  H4  1  0.00290000  0.92430000  0.93700000  1.0 0.4228492524
H  H5  1  0.07570000  0.99710000  0.06300000  1.0 0.4228492524
H  H6  1  0.92430000  0.00290000  0.06300000  1.0 0.4228492524
H  H7  1  0.50290000  0.57570000  0.56300000  1.0 0.4228492524
H  H8  1  0.49710000  0.42430000  0.56300000  1.0 0.4228492524
H  H9  1  0.55570000  0.37070000  0.47250000  1.0 0.4228492524
H  H10  1  0.12930000  0.05570000  0.97250000  1.0 0.4228492524
H  H11  1  0.44430000  0.62930000  0.47250000  1.0 0.4228492524
H  H12  1  0.87070000  0.94430000  0.97250000  1.0 0.4228492524
H  H13  1  0.05570000  0.12930000  0.02750000  1.0 0.4228492524
H  H14  1  0.94430000  0.87070000  0.02750000  1.0 0.4228492524
H  H15  1  0.37070000  0.55570000  0.52750000  1.0 0.4228492524
H  H16  1  0.62930000  0.44430000  0.52750000  1.0 0.4228492524
H  H17  1  0.77110000  0.62990000  0.16580000  1.0 0.1177938808
H  H18  1  0.87010000  0.27110000  0.66580000  1.0 0.1177938808
H  H19  1  0.22890000  0.37010000  0.16580000  1.0 0.1177938808
H  H20  1  0.12990000  0.72890000  0.66580000  1.0 0.1177938808
H  H21  1  0.27110000  0.87010000  0.33420000  1.0 0.1177938808
H  H22  1  0.72890000  0.12990000  0.33420000  1.0 0.1177938808
H  H23  1  0.62990000  0.77110000  0.83420000  1.0 0.1177938808
H  H24  1  0.37010000  0.22890000  0.83420000  1.0 0.1177938808
H  H25  1  0.76990000  0.63170000  0.04230000  1.0 0.1306978176
H  H26  1  0.86830000  0.26990000  0.54230000  1.0 0.1306978176
H  H27  1  0.23010000  0.36830000  0.04230000  1.0 0.1306978176
H  H28  1  0.13170000  0.73010000  0.54230000  1.0 0.1306978176
H  H29  1  0.26990000  0.86830000  0.45770000  1.0 0.1306978176
H  H30  1  0.73010000  0.13170000  0.45770000  1.0 0.1306978176
H  H31  1  0.63170000  0.76990000  0.95770000  1.0 0.1306978176
H  H32  1  0.36830000  0.23010000  0.95770000  1.0 0.1306978176
H  H33  1  0.79130000  0.73410000  0.13640000  1.0 0.135622339
H  H34  1  0.76590000  0.29130000  0.63640000  1.0 0.135622339
H  H35  1  0.20870000  0.26590000  0.13640000  1.0 0.135622339
H  H36  1  0.23410000  0.70870000  0.63640000  1.0 0.135622339
H  H37  1  0.29130000  0.76590000  0.36360000  1.0 0.135622339
H  H38  1  0.70870000  0.23410000  0.36360000  1.0 0.135622339
H  H39  1  0.73410000  0.79130000  0.86360000  1.0 0.135622339
H  H40  1  0.26590000  0.20870000  0.86360000  1.0 0.135622339
H  H41  1  0.76190000  0.52990000  0.07300000  1.0 0.1177938808
H  H42  1  0.97010000  0.26190000  0.57300000  1.0 0.1177938808
H  H43  1  0.23810000  0.47010000  0.07300000  1.0 0.1177938808
H  H44  1  0.02990000  0.73810000  0.57300000  1.0 0.1177938808
H  H45  1  0.26190000  0.97010000  0.42700000  1.0 0.1177938808
H  H46  1  0.73810000  0.02990000  0.42700000  1.0 0.1177938808
H  H47  1  0.52990000  0.76190000  0.92700000  1.0 0.1177938808
H  H48  1  0.47010000  0.23810000  0.92700000  1.0 0.1177938808
H  H49  1  0.57620000  0.49830000  0.28010000  1.0 0.1306978176
H  H50  1  0.00170000  0.07620000  0.78010000  1.0 0.1306978176
H  H51  1  0.42380000  0.50170000  0.28010000  1.0 0.1306978176
H  H52  1  0.99830000  0.92380000  0.78010000  1.0 0.1306978176
H  H53  1  0.07620000  0.00170000  0.21990000  1.0 0.1306978176
H  H54  1  0.92380000  0.99830000  0.21990000  1.0 0.1306978176
H  H55  1  0.49830000  0.57620000  0.71990000  1.0 0.1306978176
H  H56  1  0.50170000  0.42380000  0.71990000  1.0 0.1306978176
H  H57  1  0.85380000  0.15640000  0.14320000  1.0 0.135622339
H  H58  1  0.34360000  0.35380000  0.64320000  1.0 0.135622339
H  H59  1  0.14620000  0.84360000  0.14320000  1.0 0.135622339
H  H60  1  0.65640000  0.64620000  0.64320000  1.0 0.135622339
H  H61  1  0.35380000  0.34360000  0.35680000  1.0 0.135622339
H  H62  1  0.64620000  0.65640000  0.35680000  1.0 0.135622339
H  H63  1  0.15640000  0.85380000  0.85680000  1.0 0.135622339
H  H64  1  0.84360000  0.14620000  0.85680000  1.0 0.135622339
H  H65  1  0.99850000  0.28770000  0.10130000  1.0 0.1177938808
H  H66  1  0.21230000  0.49850000  0.60130000  1.0 0.1177938808
H  H67  1  0.00150000  0.71230000  0.10130000  1.0 0.1177938808
H  H68  1  0.78770000  0.50150000  0.60130000  1.0 0.1177938808
H  H69  1  0.49850000  0.21230000  0.39870000  1.0 0.1177938808
H  H70  1  0.50150000  0.78770000  0.39870000  1.0 0.1177938808
H  H71  1  0.28770000  0.99850000  0.89870000  1.0 0.1177938808
H  H72  1  0.71230000  0.00150000  0.89870000  1.0 0.1177938808
H  H73  1  0.71890000  0.36230000  0.31500000  1.0 0.1306978176
H  H74  1  0.13770000  0.21890000  0.81500000  1.0 0.1306978176
H  H75  1  0.28110000  0.63770000  0.31500000  1.0 0.1306978176
H  H76  1  0.86230000  0.78110000  0.81500000  1.0 0.1306978176
H  H77  1  0.21890000  0.13770000  0.18500000  1.0 0.1306978176
H  H78  1  0.78110000  0.86230000  0.18500000  1.0 0.1306978176
H  H79  1  0.36230000  0.71890000  0.68500000  1.0 0.1306978176
H  H80  1  0.63770000  0.28110000  0.68500000  1.0 0.1306978176
H  H81  1  0.77100000  0.37000000  0.25850000  1.0 0.1109582478
H  H82  1  0.13000000  0.27100000  0.75850000  1.0 0.1109582478
H  H83  1  0.22900000  0.63000000  0.25850000  1.0 0.1109582478
H  H84  1  0.87000000  0.72900000  0.75850000  1.0 0.1109582478
H  H85  1  0.27100000  0.13000000  0.24150000  1.0 0.1109582478
H  H86  1  0.72900000  0.87000000  0.24150000  1.0 0.1109582478
H  H87  1  0.37000000  0.77100000  0.74150000  1.0 0.1109582478
H  H88  1  0.63000000  0.22900000  0.74150000  1.0 0.1109582478
H  H89  1  0.62570000  0.50270000  0.22580000  1.0 0.1177938808
H  H90  1  0.99730000  0.12570000  0.72580000  1.0 0.1177938808
H  H91  1  0.37430000  0.49730000  0.22580000  1.0 0.1177938808
H  H92  1  0.00270000  0.87430000  0.72580000  1.0 0.1177938808
H  H93  1  0.12570000  0.99730000  0.27420000  1.0 0.1177938808
H  H94  1  0.87430000  0.00270000  0.27420000  1.0 0.1177938808
H  H95  1  0.50270000  0.62570000  0.77420000  1.0 0.1177938808
H  H96  1  0.49730000  0.37430000  0.77420000  1.0 0.1177938808
H  H97  1  0.72020000  0.54000000  0.18640000  1.0 0.1109582478
H  H98  1  0.96000000  0.22020000  0.68640000  1.0 0.1109582478
H  H99  1  0.27980000  0.46000000  0.18640000  1.0 0.1109582478
H  H100  1  0.04000000  0.77980000  0.68640000  1.0 0.1109582478
H  H101  1  0.22020000  0.96000000  0.31360000  1.0 0.1109582478
H  H102  1  0.77980000  0.04000000  0.31360000  1.0 0.1109582478
H  H103  1  0.54000000  0.72020000  0.81360000  1.0 0.1109582478
H  H104  1  0.46000000  0.27980000  0.81360000  1.0 0.1109582478
H  H105  1  0.93370000  0.37950000  0.11980000  1.0 0.1177938808
H  H106  1  0.12050000  0.43370000  0.61980000  1.0 0.1177938808
H  H107  1  0.06630000  0.62050000  0.11980000  1.0 0.1177938808
H  H108  1  0.87950000  0.56630000  0.61980000  1.0 0.1177938808
H  H109  1  0.43370000  0.12050000  0.38020000  1.0 0.1177938808
H  H110  1  0.56630000  0.87950000  0.38020000  1.0 0.1177938808
H  H111  1  0.37950000  0.93370000  0.88020000  1.0 0.1177938808
H  H112  1  0.62050000  0.06630000  0.88020000  1.0 0.1177938808
H  H113  1  0.78730000  0.24100000  0.15630000  1.0 0.1177938808
H  H114  1  0.25900000  0.28730000  0.65630000  1.0 0.1177938808
H  H115  1  0.21270000  0.75900000  0.15630000  1.0 0.1177938808
H  H116  1  0.74100000  0.71270000  0.65630000  1.0 0.1177938808
H  H117  1  0.28730000  0.25900000  0.34370000  1.0 0.1177938808
H  H118  1  0.71270000  0.74100000  0.34370000  1.0 0.1177938808
H  H119  1  0.24100000  0.78730000  0.84370000  1.0 0.1177938808
H  H120  1  0.75900000  0.21270000  0.84370000  1.0 0.1177938808
H  H121  1  0.82670000  0.44750000  0.10870000  1.0 0.1177938808
H  H122  1  0.05250000  0.32670000  0.60870000  1.0 0.1177938808
H  H123  1  0.17330000  0.55250000  0.10870000  1.0 0.1177938808
H  H124  1  0.94750000  0.67330000  0.60870000  1.0 0.1177938808
H  H125  1  0.32670000  0.05250000  0.39130000  1.0 0.1177938808
H  H126  1  0.67330000  0.94750000  0.39130000  1.0 0.1177938808
H  H127  1  0.44750000  0.82670000  0.89130000  1.0 0.1177938808
H  H128  1  0.55250000  0.17330000  0.89130000  1.0 0.1177938808
H  H129  1  0.77340000  0.33890000  0.19990000  1.0 0.1109582478
H  H130  1  0.16110000  0.27340000  0.69990000  1.0 0.1109582478
H  H131  1  0.22660000  0.66110000  0.19990000  1.0 0.1109582478
H  H132  1  0.83890000  0.72660000  0.69990000  1.0 0.1109582478
H  H133  1  0.27340000  0.16110000  0.30010000  1.0 0.1109582478
H  H134  1  0.72660000  0.83890000  0.30010000  1.0 0.1109582478
H  H135  1  0.33890000  0.77340000  0.80010000  1.0 0.1109582478
H  H136  1  0.66110000  0.22660000  0.80010000  1.0 0.1109582478
H  H137  1  0.82070000  0.48370000  0.39960000  1.0 0.135622339
H  H138  1  0.01630000  0.32070000  0.89960000  1.0 0.135622339
H  H139  1  0.17930000  0.51630000  0.39960000  1.0 0.135622339
H  H140  1  0.98370000  0.67930000  0.89960000  1.0 0.135622339
H  H141  1  0.32070000  0.01630000  0.10040000  1.0 0.135622339
H  H142  1  0.67930000  0.98370000  0.10040000  1.0 0.135622339
H  H143  1  0.48370000  0.82070000  0.60040000  1.0 0.135622339
H  H144  1  0.51630000  0.17930000  0.60040000  1.0 0.135622339
H  H145  1  0.93930000  0.51150000  0.39590000  1.0 0.1177938808
H  H146  1  0.98850000  0.43930000  0.89590000  1.0 0.1177938808
H  H147  1  0.06070000  0.48850000  0.39590000  1.0 0.1177938808
H  H148  1  0.01150000  0.56070000  0.89590000  1.0 0.1177938808
H  H149  1  0.43930000  0.98850000  0.10410000  1.0 0.1177938808
H  H150  1  0.56070000  0.01150000  0.10410000  1.0 0.1177938808
H  H151  1  0.51150000  0.93930000  0.60410000  1.0 0.1177938808
H  H152  1  0.48850000  0.06070000  0.60410000  1.0 0.1177938808
H  H153  1  0.84740000  0.41910000  0.50000000  1.0 0.1306978176
H  H154  1  0.08090000  0.34740000  0.00000000  1.0 0.1306978176
H  H155  1  0.15260000  0.58090000  0.50000000  1.0 0.1306978176
H  H156  1  0.91910000  0.65260000  0.00000000  1.0 0.1306978176
H  H157  1  0.34740000  0.08090000  0.00000000  1.0 0.1306978176
H  H158  1  0.65260000  0.91910000  0.00000000  1.0 0.1306978176
H  H159  1  0.41910000  0.84740000  0.50000000  1.0 0.1306978176
H  H160  1  0.58090000  0.15260000  0.50000000  1.0 0.1306978176
H  H161  1  0.96630000  0.44940000  0.49740000  1.0 0.1109582478
H  H162  1  0.05060000  0.46630000  0.99740000  1.0 0.1109582478
H  H163  1  0.03370000  0.55060000  0.49740000  1.0 0.1109582478
H  H164  1  0.94940000  0.53370000  0.99740000  1.0 0.1109582478
H  H165  1  0.46630000  0.05060000  0.00260000  1.0 0.1109582478
H  H166  1  0.53370000  0.94940000  0.00260000  1.0 0.1109582478
H  H167  1  0.44940000  0.96630000  0.50260000  1.0 0.1109582478
H  H168  1  0.55060000  0.03370000  0.50260000  1.0 0.1109582478
C  C1  1  0.61490000  0.44100000  0.34147000  1.0 0.6313850596
C  C2  1  0.05900000  0.11490000  0.84147000  1.0 0.6313850596
C  C3  1  0.38510000  0.55900000  0.34147000  1.0 0.6313850596
C  C4  1  0.94100000  0.88510000  0.84147000  1.0 0.6313850596
C  C5  1  0.11490000  0.05900000  0.15853000  1.0 0.6313850596
C  C6  1  0.88510000  0.94100000  0.15853000  1.0 0.6313850596
C  C7  1  0.44100000  0.61490000  0.65853000  1.0 0.6313850596
C  C8  1  0.55900000  0.38510000  0.65853000  1.0 0.6313850596
C  C9  1  0.77420000  0.63000000  0.14047000  1.0 -0.1619873641
C  C10  1  0.87000000  0.27420000  0.64047000  1.0 -0.1619873641
C  C11  1  0.22580000  0.37000000  0.14047000  1.0 -0.1619873641
C  C12  1  0.13000000  0.72580000  0.64047000  1.0 -0.1619873641
C  C13  1  0.27420000  0.87000000  0.35953000  1.0 -0.1619873641
C  C14  1  0.72580000  0.13000000  0.35953000  1.0 -0.1619873641
C  C15  1  0.63000000  0.77420000  0.85953000  1.0 -0.1619873641
C  C16  1  0.37000000  0.22580000  0.85953000  1.0 -0.1619873641
C  C17  1  0.77390000  0.63180000  0.06762000  1.0 -0.1010805394
C  C18  1  0.86820000  0.27390000  0.56762000  1.0 -0.1010805394
C  C19  1  0.22610000  0.36820000  0.06762000  1.0 -0.1010805394
C  C20  1  0.13180000  0.72610000  0.56762000  1.0 -0.1010805394
C  C21  1  0.27390000  0.86820000  0.43238000  1.0 -0.1010805394
C  C22  1  0.72610000  0.13180000  0.43238000  1.0 -0.1010805394
C  C23  1  0.63180000  0.77390000  0.93238000  1.0 -0.1010805394
C  C24  1  0.36820000  0.22610000  0.93238000  1.0 -0.1010805394
C  C25  1  0.98020000  0.15250000  0.11078000  1.0 0.582189323
C  C26  1  0.34750000  0.48020000  0.61078000  1.0 0.582189323
C  C27  1  0.01980000  0.84750000  0.11078000  1.0 0.582189323
C  C28  1  0.65250000  0.51980000  0.61078000  1.0 0.582189323
C  C29  1  0.48020000  0.34750000  0.38922000  1.0 0.582189323
C  C30  1  0.51980000  0.65250000  0.38922000  1.0 0.582189323
C  C31  1  0.15250000  0.98020000  0.88922000  1.0 0.582189323
C  C32  1  0.84750000  0.01980000  0.88922000  1.0 0.582189323
C  C33  1  0.78510000  0.69300000  0.12320000  1.0 -0.1010805394
C  C34  1  0.80700000  0.28510000  0.62320000  1.0 -0.1010805394
C  C35  1  0.21490000  0.30700000  0.12320000  1.0 -0.1010805394
C  C36  1  0.19300000  0.71490000  0.62320000  1.0 -0.1010805394
C  C37  1  0.28510000  0.80700000  0.37680000  1.0 -0.1010805394
C  C38  1  0.71490000  0.19300000  0.37680000  1.0 -0.1010805394
C  C39  1  0.69300000  0.78510000  0.87680000  1.0 -0.1010805394
C  C40  1  0.30700000  0.21490000  0.87680000  1.0 -0.1010805394
C  C41  1  0.76720000  0.57100000  0.08628000  1.0 -0.1478549252
C  C42  1  0.92900000  0.26720000  0.58628000  1.0 -0.1478549252
C  C43  1  0.23280000  0.42900000  0.08628000  1.0 -0.1478549252
C  C44  1  0.07100000  0.73280000  0.58628000  1.0 -0.1478549252
C  C45  1  0.26720000  0.92900000  0.41372000  1.0 -0.1478549252
C  C46  1  0.73280000  0.07100000  0.41372000  1.0 -0.1478549252
C  C47  1  0.57100000  0.76720000  0.91372000  1.0 -0.1478549252
C  C48  1  0.42900000  0.23280000  0.91372000  1.0 -0.1478549252
C  C49  1  0.78640000  0.69280000  0.08533000  1.0 -0.0342851248
C  C50  1  0.80720000  0.28640000  0.58533000  1.0 -0.0342851248
C  C51  1  0.21360000  0.30720000  0.08533000  1.0 -0.0342851248
C  C52  1  0.19280000  0.71360000  0.58533000  1.0 -0.0342851248
C  C53  1  0.28640000  0.80720000  0.41467000  1.0 -0.0342851248
C  C54  1  0.71360000  0.19280000  0.41467000  1.0 -0.0342851248
C  C55  1  0.69280000  0.78640000  0.91467000  1.0 -0.0342851248
C  C56  1  0.30720000  0.21360000  0.91467000  1.0 -0.0342851248
C  C57  1  0.80620000  0.76170000  0.06780000  1.0 0.6233666852
C  C58  1  0.73830000  0.30620000  0.56780000  1.0 0.6233666852
C  C59  1  0.19380000  0.23830000  0.06780000  1.0 0.6233666852
C  C60  1  0.26170000  0.69380000  0.56780000  1.0 0.6233666852
C  C61  1  0.30620000  0.73830000  0.43220000  1.0 0.6233666852
C  C62  1  0.69380000  0.26170000  0.43220000  1.0 0.6233666852
C  C63  1  0.76170000  0.80620000  0.93220000  1.0 0.6233666852
C  C64  1  0.23830000  0.19380000  0.93220000  1.0 0.6233666852
C  C65  1  0.93660000  0.20730000  0.12116000  1.0 -0.129175166
C  C66  1  0.29270000  0.43660000  0.62116000  1.0 -0.129175166
C  C67  1  0.06340000  0.79270000  0.12116000  1.0 -0.129175166
C  C68  1  0.70730000  0.56340000  0.62116000  1.0 -0.129175166
C  C69  1  0.43660000  0.29270000  0.37884000  1.0 -0.129175166
C  C70  1  0.56340000  0.70730000  0.37884000  1.0 -0.129175166
C  C71  1  0.20730000  0.93660000  0.87884000  1.0 -0.129175166
C  C72  1  0.79270000  0.06340000  0.87884000  1.0 -0.129175166
C  C73  1  0.61680000  0.47270000  0.27597000  1.0 -0.1010805394
C  C74  1  0.02730000  0.11680000  0.77597000  1.0 -0.1010805394
C  C75  1  0.38320000  0.52730000  0.27597000  1.0 -0.1010805394
C  C76  1  0.97270000  0.88320000  0.77597000  1.0 -0.1010805394
C  C77  1  0.11680000  0.02730000  0.22403000  1.0 -0.1010805394
C  C78  1  0.88320000  0.97270000  0.22403000  1.0 -0.1010805394
C  C79  1  0.47270000  0.61680000  0.72403000  1.0 -0.1010805394
C  C80  1  0.52730000  0.38320000  0.72403000  1.0 -0.1010805394
C  C81  1  0.76770000  0.56670000  0.12244000  1.0 0.0703289147
C  C82  1  0.93330000  0.26770000  0.62244000  1.0 0.0703289147
C  C83  1  0.23230000  0.43330000  0.12244000  1.0 0.0703289147
C  C84  1  0.06670000  0.73230000  0.62244000  1.0 0.0703289147
C  C85  1  0.26770000  0.93330000  0.37756000  1.0 0.0703289147
C  C86  1  0.73230000  0.06670000  0.37756000  1.0 0.0703289147
C  C87  1  0.56670000  0.76770000  0.87756000  1.0 0.0703289147
C  C88  1  0.43330000  0.23230000  0.87756000  1.0 0.0703289147
C  C89  1  0.70280000  0.43640000  0.23401000  1.0 0.0640352998
C  C90  1  0.06360000  0.20280000  0.73401000  1.0 0.0640352998
C  C91  1  0.29720000  0.56360000  0.23401000  1.0 0.0640352998
C  C92  1  0.93640000  0.79720000  0.73401000  1.0 0.0640352998
C  C93  1  0.20280000  0.06360000  0.26599000  1.0 0.0640352998
C  C94  1  0.79720000  0.93640000  0.26599000  1.0 0.0640352998
C  C95  1  0.43640000  0.70280000  0.76599000  1.0 0.0640352998
C  C96  1  0.56360000  0.29720000  0.76599000  1.0 0.0640352998
C  C97  1  0.86960000  0.20120000  0.13789000  1.0 -0.0722465863
C  C98  1  0.29880000  0.36960000  0.63789000  1.0 -0.0722465863
C  C99  1  0.13040000  0.79880000  0.13789000  1.0 -0.0722465863
C  C100  1  0.70120000  0.63040000  0.63789000  1.0 -0.0722465863
C  C101  1  0.36960000  0.29880000  0.36211000  1.0 -0.0722465863
C  C102  1  0.63040000  0.70120000  0.36211000  1.0 -0.0722465863
C  C103  1  0.20120000  0.86960000  0.86211000  1.0 -0.0722465863
C  C104  1  0.79880000  0.13040000  0.86211000  1.0 -0.0722465863
C  C105  1  0.73360000  0.43670000  0.19817000  1.0 0.0809053086
C  C106  1  0.06330000  0.23360000  0.69817000  1.0 0.0809053086
C  C107  1  0.26640000  0.56330000  0.19817000  1.0 0.0809053086
C  C108  1  0.93670000  0.76640000  0.69817000  1.0 0.0809053086
C  C109  1  0.23360000  0.06330000  0.30183000  1.0 0.0809053086
C  C110  1  0.76640000  0.93670000  0.30183000  1.0 0.0809053086
C  C111  1  0.43670000  0.73360000  0.80183000  1.0 0.0809053086
C  C112  1  0.56330000  0.26640000  0.80183000  1.0 0.0809053086
C  C113  1  0.64600000  0.43320000  0.30489000  1.0 -0.0523159093
C  C114  1  0.06680000  0.14600000  0.80489000  1.0 -0.0523159093
C  C115  1  0.35400000  0.56680000  0.30489000  1.0 -0.0523159093
C  C116  1  0.93320000  0.85400000  0.80489000  1.0 -0.0523159093
C  C117  1  0.14600000  0.06680000  0.19511000  1.0 -0.0523159093
C  C118  1  0.85400000  0.93320000  0.19511000  1.0 -0.0523159093
C  C119  1  0.43320000  0.64600000  0.69511000  1.0 -0.0523159093
C  C120  1  0.56680000  0.35400000  0.69511000  1.0 -0.0523159093
C  C121  1  0.95670000  0.27940000  0.11352000  1.0 -0.0722465863
C  C122  1  0.22060000  0.45670000  0.61352000  1.0 -0.0722465863
C  C123  1  0.04330000  0.72060000  0.11352000  1.0 -0.0722465863
C  C124  1  0.77940000  0.54330000  0.61352000  1.0 -0.0722465863
C  C125  1  0.45670000  0.22060000  0.38648000  1.0 -0.0722465863
C  C126  1  0.54330000  0.77940000  0.38648000  1.0 -0.0722465863
C  C127  1  0.27940000  0.95670000  0.88648000  1.0 -0.0722465863
C  C128  1  0.72060000  0.04330000  0.88648000  1.0 -0.0722465863
C  C129  1  0.70090000  0.39240000  0.29744000  1.0 -0.0888660014
C  C130  1  0.10760000  0.20090000  0.79744000  1.0 -0.0888660014
C  C131  1  0.29910000  0.60760000  0.29744000  1.0 -0.0888660014
C  C132  1  0.89240000  0.79910000  0.79744000  1.0 -0.0888660014
C  C133  1  0.20090000  0.10760000  0.20256000  1.0 -0.0888660014
C  C134  1  0.79910000  0.89240000  0.20256000  1.0 -0.0888660014
C  C135  1  0.39240000  0.70090000  0.70256000  1.0 -0.0888660014
C  C136  1  0.60760000  0.29910000  0.70256000  1.0 -0.0888660014
C  C137  1  0.73070000  0.39580000  0.26287000  1.0 -0.1619873641
C  C138  1  0.10420000  0.23070000  0.76287000  1.0 -0.1619873641
C  C139  1  0.26930000  0.60420000  0.26287000  1.0 -0.1619873641
C  C140  1  0.89580000  0.76930000  0.76287000  1.0 -0.1619873641
C  C141  1  0.23070000  0.10420000  0.23713000  1.0 -0.1619873641
C  C142  1  0.76930000  0.89580000  0.23713000  1.0 -0.1619873641
C  C143  1  0.39580000  0.73070000  0.73713000  1.0 -0.1619873641
C  C144  1  0.60420000  0.26930000  0.73713000  1.0 -0.1619873641
C  C145  1  0.84890000  0.32350000  0.14000000  1.0 0.0876812344
C  C146  1  0.17650000  0.34890000  0.64000000  1.0 0.0876812344
C  C147  1  0.15110000  0.67650000  0.14000000  1.0 0.0876812344
C  C148  1  0.82350000  0.65110000  0.64000000  1.0 0.0876812344
C  C149  1  0.34890000  0.17650000  0.36000000  1.0 0.0876812344
C  C150  1  0.65110000  0.82350000  0.36000000  1.0 0.0876812344
C  C151  1  0.32350000  0.84890000  0.86000000  1.0 0.0876812344
C  C152  1  0.67650000  0.15110000  0.86000000  1.0 0.0876812344
C  C153  1  0.64570000  0.47400000  0.24343000  1.0 -0.1240647718
C  C154  1  0.02600000  0.14570000  0.74343000  1.0 -0.1240647718
C  C155  1  0.35430000  0.52600000  0.24343000  1.0 -0.1240647718
C  C156  1  0.97400000  0.85430000  0.74343000  1.0 -0.1240647718
C  C157  1  0.14570000  0.02600000  0.25657000  1.0 -0.1240647718
C  C158  1  0.85430000  0.97400000  0.25657000  1.0 -0.1240647718
C  C159  1  0.47400000  0.64570000  0.75657000  1.0 -0.1240647718
C  C160  1  0.52600000  0.35430000  0.75657000  1.0 -0.1240647718
C  C161  1  0.73740000  0.49850000  0.17669000  1.0 -0.201928249
C  C162  1  0.00150000  0.23740000  0.67669000  1.0 -0.201928249
C  C163  1  0.26260000  0.50150000  0.17669000  1.0 -0.201928249
C  C164  1  0.99850000  0.76260000  0.67669000  1.0 -0.201928249
C  C165  1  0.23740000  0.00150000  0.32331000  1.0 -0.201928249
C  C166  1  0.76260000  0.99850000  0.32331000  1.0 -0.201928249
C  C167  1  0.49850000  0.73740000  0.82331000  1.0 -0.201928249
C  C168  1  0.50150000  0.26260000  0.82331000  1.0 -0.201928249
C  C169  1  0.91720000  0.33430000  0.12348000  1.0 -0.1619873641
C  C170  1  0.16570000  0.41720000  0.62348000  1.0 -0.1619873641
C  C171  1  0.08280000  0.66570000  0.12348000  1.0 -0.1619873641
C  C172  1  0.83430000  0.58280000  0.62348000  1.0 -0.1619873641
C  C173  1  0.41720000  0.16570000  0.37652000  1.0 -0.1619873641
C  C174  1  0.58280000  0.83430000  0.37652000  1.0 -0.1619873641
C  C175  1  0.33430000  0.91720000  0.87652000  1.0 -0.1619873641
C  C176  1  0.66570000  0.08280000  0.87652000  1.0 -0.1619873641
C  C177  1  0.80720000  0.38390000  0.15158000  1.0 0.0703289147
C  C178  1  0.11610000  0.30720000  0.65158000  1.0 0.0703289147
C  C179  1  0.19280000  0.61610000  0.15158000  1.0 0.0703289147
C  C180  1  0.88390000  0.69280000  0.65158000  1.0 0.0703289147
C  C181  1  0.30720000  0.11610000  0.34842000  1.0 0.0703289147
C  C182  1  0.69280000  0.88390000  0.34842000  1.0 0.0703289147
C  C183  1  0.38390000  0.80720000  0.84842000  1.0 0.0703289147
C  C184  1  0.61610000  0.19280000  0.84842000  1.0 0.0703289147
C  C185  1  0.83050000  0.25100000  0.14594000  1.0 -0.129175166
C  C186  1  0.24900000  0.33050000  0.64594000  1.0 -0.129175166
C  C187  1  0.16950000  0.74900000  0.14594000  1.0 -0.129175166
C  C188  1  0.75100000  0.66950000  0.64594000  1.0 -0.129175166
C  C189  1  0.33050000  0.24900000  0.35406000  1.0 -0.129175166
C  C190  1  0.66950000  0.75100000  0.35406000  1.0 -0.129175166
C  C191  1  0.25100000  0.83050000  0.85406000  1.0 -0.129175166
C  C192  1  0.74900000  0.16950000  0.85406000  1.0 -0.129175166
C  C193  1  0.76500000  0.49920000  0.14280000  1.0 0.0809053086
C  C194  1  0.00080000  0.26500000  0.64280000  1.0 0.0809053086
C  C195  1  0.23500000  0.50080000  0.14280000  1.0 0.0809053086
C  C196  1  0.99920000  0.73500000  0.64280000  1.0 0.0809053086
C  C197  1  0.26500000  0.00080000  0.35720000  1.0 0.0809053086
C  C198  1  0.73500000  0.99920000  0.35720000  1.0 0.0809053086
C  C199  1  0.49920000  0.76500000  0.85720000  1.0 0.0809053086
C  C200  1  0.50080000  0.23500000  0.85720000  1.0 0.0809053086
C  C201  1  0.80310000  0.44460000  0.13086000  1.0 -0.201928249
C  C202  1  0.05540000  0.30310000  0.63086000  1.0 -0.201928249
C  C203  1  0.19690000  0.55540000  0.13086000  1.0 -0.201928249
C  C204  1  0.94460000  0.69690000  0.63086000  1.0 -0.201928249
C  C205  1  0.30310000  0.05540000  0.36914000  1.0 -0.201928249
C  C206  1  0.69690000  0.94460000  0.36914000  1.0 -0.201928249
C  C207  1  0.44460000  0.80310000  0.86914000  1.0 -0.201928249
C  C208  1  0.55540000  0.19690000  0.86914000  1.0 -0.201928249
C  C209  1  0.77130000  0.37950000  0.18604000  1.0 -0.2103560589
C  C210  1  0.12050000  0.27130000  0.68604000  1.0 -0.2103560589
C  C211  1  0.22870000  0.62050000  0.18604000  1.0 -0.2103560589
C  C212  1  0.87950000  0.72870000  0.68604000  1.0 -0.2103560589
C  C213  1  0.27130000  0.12050000  0.31396000  1.0 -0.2103560589
C  C214  1  0.72870000  0.87950000  0.31396000  1.0 -0.2103560589
C  C215  1  0.37950000  0.77130000  0.81396000  1.0 -0.2103560589
C  C216  1  0.62050000  0.22870000  0.81396000  1.0 -0.2103560589
C  C217  1  0.74930000  0.42950000  0.45396000  1.0 0.6313850596
C  C218  1  0.07050000  0.24930000  0.95396000  1.0 0.6313850596
C  C219  1  0.25070000  0.57050000  0.45396000  1.0 0.6313850596
C  C220  1  0.92950000  0.75070000  0.95396000  1.0 0.6313850596
C  C221  1  0.24930000  0.07050000  0.04604000  1.0 0.6313850596
C  C222  1  0.75070000  0.92950000  0.04604000  1.0 0.6313850596
C  C223  1  0.42950000  0.74930000  0.54604000  1.0 0.6313850596
C  C224  1  0.57050000  0.25070000  0.54604000  1.0 0.6313850596
C  C225  1  0.84930000  0.47780000  0.41993000  1.0 -0.0831881598
C  C226  1  0.02220000  0.34930000  0.91993000  1.0 -0.0831881598
C  C227  1  0.15070000  0.52220000  0.41993000  1.0 -0.0831881598
C  C228  1  0.97780000  0.65070000  0.91993000  1.0 -0.0831881598
C  C229  1  0.34930000  0.02220000  0.08007000  1.0 -0.0831881598
C  C230  1  0.65070000  0.97780000  0.08007000  1.0 -0.0831881598
C  C231  1  0.47780000  0.84930000  0.58007000  1.0 -0.0831881598
C  C232  1  0.52220000  0.15070000  0.58007000  1.0 -0.0831881598
C  C233  1  0.82240000  0.45230000  0.45048000  1.0 -0.0610773399
C  C234  1  0.04770000  0.32240000  0.95048000  1.0 -0.0610773399
C  C235  1  0.17760000  0.54770000  0.45048000  1.0 -0.0610773399
C  C236  1  0.95230000  0.67760000  0.95048000  1.0 -0.0610773399
C  C237  1  0.32240000  0.04770000  0.04952000  1.0 -0.0610773399
C  C238  1  0.67760000  0.95230000  0.04952000  1.0 -0.0610773399
C  C239  1  0.45230000  0.82240000  0.54952000  1.0 -0.0610773399
C  C240  1  0.54770000  0.17760000  0.54952000  1.0 -0.0610773399
C  C241  1  0.92000000  0.49580000  0.41769000  1.0 -0.1478549252
C  C242  1  0.00420000  0.42000000  0.91769000  1.0 -0.1478549252
C  C243  1  0.08000000  0.50420000  0.41769000  1.0 -0.1478549252
C  C244  1  0.99580000  0.58000000  0.91769000  1.0 -0.1478549252
C  C245  1  0.42000000  0.00420000  0.08231000  1.0 -0.1478549252
C  C246  1  0.58000000  0.99580000  0.08231000  1.0 -0.1478549252
C  C247  1  0.49580000  0.92000000  0.58231000  1.0 -0.1478549252
C  C248  1  0.50420000  0.08000000  0.58231000  1.0 -0.1478549252
C  C249  1  0.86530000  0.44010000  0.47914000  1.0 -0.0888660014
C  C250  1  0.05990000  0.36530000  0.97914000  1.0 -0.0888660014
C  C251  1  0.13470000  0.55990000  0.47914000  1.0 -0.0888660014
C  C252  1  0.94010000  0.63470000  0.97914000  1.0 -0.0888660014
C  C253  1  0.36530000  0.05990000  0.02086000  1.0 -0.0888660014
C  C254  1  0.63470000  0.94010000  0.02086000  1.0 -0.0888660014
C  C255  1  0.44010000  0.86530000  0.52086000  1.0 -0.0888660014
C  C256  1  0.55990000  0.13470000  0.52086000  1.0 -0.0888660014
C  C257  1  0.95950000  0.48970000  0.44800000  1.0 0.0809053086
C  C258  1  0.01030000  0.45950000  0.94800000  1.0 0.0809053086
C  C259  1  0.04050000  0.51030000  0.44800000  1.0 0.0809053086
C  C260  1  0.98970000  0.54050000  0.94800000  1.0 0.0809053086
C  C261  1  0.45950000  0.01030000  0.05200000  1.0 0.0809053086
C  C262  1  0.54050000  0.98970000  0.05200000  1.0 0.0809053086
C  C263  1  0.48970000  0.95950000  0.55200000  1.0 0.0809053086
C  C264  1  0.51030000  0.04050000  0.55200000  1.0 0.0809053086
C  C265  1  0.93650000  0.45870000  0.47788000  1.0 -0.1478549252
C  C266  1  0.04130000  0.43650000  0.97788000  1.0 -0.1478549252
C  C267  1  0.06350000  0.54130000  0.47788000  1.0 -0.1478549252
C  C268  1  0.95870000  0.56350000  0.97788000  1.0 -0.1478549252
C  C269  1  0.43650000  0.04130000  0.02212000  1.0 -0.1478549252
C  C270  1  0.56350000  0.95870000  0.02212000  1.0 -0.1478549252
C  C271  1  0.45870000  0.93650000  0.52212000  1.0 -0.1478549252
C  C272  1  0.54130000  0.06350000  0.52212000  1.0 -0.1478549252
O  O1  1  0.56710000  0.47240000  0.41770000  1.0 -1.0109137133
O  O2  1  0.02760000  0.06710000  0.91770000  1.0 -1.0109137133
O  O3  1  0.43290000  0.52760000  0.41770000  1.0 -1.0109137133
O  O4  1  0.97240000  0.93290000  0.91770000  1.0 -1.0109137133
O  O5  1  0.06710000  0.02760000  0.08230000  1.0 -1.0109137133
O  O6  1  0.93290000  0.97240000  0.08230000  1.0 -1.0109137133
O  O7  1  0.47240000  0.56710000  0.58230000  1.0 -1.0109137133
O  O8  1  0.52760000  0.43290000  0.58230000  1.0 -1.0109137133
O  O9  1  0.64568000  0.40361000  0.36661000  1.0 -0.5958698005
O  O10  1  0.09639000  0.14568000  0.86661000  1.0 -0.5958698005
O  O11  1  0.35432000  0.59639000  0.36661000  1.0 -0.5958698005
O  O12  1  0.90361000  0.85432000  0.86661000  1.0 -0.5958698005
O  O13  1  0.14568000  0.09639000  0.13339000  1.0 -0.5958698005
O  O14  1  0.85432000  0.90361000  0.13339000  1.0 -0.5958698005
O  O15  1  0.40361000  0.64568000  0.63339000  1.0 -0.5958698005
O  O16  1  0.59639000  0.35432000  0.63339000  1.0 -0.5958698005
O  O17  1  0.60198000  0.36676000  0.46498000  1.0 -1.0109137133
O  O18  1  0.13324000  0.10198000  0.96498000  1.0 -1.0109137133
O  O19  1  0.39802000  0.63324000  0.46498000  1.0 -1.0109137133
O  O20  1  0.86676000  0.89802000  0.96498000  1.0 -1.0109137133
O  O21  1  0.10198000  0.13324000  0.03502000  1.0 -1.0109137133
O  O22  1  0.89802000  0.86676000  0.03502000  1.0 -1.0109137133
O  O23  1  0.36676000  0.60198000  0.53502000  1.0 -1.0109137133
O  O24  1  0.63324000  0.39802000  0.53502000  1.0 -1.0109137133
O  O25  1  0.55979000  0.47562000  0.34534000  1.0 -0.5673466384
O  O26  1  0.02438000  0.05979000  0.84534000  1.0 -0.5673466384
O  O27  1  0.44021000  0.52438000  0.34534000  1.0 -0.5673466384
O  O28  1  0.97562000  0.94021000  0.84534000  1.0 -0.5673466384
O  O29  1  0.05979000  0.02438000  0.15466000  1.0 -0.5673466384
O  O30  1  0.94021000  0.97562000  0.15466000  1.0 -0.5673466384
O  O31  1  0.47562000  0.55979000  0.65466000  1.0 -0.5673466384
O  O32  1  0.52438000  0.44021000  0.65466000  1.0 -0.5673466384
O  O33  1  0.82366000  0.80975000  0.08796000  1.0 -0.5401169047
O  O34  1  0.69025000  0.32366000  0.58796000  1.0 -0.5401169047
O  O35  1  0.17634000  0.19025000  0.08796000  1.0 -0.5401169047
O  O36  1  0.30975000  0.67634000  0.58796000  1.0 -0.5401169047
O  O37  1  0.32366000  0.69025000  0.41204000  1.0 -0.5401169047
O  O38  1  0.67634000  0.30975000  0.41204000  1.0 -0.5401169047
O  O39  1  0.80975000  0.82366000  0.91204000  1.0 -0.5401169047
O  O40  1  0.19025000  0.17634000  0.91204000  1.0 -0.5401169047
O  O41  1  0.73355000  0.39656000  0.48206000  1.0 -0.5673466384
O  O42  1  0.10344000  0.23355000  0.98206000  1.0 -0.5673466384
O  O43  1  0.26645000  0.60344000  0.48206000  1.0 -0.5673466384
O  O44  1  0.89656000  0.76645000  0.98206000  1.0 -0.5673466384
O  O45  1  0.23355000  0.10344000  0.01794000  1.0 -0.5673466384
O  O46  1  0.76645000  0.89656000  0.01794000  1.0 -0.5673466384
O  O47  1  0.39656000  0.73355000  0.51794000  1.0 -0.5673466384
O  O48  1  0.60344000  0.26645000  0.51794000  1.0 -0.5673466384
O  O49  1  0.04565000  0.16600000  0.09859000  1.0 -0.6453021154
O  O50  1  0.33400000  0.54565000  0.59859000  1.0 -0.6453021154
O  O51  1  0.95435000  0.83400000  0.09859000  1.0 -0.6453021154
O  O52  1  0.66600000  0.45435000  0.59859000  1.0 -0.6453021154
O  O53  1  0.54565000  0.33400000  0.40141000  1.0 -0.6453021154
O  O54  1  0.45435000  0.66600000  0.40141000  1.0 -0.6453021154
O  O55  1  0.16600000  0.04565000  0.90141000  1.0 -0.6453021154
O  O56  1  0.83400000  0.95435000  0.90141000  1.0 -0.6453021154
O  O57  1  0.96047000  0.09143000  0.11703000  1.0 -0.5608402103
O  O58  1  0.40857000  0.46047000  0.61703000  1.0 -0.5608402103
O  O59  1  0.03953000  0.90857000  0.11703000  1.0 -0.5608402103
O  O60  1  0.59143000  0.53953000  0.61703000  1.0 -0.5608402103
O  O61  1  0.46047000  0.40857000  0.38297000  1.0 -0.5608402103
O  O62  1  0.53953000  0.59143000  0.38297000  1.0 -0.5608402103
O  O63  1  0.09143000  0.96047000  0.88297000  1.0 -0.5608402103
O  O64  1  0.90857000  0.03953000  0.88297000  1.0 -0.5608402103
O  O65  1  0.70467000  0.43890000  0.42833000  1.0 -0.5880642518
O  O66  1  0.06110000  0.20467000  0.92833000  1.0 -0.5880642518
O  O67  1  0.29533000  0.56110000  0.42833000  1.0 -0.5880642518
O  O68  1  0.93890000  0.79533000  0.92833000  1.0 -0.5880642518
O  O69  1  0.20467000  0.06110000  0.07167000  1.0 -0.5880642518
O  O70  1  0.79533000  0.93890000  0.07167000  1.0 -0.5880642518
O  O71  1  0.43890000  0.70467000  0.57167000  1.0 -0.5880642518
O  O72  1  0.56110000  0.29533000  0.57167000  1.0 -0.5880642518
O  O73  1  0.80296000  0.76265000  0.03220000  1.0 -0.5958698005
O  O74  1  0.73735000  0.30296000  0.53220000  1.0 -0.5958698005
O  O75  1  0.19704000  0.23735000  0.03220000  1.0 -0.5958698005
O  O76  1  0.26265000  0.69704000  0.53220000  1.0 -0.5958698005
O  O77  1  0.30296000  0.73735000  0.46780000  1.0 -0.5958698005
O  O78  1  0.69704000  0.26265000  0.46780000  1.0 -0.5958698005
O  O79  1  0.76265000  0.80296000  0.96780000  1.0 -0.5958698005
O  O80  1  0.23735000  0.19704000  0.96780000  1.0 -0.5958698005
