# DDEC6 charges by PACMAN v1.1 (https://github.com/mtap-research/PACMAN-charge/)
data_2020[Zn][nan]3[FSR]18
_chemical_formula_sum              "Zn6 H40 C72 N8 O28"
_cell_length_a       5.9994
_cell_length_b       29.661
_cell_length_c       19.068
_cell_angle_alpha    90
_cell_angle_beta     90.09
_cell_angle_gamma    90

_symmetry_space_group_name_H-M    "P 1"
_symmetry_Int_Tables_number       1

loop_
  _symmetry_equiv_pos_as_xyz
  'x, y, z'

loop_
  _atom_site_type_symbol
  _atom_site_label
  _atom_site_symmetry_multiplicity
  _atom_site_fract_x
  _atom_site_fract_y
  _atom_site_fract_z
  _atom_site_occupancy
  _atom_site_charge
Zn  Zn1       1.0  0.50583  0.54899  0.50392  1.0000 0.9629351406
Zn  Zn2       1.0  0.49417  0.04899  0.99608  1.0000 0.9684316227
Zn  Zn3       1.0  0.49417  0.45101  0.49608  1.0000 0.9629351406
Zn  Zn4       1.0  0.50583  0.95101  0.00392  1.0000 0.9629351406
Zn  Zn5       1.0  0.00000  0.50000  0.50000  1.0000 1.0579341361
Zn  Zn6       1.0  0.00000  0.00000  0.00000  1.0000 1.0579341361
H   H1        1.0  0.22626  0.09428  0.84730  1.0000 0.1309110196
H   H2        1.0  0.64520  0.16059  0.86868  1.0000 0.1309110196
H   H3        1.0  0.76176  0.23994  0.74813  1.0000 0.2720089191
H   H4        1.0  0.84128  0.42650  0.68710  1.0000 0.1309110196
H   H5        1.0  0.40560  0.35851  0.65812  1.0000 0.1359960595
H   H6        1.0  0.48558  0.29697  0.72235  1.0000 0.2720089191
H   H7        1.0  0.77041  0.38455  0.79083  1.0000 0.1202596053
H   H8        1.0  0.01426  0.32520  0.81696  1.0000 0.1309110196
H   H9        1.0  0.34825  0.14612  0.76501  1.0000 0.1139766769
H   H10       1.0  0.12505  0.20894  0.74395  1.0000 0.1202596053
H   H11       1.0  0.77374  0.59428  0.65270  1.0000 0.1309110196
H   H12       1.0  0.35480  0.66059  0.63132  1.0000 0.1309110196
H   H13       1.0  0.23824  0.73994  0.75187  1.0000 0.2720089191
H   H14       1.0  0.15872  0.92650  0.81290  1.0000 0.1309110196
H   H15       1.0  0.59440  0.85851  0.84188  1.0000 0.1359960595
H   H16       1.0  0.51442  0.79697  0.77765  1.0000 0.2720089191
H   H17       1.0  0.22959  0.88455  0.70917  1.0000 0.1202596053
H   H18       1.0  0.98574  0.82520  0.68304  1.0000 0.1309110196
H   H19       1.0  0.65175  0.64612  0.73499  1.0000 0.1139766769
H   H20       1.0  0.87495  0.70894  0.75605  1.0000 0.1202596053
H   H21       1.0  0.77374  0.90572  0.15270  1.0000 0.1309110196
H   H22       1.0  0.35480  0.83941  0.13132  1.0000 0.1309110196
H   H23       1.0  0.23824  0.76006  0.25187  1.0000 0.2720089191
H   H24       1.0  0.15872  0.57350  0.31290  1.0000 0.1309110196
H   H25       1.0  0.59440  0.64149  0.34188  1.0000 0.1359960595
H   H26       1.0  0.51442  0.70303  0.27765  1.0000 0.2720089191
H   H27       1.0  0.22959  0.61545  0.20917  1.0000 0.1202596053
H   H28       1.0  0.98574  0.67480  0.18304  1.0000 0.1309110196
H   H29       1.0  0.65175  0.85388  0.23499  1.0000 0.1139766769
H   H30       1.0  0.87495  0.79106  0.25605  1.0000 0.1202596053
H   H31       1.0  0.22626  0.40572  0.34730  1.0000 0.1309110196
H   H32       1.0  0.64520  0.33941  0.36868  1.0000 0.1309110196
H   H33       1.0  0.76176  0.26006  0.24813  1.0000 0.2720089191
H   H34       1.0  0.84128  0.07350  0.18710  1.0000 0.1309110196
H   H35       1.0  0.40560  0.14149  0.15812  1.0000 0.1359960595
H   H36       1.0  0.48558  0.20303  0.22235  1.0000 0.2720089191
H   H37       1.0  0.77041  0.11545  0.29083  1.0000 0.1202596053
H   H38       1.0  0.01426  0.17480  0.31696  1.0000 0.1309110196
H   H39       1.0  0.34825  0.35388  0.26501  1.0000 0.1139766769
H   H40       1.0  0.12505  0.29106  0.24395  1.0000 0.1202596053
C   C1        1.0  0.13650  0.39800  0.66480  1.0000 0.0036154326
C   C2        1.0  0.13470  0.11830  0.83500  1.0000 -0.0996959555
C   C3        1.0  0.58290  0.24680  0.82910  1.0000 0.0450695389
C   C4        1.0  0.19460  0.42620  0.60130  1.0000 0.5868815342
C   C5        1.0  0.41900  0.28110  0.81680  1.0000 0.0152019755
C   C6        1.0  0.78740  0.15820  0.84970  1.0000 -0.1796357046
C   C7        1.0  0.87450  0.19080  0.80470  1.0000 0.2133038078
C   C8        1.0  0.84490  0.08520  0.91470  1.0000 0.5841000089
C   C9        1.0  0.33090  0.27890  0.88800  1.0000 0.1757960403
C   C10       1.0  0.94250  0.40480  0.70210  1.0000 -0.1076093903
C   C11       1.0  0.92710  0.12150  0.86470  1.0000 0.0114190562
C   C12       1.0  0.27880  0.36410  0.68480  1.0000 -0.19317607
C   C13       1.0  0.23910  0.33820  0.74280  1.0000 0.2133038078
C   C14       1.0  0.89510  0.37890  0.76330  1.0000 -0.0797553873
C   C15       1.0  0.04610  0.34440  0.77980  1.0000 -0.1796357046
C   C16       1.0  0.21170  0.14960  0.78740  1.0000 -0.0660309186
C   C17       1.0  0.49770  0.24390  0.90370  1.0000 0.1940468161
C   C18       1.0  0.07580  0.18660  0.77440  1.0000 -0.1957683256
C   C19       1.0  0.86350  0.89800  0.83520  1.0000 0.0036154326
C   C20       1.0  0.86530  0.61830  0.66500  1.0000 -0.0996959555
C   C21       1.0  0.41710  0.74680  0.67090  1.0000 0.0450695389
C   C22       1.0  0.80540  0.92620  0.89870  1.0000 0.5868815342
C   C23       1.0  0.58100  0.78110  0.68320  1.0000 0.0114190562
C   C24       1.0  0.21260  0.65820  0.65030  1.0000 -0.1796357046
C   C25       1.0  0.12550  0.69080  0.69530  1.0000 0.2133038078
C   C26       1.0  0.15510  0.58520  0.58530  1.0000 0.5841000089
C   C27       1.0  0.66910  0.77890  0.61200  1.0000 0.1757960403
C   C28       1.0  0.05750  0.90480  0.79790  1.0000 -0.1076093903
C   C29       1.0  0.07290  0.62150  0.63530  1.0000 0.0114190562
C   C30       1.0  0.72120  0.86410  0.81520  1.0000 -0.19317607
C   C31       1.0  0.76090  0.83820  0.75720  1.0000 0.2133038078
C   C32       1.0  0.10490  0.87890  0.73670  1.0000 -0.0797553873
C   C33       1.0  0.95390  0.84440  0.72020  1.0000 -0.1796357046
C   C34       1.0  0.78830  0.64960  0.71260  1.0000 -0.0660309186
C   C35       1.0  0.50230  0.74390  0.59630  1.0000 0.1940468161
C   C36       1.0  0.92420  0.68660  0.72560  1.0000 -0.19317607
C   C37       1.0  0.86350  0.60200  0.33520  1.0000 0.0036154326
C   C38       1.0  0.86530  0.88170  0.16500  1.0000 -0.0996959555
C   C39       1.0  0.41710  0.75320  0.17090  1.0000 0.0439871689
C   C40       1.0  0.80540  0.57380  0.39870  1.0000 0.5868815342
C   C41       1.0  0.58100  0.71890  0.18320  1.0000 0.0114190562
C   C42       1.0  0.21260  0.84180  0.15030  1.0000 -0.1796357046
C   C43       1.0  0.12550  0.80920  0.19530  1.0000 0.2150934496
C   C44       1.0  0.15510  0.91480  0.08530  1.0000 0.5841000089
C   C45       1.0  0.66910  0.72110  0.11200  1.0000 0.1757960403
C   C46       1.0  0.05750  0.59520  0.29790  1.0000 -0.1076093903
C   C47       1.0  0.07290  0.87850  0.13530  1.0000 0.0114190562
C   C48       1.0  0.72120  0.63590  0.31520  1.0000 -0.19317607
C   C49       1.0  0.76090  0.66180  0.25720  1.0000 0.2133038078
C   C50       1.0  0.10490  0.62110  0.23670  1.0000 -0.0797553873
C   C51       1.0  0.95390  0.65560  0.22020  1.0000 -0.1796357046
C   C52       1.0  0.78830  0.85040  0.21260  1.0000 -0.0660309186
C   C53       1.0  0.50230  0.75610  0.09630  1.0000 0.1950443545
C   C54       1.0  0.92420  0.81340  0.22560  1.0000 -0.19317607
C   C55       1.0  0.13650  0.10200  0.16480  1.0000 0.0036154326
C   C56       1.0  0.13470  0.38170  0.33500  1.0000 -0.0996959555
C   C57       1.0  0.58290  0.25320  0.32910  1.0000 0.0439871689
C   C58       1.0  0.19460  0.07380  0.10130  1.0000 0.5868815342
C   C59       1.0  0.41900  0.21890  0.31680  1.0000 0.0114190562
C   C60       1.0  0.78740  0.34180  0.34970  1.0000 -0.1796357046
C   C61       1.0  0.87450  0.30920  0.30470  1.0000 0.2150934496
C   C62       1.0  0.84490  0.41480  0.41470  1.0000 0.5841000089
C   C63       1.0  0.33090  0.22110  0.38800  1.0000 0.1757960403
C   C64       1.0  0.94250  0.09520  0.20210  1.0000 -0.1076093903
C   C65       1.0  0.92710  0.37850  0.36470  1.0000 0.0114190562
C   C66       1.0  0.27880  0.13590  0.18480  1.0000 -0.19317607
C   C67       1.0  0.23910  0.16180  0.24280  1.0000 0.2133038078
C   C68       1.0  0.89510  0.12110  0.26330  1.0000 -0.0797553873
C   C69       1.0  0.04610  0.15560  0.27980  1.0000 -0.1796357046
C   C70       1.0  0.21170  0.35040  0.28740  1.0000 -0.0660309186
C   C71       1.0  0.49770  0.25610  0.40370  1.0000 0.1940468161
C   C72       1.0  0.07580  0.31340  0.27440  1.0000 -0.1957683256
N   N1        1.0  0.74090  0.22780  0.78860  1.0000 -0.3114678776
N   N2        1.0  0.39640  0.30392  0.75590  1.0000 -0.326589802
N   N3        1.0  0.25910  0.72780  0.71140  1.0000 -0.3114678776
N   N4        1.0  0.60360  0.80392  0.74410  1.0000 -0.326589802
N   N5        1.0  0.25910  0.77220  0.21140  1.0000 -0.3114678776
N   N6        1.0  0.60360  0.69608  0.24410  1.0000 -0.3238747707
N   N7        1.0  0.74090  0.27220  0.28860  1.0000 -0.3114678776
N   N8        1.0  0.39640  0.19608  0.25590  1.0000 -0.326589802
O   O1        1.0  0.68520  0.49812  0.54103  1.0000 -0.8537086538
O   O2        1.0  0.36590  0.41384  0.56680  1.0000 -0.5123958877
O   O3        1.0  0.63850  0.08800  0.92950  1.0000 -0.5123958877
O   O4        1.0  0.07870  0.45909  0.58810  1.0000 -0.4791189423
O   O5        1.0  0.97150  0.05815  0.93620  1.0000 -0.4590558028
O   O6        1.0  0.18100  0.29670  0.92060  1.0000 -0.2617572462
O   O7        1.0  0.55120  0.22265  0.95470  1.0000 -0.2729518206
O   O8        1.0  0.31480  0.99812  0.95897  1.0000 -0.8537086538
O   O9        1.0  0.63410  0.91384  0.93320  1.0000 -0.5155325225
O   O10       1.0  0.36150  0.58800  0.57050  1.0000 -0.5123958877
O   O11       1.0  0.92130  0.95909  0.91190  1.0000 -0.4791189423
O   O12       1.0  0.02850  0.55815  0.56380  1.0000 -0.4590558028
O   O13       1.0  0.81900  0.79670  0.57940  1.0000 -0.2617572462
O   O14       1.0  0.44880  0.72265  0.54530  1.0000 -0.2729518206
O   O15       1.0  0.31480  0.50188  0.45897  1.0000 -0.8537086538
O   O16       1.0  0.63410  0.58616  0.43320  1.0000 -0.5155325225
O   O17       1.0  0.36150  0.91200  0.07050  1.0000 -0.5123958877
O   O18       1.0  0.92130  0.54091  0.41190  1.0000 -0.4791189423
O   O19       1.0  0.02850  0.94185  0.06380  1.0000 -0.4590558028
O   O20       1.0  0.81900  0.70330  0.07940  1.0000 -0.2617572462
O   O21       1.0  0.44880  0.77735  0.04530  1.0000 -0.2776626042
O   O22       1.0  0.68520  0.00188  0.04103  1.0000 -0.8553628019
O   O23       1.0  0.36590  0.08616  0.06680  1.0000 -0.5123958877
O   O24       1.0  0.63850  0.41200  0.42950  1.0000 -0.5123958877
O   O25       1.0  0.07870  0.04091  0.08810  1.0000 -0.4791189423
O   O26       1.0  0.97150  0.44185  0.43620  1.0000 -0.4590558028
O   O27       1.0  0.18100  0.20330  0.42060  1.0000 -0.2617572462
O   O28       1.0  0.55120  0.27735  0.45470  1.0000 -0.2729518206
