# DDEC6 charges by PACMAN v1.1 (https://github.com/mtap-research/PACMAN-charge/)
data_ic801677y_si_002_FSR_pacman
_symmetry_space_group_name_H-M   'P 1'
_cell_length_a   16.71220000
_cell_length_b   16.71220000
_cell_length_c   54.24360000
_cell_angle_alpha   90.00000000
_cell_angle_beta   90.00000000
_cell_angle_gamma   90.00000000
_symmetry_Int_Tables_number   1
_chemical_formula_structural   Zn3H36C63N7O8
_chemical_formula_sum   'Zn12 H144 C252 N28 O32'
_cell_volume   15150.10885975
_cell_formula_units_Z   4
loop_
 _symmetry_equiv_pos_site_id
 _symmetry_equiv_pos_as_xyz
  1  'x, y, z'
loop_
 _atom_site_type_symbol
 _atom_site_label
 _atom_site_symmetry_multiplicity
 _atom_site_fract_x
 _atom_site_fract_y
 _atom_site_fract_z
 _atom_site_occupancy
 _atom_site_charge
Zn  Zn1  1  0.00000000  0.00000000  0.13568000  1.0 0.6049987726
Zn  Zn2  1  0.00000000  0.00000000  0.86432000  1.0 0.6049987726
Zn  Zn3  1  0.50000000  0.50000000  0.63568000  1.0 0.6062741332
Zn  Zn4  1  0.50000000  0.50000000  0.36432000  1.0 0.6062741332
Zn  Zn5  1  0.50000000  0.50000000  0.15661000  1.0 0.7150396757
Zn  Zn6  1  0.50000000  0.50000000  0.84339000  1.0 0.7150396757
Zn  Zn7  1  0.00000000  0.00000000  0.65661000  1.0 0.7150396757
Zn  Zn8  1  0.00000000  0.00000000  0.34339000  1.0 0.7150396757
Zn  Zn9  1  0.50000000  0.50000000  0.10253000  1.0 0.7108400218
Zn  Zn10  1  0.50000000  0.50000000  0.89747000  1.0 0.7108400218
Zn  Zn11  1  0.00000000  0.00000000  0.60253000  1.0 0.7108400218
Zn  Zn12  1  0.00000000  0.00000000  0.39747000  1.0 0.7108400218
H  H1  1  0.29820000  0.07330000  0.12820000  1.0 0.1171606235
H  H2  1  0.70180000  0.92670000  0.12820000  1.0 0.1171606235
H  H3  1  0.92670000  0.29820000  0.12820000  1.0 0.1171606235
H  H4  1  0.07330000  0.70180000  0.12820000  1.0 0.1171606235
H  H5  1  0.70180000  0.07330000  0.87180000  1.0 0.1171606235
H  H6  1  0.29820000  0.92670000  0.87180000  1.0 0.1171606235
H  H7  1  0.07330000  0.29820000  0.87180000  1.0 0.1171606235
H  H8  1  0.92670000  0.70180000  0.87180000  1.0 0.1171606235
H  H9  1  0.79820000  0.57330000  0.62820000  1.0 0.1171606235
H  H10  1  0.20180000  0.42670000  0.62820000  1.0 0.1171606235
H  H11  1  0.42670000  0.79820000  0.62820000  1.0 0.1171606235
H  H12  1  0.57330000  0.20180000  0.62820000  1.0 0.1171606235
H  H13  1  0.20180000  0.57330000  0.37180000  1.0 0.1171606235
H  H14  1  0.79820000  0.42670000  0.37180000  1.0 0.1171606235
H  H15  1  0.57330000  0.79820000  0.37180000  1.0 0.1171606235
H  H16  1  0.42670000  0.20180000  0.37180000  1.0 0.1171606235
H  H17  1  0.70180000  0.92670000  0.87180000  1.0 0.1171606235
H  H18  1  0.29820000  0.07330000  0.87180000  1.0 0.1171606235
H  H19  1  0.07330000  0.70180000  0.87180000  1.0 0.1171606235
H  H20  1  0.92670000  0.29820000  0.87180000  1.0 0.1171606235
H  H21  1  0.29820000  0.92670000  0.12820000  1.0 0.1171606235
H  H22  1  0.70180000  0.07330000  0.12820000  1.0 0.1171606235
H  H23  1  0.92670000  0.70180000  0.12820000  1.0 0.1171606235
H  H24  1  0.07330000  0.29820000  0.12820000  1.0 0.1171606235
H  H25  1  0.20180000  0.42670000  0.37180000  1.0 0.1171606235
H  H26  1  0.79820000  0.57330000  0.37180000  1.0 0.1171606235
H  H27  1  0.57330000  0.20180000  0.37180000  1.0 0.1171606235
H  H28  1  0.42670000  0.79820000  0.37180000  1.0 0.1171606235
H  H29  1  0.79820000  0.42670000  0.62820000  1.0 0.1171606235
H  H30  1  0.20180000  0.57330000  0.62820000  1.0 0.1171606235
H  H31  1  0.42670000  0.20180000  0.62820000  1.0 0.1171606235
H  H32  1  0.57330000  0.79820000  0.62820000  1.0 0.1171606235
H  H161  1  0.03530000  0.10880000  0.17950000  0.25 0.0493383441
H  H162  1  0.96470000  0.89120000  0.17950000  0.25 0.0493383441
H  H163  1  0.89120000  0.03530000  0.17950000  0.25 0.0493383441
H  H164  1  0.10880000  0.96470000  0.17950000  0.25 0.0493383441
H  H165  1  0.96470000  0.10880000  0.82050000  0.25 0.0493383441
H  H166  1  0.03530000  0.89120000  0.82050000  0.25 0.0493383441
H  H167  1  0.10880000  0.03530000  0.82050000  0.25 0.0493383441
H  H168  1  0.89120000  0.96470000  0.82050000  0.25 0.0493383441
H  H169  1  0.53530000  0.60880000  0.67950000  0.25 0.0493383441
H  H170  1  0.46470000  0.39120000  0.67950000  0.25 0.0493383441
H  H171  1  0.39120000  0.53530000  0.67950000  0.25 0.0493383441
H  H172  1  0.60880000  0.46470000  0.67950000  0.25 0.0493383441
H  H173  1  0.46470000  0.60880000  0.32050000  0.25 0.0493383441
H  H174  1  0.53530000  0.39120000  0.32050000  0.25 0.0493383441
H  H175  1  0.60880000  0.53530000  0.32050000  0.25 0.0493383441
H  H176  1  0.39120000  0.46470000  0.32050000  0.25 0.0493383441
H  H177  1  0.96470000  0.89120000  0.82050000  0.25 0.0493383441
H  H178  1  0.03530000  0.10880000  0.82050000  0.25 0.0493383441
H  H179  1  0.10880000  0.96470000  0.82050000  0.25 0.0493383441
H  H180  1  0.89120000  0.03530000  0.82050000  0.25 0.0493383441
H  H181  1  0.03530000  0.89120000  0.17950000  0.25 0.0493383441
H  H182  1  0.96470000  0.10880000  0.17950000  0.25 0.0493383441
H  H183  1  0.89120000  0.96470000  0.17950000  0.25 0.0493383441
H  H184  1  0.10880000  0.03530000  0.17950000  0.25 0.0493383441
H  H185  1  0.46470000  0.39120000  0.32050000  0.25 0.0493383441
H  H186  1  0.53530000  0.60880000  0.32050000  0.25 0.0493383441
H  H187  1  0.60880000  0.46470000  0.32050000  0.25 0.0493383441
H  H188  1  0.39120000  0.53530000  0.32050000  0.25 0.0493383441
H  H189  1  0.53530000  0.39120000  0.67950000  0.25 0.0493383441
H  H190  1  0.46470000  0.60880000  0.67950000  0.25 0.0493383441
H  H191  1  0.39120000  0.46470000  0.67950000  0.25 0.0493383441
H  H192  1  0.60880000  0.53530000  0.67950000  0.25 0.0493383441
H  H193  1  0.03950000  0.11400000  0.22170000  0.25 0.0493383441
H  H194  1  0.96050000  0.88600000  0.22170000  0.25 0.0493383441
H  H195  1  0.88600000  0.03950000  0.22170000  0.25 0.0493383441
H  H196  1  0.11400000  0.96050000  0.22170000  0.25 0.0493383441
H  H197  1  0.96050000  0.11400000  0.77830000  0.25 0.0493383441
H  H198  1  0.03950000  0.88600000  0.77830000  0.25 0.0493383441
H  H199  1  0.11400000  0.03950000  0.77830000  0.25 0.0493383441
H  H200  1  0.88600000  0.96050000  0.77830000  0.25 0.0493383441
H  H201  1  0.53950000  0.61400000  0.72170000  0.25 0.0493383441
H  H202  1  0.46050000  0.38600000  0.72170000  0.25 0.0493383441
H  H203  1  0.38600000  0.53950000  0.72170000  0.25 0.0493383441
H  H204  1  0.61400000  0.46050000  0.72170000  0.25 0.0493383441
H  H205  1  0.46050000  0.61400000  0.27830000  0.25 0.0493383441
H  H206  1  0.53950000  0.38600000  0.27830000  0.25 0.0493383441
H  H207  1  0.61400000  0.53950000  0.27830000  0.25 0.0493383441
H  H208  1  0.38600000  0.46050000  0.27830000  0.25 0.0493383441
H  H209  1  0.96050000  0.88600000  0.77830000  0.25 0.0493383441
H  H210  1  0.03950000  0.11400000  0.77830000  0.25 0.0493383441
H  H211  1  0.11400000  0.96050000  0.77830000  0.25 0.0493383441
H  H212  1  0.88600000  0.03950000  0.77830000  0.25 0.0493383441
H  H213  1  0.03950000  0.88600000  0.22170000  0.25 0.0493383441
H  H214  1  0.96050000  0.11400000  0.22170000  0.25 0.0493383441
H  H215  1  0.88600000  0.96050000  0.22170000  0.25 0.0493383441
H  H216  1  0.11400000  0.03950000  0.22170000  0.25 0.0493383441
H  H217  1  0.46050000  0.38600000  0.27830000  0.25 0.0493383441
H  H218  1  0.53950000  0.61400000  0.27830000  0.25 0.0493383441
H  H219  1  0.61400000  0.46050000  0.27830000  0.25 0.0493383441
H  H220  1  0.38600000  0.53950000  0.27830000  0.25 0.0493383441
H  H221  1  0.53950000  0.38600000  0.72170000  0.25 0.0493383441
H  H222  1  0.46050000  0.61400000  0.72170000  0.25 0.0493383441
H  H223  1  0.38600000  0.46050000  0.72170000  0.25 0.0493383441
H  H224  1  0.61400000  0.53950000  0.72170000  0.25 0.0493383441
H  H225  1  0.10920000  0.04720000  0.25940000  0.25 0.0580823781
H  H226  1  0.89080000  0.95280000  0.25940000  0.25 0.0580823781
H  H227  1  0.95280000  0.10920000  0.25940000  0.25 0.0580823781
H  H228  1  0.04720000  0.89080000  0.25940000  0.25 0.0580823781
H  H229  1  0.89080000  0.04720000  0.74060000  0.25 0.0580823781
H  H230  1  0.10920000  0.95280000  0.74060000  0.25 0.0580823781
H  H231  1  0.04720000  0.10920000  0.74060000  0.25 0.0580823781
H  H232  1  0.95280000  0.89080000  0.74060000  0.25 0.0580823781
H  H233  1  0.60920000  0.54720000  0.75940000  0.25 0.0580823781
H  H234  1  0.39080000  0.45280000  0.75940000  0.25 0.0580823781
H  H235  1  0.45280000  0.60920000  0.75940000  0.25 0.0580823781
H  H236  1  0.54720000  0.39080000  0.75940000  0.25 0.0580823781
H  H237  1  0.39080000  0.54720000  0.24060000  0.25 0.0580823781
H  H238  1  0.60920000  0.45280000  0.24060000  0.25 0.0580823781
H  H239  1  0.54720000  0.60920000  0.24060000  0.25 0.0580823781
H  H240  1  0.45280000  0.39080000  0.24060000  0.25 0.0580823781
H  H241  1  0.89080000  0.95280000  0.74060000  0.25 0.0580823781
H  H242  1  0.10920000  0.04720000  0.74060000  0.25 0.0580823781
H  H243  1  0.04720000  0.89080000  0.74060000  0.25 0.0580823781
H  H244  1  0.95280000  0.10920000  0.74060000  0.25 0.0580823781
H  H245  1  0.10920000  0.95280000  0.25940000  0.25 0.0580823781
H  H246  1  0.89080000  0.04720000  0.25940000  0.25 0.0580823781
H  H247  1  0.95280000  0.89080000  0.25940000  0.25 0.0580823781
H  H248  1  0.04720000  0.10920000  0.25940000  0.25 0.0580823781
H  H249  1  0.39080000  0.45280000  0.24060000  0.25 0.0580823781
H  H250  1  0.60920000  0.54720000  0.24060000  0.25 0.0580823781
H  H251  1  0.54720000  0.39080000  0.24060000  0.25 0.0580823781
H  H252  1  0.45280000  0.60920000  0.24060000  0.25 0.0580823781
H  H253  1  0.60920000  0.45280000  0.75940000  0.25 0.0580823781
H  H254  1  0.39080000  0.54720000  0.75940000  0.25 0.0580823781
H  H255  1  0.45280000  0.39080000  0.75940000  0.25 0.0580823781
H  H256  1  0.54720000  0.60920000  0.75940000  0.25 0.0580823781
H  H257  1  0.10590000  0.04550000  0.30160000  0.25 0.0580823781
H  H258  1  0.89410000  0.95450000  0.30160000  0.25 0.0580823781
H  H259  1  0.95450000  0.10590000  0.30160000  0.25 0.0580823781
H  H260  1  0.04550000  0.89410000  0.30160000  0.25 0.0580823781
H  H261  1  0.89410000  0.04550000  0.69840000  0.25 0.0580823781
H  H262  1  0.10590000  0.95450000  0.69840000  0.25 0.0580823781
H  H263  1  0.04550000  0.10590000  0.69840000  0.25 0.0580823781
H  H264  1  0.95450000  0.89410000  0.69840000  0.25 0.0580823781
H  H265  1  0.60590000  0.54550000  0.80160000  0.25 0.0580823781
H  H266  1  0.39410000  0.45450000  0.80160000  0.25 0.0580823781
H  H267  1  0.45450000  0.60590000  0.80160000  0.25 0.0580823781
H  H268  1  0.54550000  0.39410000  0.80160000  0.25 0.0580823781
H  H269  1  0.39410000  0.54550000  0.19840000  0.25 0.0580823781
H  H270  1  0.60590000  0.45450000  0.19840000  0.25 0.0580823781
H  H271  1  0.54550000  0.60590000  0.19840000  0.25 0.0580823781
H  H272  1  0.45450000  0.39410000  0.19840000  0.25 0.0580823781
H  H273  1  0.89410000  0.95450000  0.69840000  0.25 0.0580823781
H  H274  1  0.10590000  0.04550000  0.69840000  0.25 0.0580823781
H  H275  1  0.04550000  0.89410000  0.69840000  0.25 0.0580823781
H  H276  1  0.95450000  0.10590000  0.69840000  0.25 0.0580823781
H  H277  1  0.10590000  0.95450000  0.30160000  0.25 0.0580823781
H  H278  1  0.89410000  0.04550000  0.30160000  0.25 0.0580823781
H  H279  1  0.95450000  0.89410000  0.30160000  0.25 0.0580823781
H  H280  1  0.04550000  0.10590000  0.30160000  0.25 0.0580823781
H  H281  1  0.39410000  0.45450000  0.19840000  0.25 0.0580823781
H  H282  1  0.60590000  0.54550000  0.19840000  0.25 0.0580823781
H  H283  1  0.54550000  0.39410000  0.19840000  0.25 0.0580823781
H  H284  1  0.45450000  0.60590000  0.19840000  0.25 0.0580823781
H  H285  1  0.60590000  0.45450000  0.80160000  0.25 0.0580823781
H  H286  1  0.39410000  0.54550000  0.80160000  0.25 0.0580823781
H  H287  1  0.45450000  0.39410000  0.80160000  0.25 0.0580823781
H  H288  1  0.54550000  0.60590000  0.80160000  0.25 0.0580823781
H  H289  1  0.45370000  0.39470000  0.06110000  0.25 0.0580823781
H  H290  1  0.54630000  0.60530000  0.06110000  0.25 0.0580823781
H  H291  1  0.60530000  0.45370000  0.06110000  0.25 0.0580823781
H  H292  1  0.39470000  0.54630000  0.06110000  0.25 0.0580823781
H  H293  1  0.54630000  0.39470000  0.93890000  0.25 0.0580823781
H  H294  1  0.45370000  0.60530000  0.93890000  0.25 0.0580823781
H  H295  1  0.39470000  0.45370000  0.93890000  0.25 0.0580823781
H  H296  1  0.60530000  0.54630000  0.93890000  0.25 0.0580823781
H  H297  1  0.95370000  0.89470000  0.56110000  0.25 0.0580823781
H  H298  1  0.04630000  0.10530000  0.56110000  0.25 0.0580823781
H  H299  1  0.10530000  0.95370000  0.56110000  0.25 0.0580823781
H  H300  1  0.89470000  0.04630000  0.56110000  0.25 0.0580823781
H  H301  1  0.04630000  0.89470000  0.43890000  0.25 0.0580823781
H  H302  1  0.95370000  0.10530000  0.43890000  0.25 0.0580823781
H  H303  1  0.89470000  0.95370000  0.43890000  0.25 0.0580823781
H  H304  1  0.10530000  0.04630000  0.43890000  0.25 0.0580823781
H  H305  1  0.54630000  0.60530000  0.93890000  0.25 0.0580823781
H  H306  1  0.45370000  0.39470000  0.93890000  0.25 0.0580823781
H  H307  1  0.39470000  0.54630000  0.93890000  0.25 0.0580823781
H  H308  1  0.60530000  0.45370000  0.93890000  0.25 0.0580823781
H  H309  1  0.45370000  0.60530000  0.06110000  0.25 0.0580823781
H  H310  1  0.54630000  0.39470000  0.06110000  0.25 0.0580823781
H  H311  1  0.60530000  0.54630000  0.06110000  0.25 0.0580823781
H  H312  1  0.39470000  0.45370000  0.06110000  0.25 0.0580823781
H  H313  1  0.04630000  0.10530000  0.43890000  0.25 0.0580823781
H  H314  1  0.95370000  0.89470000  0.43890000  0.25 0.0580823781
H  H315  1  0.89470000  0.04630000  0.43890000  0.25 0.0580823781
H  H316  1  0.10530000  0.95370000  0.43890000  0.25 0.0580823781
H  H317  1  0.95370000  0.10530000  0.56110000  0.25 0.0580823781
H  H318  1  0.04630000  0.89470000  0.56110000  0.25 0.0580823781
H  H319  1  0.10530000  0.04630000  0.56110000  0.25 0.0580823781
H  H320  1  0.89470000  0.95370000  0.56110000  0.25 0.0580823781
H  H321  1  0.45520000  0.39000000  0.01840000  0.25 0.0580823781
H  H322  1  0.54480000  0.61000000  0.01840000  0.25 0.0580823781
H  H323  1  0.61000000  0.45520000  0.01840000  0.25 0.0580823781
H  H324  1  0.39000000  0.54480000  0.01840000  0.25 0.0580823781
H  H325  1  0.54480000  0.39000000  0.98160000  0.25 0.0580823781
H  H326  1  0.45520000  0.61000000  0.98160000  0.25 0.0580823781
H  H327  1  0.39000000  0.45520000  0.98160000  0.25 0.0580823781
H  H328  1  0.61000000  0.54480000  0.98160000  0.25 0.0580823781
H  H329  1  0.95520000  0.89000000  0.51840000  0.25 0.0580823781
H  H330  1  0.04480000  0.11000000  0.51840000  0.25 0.0580823781
H  H331  1  0.11000000  0.95520000  0.51840000  0.25 0.0580823781
H  H332  1  0.89000000  0.04480000  0.51840000  0.25 0.0580823781
H  H333  1  0.04480000  0.89000000  0.48160000  0.25 0.0580823781
H  H334  1  0.95520000  0.11000000  0.48160000  0.25 0.0580823781
H  H335  1  0.89000000  0.95520000  0.48160000  0.25 0.0580823781
H  H336  1  0.11000000  0.04480000  0.48160000  0.25 0.0580823781
H  H337  1  0.54480000  0.61000000  0.98160000  0.25 0.0580823781
H  H338  1  0.45520000  0.39000000  0.98160000  0.25 0.0580823781
H  H339  1  0.39000000  0.54480000  0.98160000  0.25 0.0580823781
H  H340  1  0.61000000  0.45520000  0.98160000  0.25 0.0580823781
H  H341  1  0.45520000  0.61000000  0.01840000  0.25 0.0580823781
H  H342  1  0.54480000  0.39000000  0.01840000  0.25 0.0580823781
H  H343  1  0.61000000  0.54480000  0.01840000  0.25 0.0580823781
H  H344  1  0.39000000  0.45520000  0.01840000  0.25 0.0580823781
H  H345  1  0.04480000  0.11000000  0.48160000  0.25 0.0580823781
H  H346  1  0.95520000  0.89000000  0.48160000  0.25 0.0580823781
H  H347  1  0.89000000  0.04480000  0.48160000  0.25 0.0580823781
H  H348  1  0.11000000  0.95520000  0.48160000  0.25 0.0580823781
H  H349  1  0.95520000  0.11000000  0.51840000  0.25 0.0580823781
H  H350  1  0.04480000  0.89000000  0.51840000  0.25 0.0580823781
H  H351  1  0.11000000  0.04480000  0.51840000  0.25 0.0580823781
H  H352  1  0.89000000  0.95520000  0.51840000  0.25 0.0580823781
H  H33  1  0.20210000  0.23730000  0.09340000  0.5 0.0748550944
H  H34  1  0.79790000  0.76270000  0.09340000  0.5 0.0748550944
H  H35  1  0.76270000  0.20210000  0.09340000  0.5 0.0748550944
H  H36  1  0.23730000  0.79790000  0.09340000  0.5 0.0748550944
H  H37  1  0.79790000  0.23730000  0.90660000  0.5 0.0748550944
H  H38  1  0.20210000  0.76270000  0.90660000  0.5 0.0748550944
H  H39  1  0.23730000  0.20210000  0.90660000  0.5 0.0748550944
H  H40  1  0.76270000  0.79790000  0.90660000  0.5 0.0748550944
H  H41  1  0.70210000  0.73730000  0.59340000  0.5 0.0748550944
H  H42  1  0.29790000  0.26270000  0.59340000  0.5 0.0748550944
H  H43  1  0.26270000  0.70210000  0.59340000  0.5 0.0748550944
H  H44  1  0.73730000  0.29790000  0.59340000  0.5 0.0748550944
H  H45  1  0.29790000  0.73730000  0.40660000  0.5 0.0748550944
H  H46  1  0.70210000  0.26270000  0.40660000  0.5 0.0748550944
H  H47  1  0.73730000  0.70210000  0.40660000  0.5 0.0748550944
H  H48  1  0.26270000  0.29790000  0.40660000  0.5 0.0748550944
H  H49  1  0.79790000  0.76270000  0.90660000  0.5 0.0748550944
H  H50  1  0.20210000  0.23730000  0.90660000  0.5 0.0748550944
H  H51  1  0.23730000  0.79790000  0.90660000  0.5 0.0748550944
H  H52  1  0.76270000  0.20210000  0.90660000  0.5 0.0748550944
H  H53  1  0.20210000  0.76270000  0.09340000  0.5 0.0748550944
H  H54  1  0.79790000  0.23730000  0.09340000  0.5 0.0748550944
H  H55  1  0.76270000  0.79790000  0.09340000  0.5 0.0748550944
H  H56  1  0.23730000  0.20210000  0.09340000  0.5 0.0748550944
H  H57  1  0.29790000  0.26270000  0.40660000  0.5 0.0748550944
H  H58  1  0.70210000  0.73730000  0.40660000  0.5 0.0748550944
H  H59  1  0.73730000  0.29790000  0.40660000  0.5 0.0748550944
H  H60  1  0.26270000  0.70210000  0.40660000  0.5 0.0748550944
H  H61  1  0.70210000  0.26270000  0.59340000  0.5 0.0748550944
H  H62  1  0.29790000  0.73730000  0.59340000  0.5 0.0748550944
H  H63  1  0.26270000  0.29790000  0.59340000  0.5 0.0748550944
H  H64  1  0.73730000  0.70210000  0.59340000  0.5 0.0748550944
H  H65  1  0.29890000  0.33650000  0.09370000  0.5 0.0793327294
H  H66  1  0.70110000  0.66350000  0.09370000  0.5 0.0793327294
H  H67  1  0.66350000  0.29890000  0.09370000  0.5 0.0793327294
H  H68  1  0.33650000  0.70110000  0.09370000  0.5 0.0793327294
H  H69  1  0.70110000  0.33650000  0.90630000  0.5 0.0793327294
H  H70  1  0.29890000  0.66350000  0.90630000  0.5 0.0793327294
H  H71  1  0.33650000  0.29890000  0.90630000  0.5 0.0793327294
H  H72  1  0.66350000  0.70110000  0.90630000  0.5 0.0793327294
H  H73  1  0.79890000  0.83650000  0.59370000  0.5 0.0793327294
H  H74  1  0.20110000  0.16350000  0.59370000  0.5 0.0793327294
H  H75  1  0.16350000  0.79890000  0.59370000  0.5 0.0793327294
H  H76  1  0.83650000  0.20110000  0.59370000  0.5 0.0793327294
H  H77  1  0.20110000  0.83650000  0.40630000  0.5 0.0793327294
H  H78  1  0.79890000  0.16350000  0.40630000  0.5 0.0793327294
H  H79  1  0.83650000  0.79890000  0.40630000  0.5 0.0793327294
H  H80  1  0.16350000  0.20110000  0.40630000  0.5 0.0793327294
H  H81  1  0.70110000  0.66350000  0.90630000  0.5 0.0793327294
H  H82  1  0.29890000  0.33650000  0.90630000  0.5 0.0793327294
H  H83  1  0.33650000  0.70110000  0.90630000  0.5 0.0793327294
H  H84  1  0.66350000  0.29890000  0.90630000  0.5 0.0793327294
H  H85  1  0.29890000  0.66350000  0.09370000  0.5 0.0793327294
H  H86  1  0.70110000  0.33650000  0.09370000  0.5 0.0793327294
H  H87  1  0.66350000  0.70110000  0.09370000  0.5 0.0793327294
H  H88  1  0.33650000  0.29890000  0.09370000  0.5 0.0793327294
H  H89  1  0.20110000  0.16350000  0.40630000  0.5 0.0793327294
H  H90  1  0.79890000  0.83650000  0.40630000  0.5 0.0793327294
H  H91  1  0.83650000  0.20110000  0.40630000  0.5 0.0793327294
H  H92  1  0.16350000  0.79890000  0.40630000  0.5 0.0793327294
H  H93  1  0.79890000  0.16350000  0.59370000  0.5 0.0793327294
H  H94  1  0.20110000  0.83650000  0.59370000  0.5 0.0793327294
H  H95  1  0.16350000  0.20110000  0.59370000  0.5 0.0793327294
H  H96  1  0.83650000  0.79890000  0.59370000  0.5 0.0793327294
H  H97  1  0.33420000  0.30000000  0.16540000  0.5 0.0793327294
H  H98  1  0.66580000  0.70000000  0.16540000  0.5 0.0793327294
H  H99  1  0.70000000  0.33420000  0.16540000  0.5 0.0793327294
H  H100  1  0.30000000  0.66580000  0.16540000  0.5 0.0793327294
H  H101  1  0.66580000  0.30000000  0.83460000  0.5 0.0793327294
H  H102  1  0.33420000  0.70000000  0.83460000  0.5 0.0793327294
H  H103  1  0.30000000  0.33420000  0.83460000  0.5 0.0793327294
H  H104  1  0.70000000  0.66580000  0.83460000  0.5 0.0793327294
H  H105  1  0.83420000  0.80000000  0.66540000  0.5 0.0793327294
H  H106  1  0.16580000  0.20000000  0.66540000  0.5 0.0793327294
H  H107  1  0.20000000  0.83420000  0.66540000  0.5 0.0793327294
H  H108  1  0.80000000  0.16580000  0.66540000  0.5 0.0793327294
H  H109  1  0.16580000  0.80000000  0.33460000  0.5 0.0793327294
H  H110  1  0.83420000  0.20000000  0.33460000  0.5 0.0793327294
H  H111  1  0.80000000  0.83420000  0.33460000  0.5 0.0793327294
H  H112  1  0.20000000  0.16580000  0.33460000  0.5 0.0793327294
H  H113  1  0.66580000  0.70000000  0.83460000  0.5 0.0793327294
H  H114  1  0.33420000  0.30000000  0.83460000  0.5 0.0793327294
H  H115  1  0.30000000  0.66580000  0.83460000  0.5 0.0793327294
H  H116  1  0.70000000  0.33420000  0.83460000  0.5 0.0793327294
H  H117  1  0.33420000  0.70000000  0.16540000  0.5 0.0793327294
H  H118  1  0.66580000  0.30000000  0.16540000  0.5 0.0793327294
H  H119  1  0.70000000  0.66580000  0.16540000  0.5 0.0793327294
H  H120  1  0.30000000  0.33420000  0.16540000  0.5 0.0793327294
H  H121  1  0.16580000  0.20000000  0.33460000  0.5 0.0793327294
H  H122  1  0.83420000  0.80000000  0.33460000  0.5 0.0793327294
H  H123  1  0.80000000  0.16580000  0.33460000  0.5 0.0793327294
H  H124  1  0.20000000  0.83420000  0.33460000  0.5 0.0793327294
H  H125  1  0.83420000  0.20000000  0.66540000  0.5 0.0793327294
H  H126  1  0.16580000  0.80000000  0.66540000  0.5 0.0793327294
H  H127  1  0.20000000  0.16580000  0.66540000  0.5 0.0793327294
H  H128  1  0.80000000  0.83420000  0.66540000  0.5 0.0793327294
H  H129  1  0.23740000  0.20190000  0.16530000  0.5 0.0793327294
H  H130  1  0.76260000  0.79810000  0.16530000  0.5 0.0793327294
H  H131  1  0.79810000  0.23740000  0.16530000  0.5 0.0793327294
H  H132  1  0.20190000  0.76260000  0.16530000  0.5 0.0793327294
H  H133  1  0.76260000  0.20190000  0.83470000  0.5 0.0793327294
H  H134  1  0.23740000  0.79810000  0.83470000  0.5 0.0793327294
H  H135  1  0.20190000  0.23740000  0.83470000  0.5 0.0793327294
H  H136  1  0.79810000  0.76260000  0.83470000  0.5 0.0793327294
H  H137  1  0.73740000  0.70190000  0.66530000  0.5 0.0793327294
H  H138  1  0.26260000  0.29810000  0.66530000  0.5 0.0793327294
H  H139  1  0.29810000  0.73740000  0.66530000  0.5 0.0793327294
H  H140  1  0.70190000  0.26260000  0.66530000  0.5 0.0793327294
H  H141  1  0.26260000  0.70190000  0.33470000  0.5 0.0793327294
H  H142  1  0.73740000  0.29810000  0.33470000  0.5 0.0793327294
H  H143  1  0.70190000  0.73740000  0.33470000  0.5 0.0793327294
H  H144  1  0.29810000  0.26260000  0.33470000  0.5 0.0793327294
H  H145  1  0.76260000  0.79810000  0.83470000  0.5 0.0793327294
H  H146  1  0.23740000  0.20190000  0.83470000  0.5 0.0793327294
H  H147  1  0.20190000  0.76260000  0.83470000  0.5 0.0793327294
H  H148  1  0.79810000  0.23740000  0.83470000  0.5 0.0793327294
H  H149  1  0.23740000  0.79810000  0.16530000  0.5 0.0793327294
H  H150  1  0.76260000  0.20190000  0.16530000  0.5 0.0793327294
H  H151  1  0.79810000  0.76260000  0.16530000  0.5 0.0793327294
H  H152  1  0.20190000  0.23740000  0.16530000  0.5 0.0793327294
H  H153  1  0.26260000  0.29810000  0.33470000  0.5 0.0793327294
H  H154  1  0.73740000  0.70190000  0.33470000  0.5 0.0793327294
H  H155  1  0.70190000  0.26260000  0.33470000  0.5 0.0793327294
H  H156  1  0.29810000  0.73740000  0.33470000  0.5 0.0793327294
H  H157  1  0.73740000  0.29810000  0.66530000  0.5 0.0793327294
H  H158  1  0.26260000  0.70190000  0.66530000  0.5 0.0793327294
H  H159  1  0.29810000  0.26260000  0.66530000  0.5 0.0793327294
H  H160  1  0.70190000  0.73740000  0.66530000  0.5 0.0793327294
C  C1  1  0.17109000  0.06572000  0.12935000  1.0 0.1345045889
C  C2  1  0.82891000  0.93428000  0.12935000  1.0 0.1345045889
C  C3  1  0.93428000  0.17109000  0.12935000  1.0 0.1345045889
C  C4  1  0.06572000  0.82891000  0.12935000  1.0 0.1345045889
C  C5  1  0.82891000  0.06572000  0.87065000  1.0 0.1345045889
C  C6  1  0.17109000  0.93428000  0.87065000  1.0 0.1345045889
C  C7  1  0.06572000  0.17109000  0.87065000  1.0 0.1345045889
C  C8  1  0.93428000  0.82891000  0.87065000  1.0 0.1345045889
C  C9  1  0.67109000  0.56572000  0.62935000  1.0 0.1345045889
C  C10  1  0.32891000  0.43428000  0.62935000  1.0 0.1345045889
C  C11  1  0.43428000  0.67109000  0.62935000  1.0 0.1345045889
C  C12  1  0.56572000  0.32891000  0.62935000  1.0 0.1345045889
C  C13  1  0.32891000  0.56572000  0.37065000  1.0 0.1345045889
C  C14  1  0.67109000  0.43428000  0.37065000  1.0 0.1345045889
C  C15  1  0.56572000  0.67109000  0.37065000  1.0 0.1345045889
C  C16  1  0.43428000  0.32891000  0.37065000  1.0 0.1345045889
C  C17  1  0.82891000  0.93428000  0.87065000  1.0 0.1345045889
C  C18  1  0.17109000  0.06572000  0.87065000  1.0 0.1345045889
C  C19  1  0.06572000  0.82891000  0.87065000  1.0 0.1345045889
C  C20  1  0.93428000  0.17109000  0.87065000  1.0 0.1345045889
C  C21  1  0.17109000  0.93428000  0.12935000  1.0 0.1345045889
C  C22  1  0.82891000  0.06572000  0.12935000  1.0 0.1345045889
C  C23  1  0.93428000  0.82891000  0.12935000  1.0 0.1345045889
C  C24  1  0.06572000  0.17109000  0.12935000  1.0 0.1345045889
C  C25  1  0.32891000  0.43428000  0.37065000  1.0 0.1345045889
C  C26  1  0.67109000  0.56572000  0.37065000  1.0 0.1345045889
C  C27  1  0.56572000  0.32891000  0.37065000  1.0 0.1345045889
C  C28  1  0.43428000  0.67109000  0.37065000  1.0 0.1345045889
C  C29  1  0.67109000  0.43428000  0.62935000  1.0 0.1345045889
C  C30  1  0.32891000  0.56572000  0.62935000  1.0 0.1345045889
C  C31  1  0.43428000  0.32891000  0.62935000  1.0 0.1345045889
C  C32  1  0.56572000  0.67109000  0.62935000  1.0 0.1345045889
C  C33  1  0.25348000  0.04027000  0.12862000  1.0 -0.2031584092
C  C34  1  0.74652000  0.95973000  0.12862000  1.0 -0.2031584092
C  C35  1  0.95973000  0.25348000  0.12862000  1.0 -0.2031584092
C  C36  1  0.04027000  0.74652000  0.12862000  1.0 -0.2031584092
C  C37  1  0.74652000  0.04027000  0.87138000  1.0 -0.2031584092
C  C38  1  0.25348000  0.95973000  0.87138000  1.0 -0.2031584092
C  C39  1  0.04027000  0.25348000  0.87138000  1.0 -0.2031584092
C  C40  1  0.95973000  0.74652000  0.87138000  1.0 -0.2031584092
C  C41  1  0.75348000  0.54027000  0.62862000  1.0 -0.2031584092
C  C42  1  0.24652000  0.45973000  0.62862000  1.0 -0.2031584092
C  C43  1  0.45973000  0.75348000  0.62862000  1.0 -0.2031584092
C  C44  1  0.54027000  0.24652000  0.62862000  1.0 -0.2031584092
C  C45  1  0.24652000  0.54027000  0.37138000  1.0 -0.2031584092
C  C46  1  0.75348000  0.45973000  0.37138000  1.0 -0.2031584092
C  C47  1  0.54027000  0.75348000  0.37138000  1.0 -0.2031584092
C  C48  1  0.45973000  0.24652000  0.37138000  1.0 -0.2031584092
C  C49  1  0.74652000  0.95973000  0.87138000  1.0 -0.2031584092
C  C50  1  0.25348000  0.04027000  0.87138000  1.0 -0.2031584092
C  C51  1  0.04027000  0.74652000  0.87138000  1.0 -0.2031584092
C  C52  1  0.95973000  0.25348000  0.87138000  1.0 -0.2031584092
C  C53  1  0.25348000  0.95973000  0.12862000  1.0 -0.2031584092
C  C54  1  0.74652000  0.04027000  0.12862000  1.0 -0.2031584092
C  C55  1  0.95973000  0.74652000  0.12862000  1.0 -0.2031584092
C  C56  1  0.04027000  0.25348000  0.12862000  1.0 -0.2031584092
C  C57  1  0.24652000  0.45973000  0.37138000  1.0 -0.2031584092
C  C58  1  0.75348000  0.54027000  0.37138000  1.0 -0.2031584092
C  C59  1  0.54027000  0.24652000  0.37138000  1.0 -0.2031584092
C  C60  1  0.45973000  0.75348000  0.37138000  1.0 -0.2031584092
C  C61  1  0.75348000  0.45973000  0.62862000  1.0 -0.2031584092
C  C62  1  0.24652000  0.54027000  0.62862000  1.0 -0.2031584092
C  C63  1  0.45973000  0.24652000  0.62862000  1.0 -0.2031584092
C  C64  1  0.54027000  0.75348000  0.62862000  1.0 -0.2031584092
C  C65  1  0.14574000  0.14574000  0.12943000  1.0 -0.1355416182
C  C66  1  0.85426000  0.85426000  0.12943000  1.0 -0.1355416182
C  C67  1  0.85426000  0.14574000  0.12943000  1.0 -0.1355416182
C  C68  1  0.14574000  0.85426000  0.12943000  1.0 -0.1355416182
C  C69  1  0.85426000  0.14574000  0.87057000  1.0 -0.1355416182
C  C70  1  0.14574000  0.85426000  0.87057000  1.0 -0.1355416182
C  C71  1  0.14574000  0.14574000  0.87057000  1.0 -0.1355416182
C  C72  1  0.85426000  0.85426000  0.87057000  1.0 -0.1355416182
C  C73  1  0.64574000  0.64574000  0.62943000  1.0 -0.1355416182
C  C74  1  0.35426000  0.35426000  0.62943000  1.0 -0.1355416182
C  C75  1  0.35426000  0.64574000  0.62943000  1.0 -0.1355416182
C  C76  1  0.64574000  0.35426000  0.62943000  1.0 -0.1355416182
C  C77  1  0.35426000  0.64574000  0.37057000  1.0 -0.1355416182
C  C78  1  0.64574000  0.35426000  0.37057000  1.0 -0.1355416182
C  C79  1  0.64574000  0.64574000  0.37057000  1.0 -0.1355416182
C  C80  1  0.35426000  0.35426000  0.37057000  1.0 -0.1355416182
C  C81  1  0.20909000  0.20909000  0.12938000  1.0 0.0223826185
C  C82  1  0.79091000  0.79091000  0.12938000  1.0 0.0223826185
C  C83  1  0.79091000  0.20909000  0.12938000  1.0 0.0223826185
C  C84  1  0.20909000  0.79091000  0.12938000  1.0 0.0223826185
C  C85  1  0.79091000  0.20909000  0.87062000  1.0 0.0223826185
C  C86  1  0.20909000  0.79091000  0.87062000  1.0 0.0223826185
C  C87  1  0.20909000  0.20909000  0.87062000  1.0 0.0223826185
C  C88  1  0.79091000  0.79091000  0.87062000  1.0 0.0223826185
C  C89  1  0.70909000  0.70909000  0.62938000  1.0 0.0223826185
C  C90  1  0.29091000  0.29091000  0.62938000  1.0 0.0223826185
C  C91  1  0.29091000  0.70909000  0.62938000  1.0 0.0223826185
C  C92  1  0.70909000  0.29091000  0.62938000  1.0 0.0223826185
C  C93  1  0.29091000  0.70909000  0.37062000  1.0 0.0223826185
C  C94  1  0.70909000  0.29091000  0.37062000  1.0 0.0223826185
C  C95  1  0.70909000  0.70909000  0.37062000  1.0 0.0223826185
C  C96  1  0.29091000  0.29091000  0.37062000  1.0 0.0223826185
C  C97  1  0.32743000  0.32743000  0.12941000  1.0 -0.033429812
C  C98  1  0.67257000  0.67257000  0.12941000  1.0 -0.033429812
C  C99  1  0.67257000  0.32743000  0.12941000  1.0 -0.033429812
C  C100  1  0.32743000  0.67257000  0.12941000  1.0 -0.033429812
C  C101  1  0.67257000  0.32743000  0.87059000  1.0 -0.033429812
C  C102  1  0.32743000  0.67257000  0.87059000  1.0 -0.033429812
C  C103  1  0.32743000  0.32743000  0.87059000  1.0 -0.033429812
C  C104  1  0.67257000  0.67257000  0.87059000  1.0 -0.033429812
C  C105  1  0.82743000  0.82743000  0.62941000  1.0 -0.033429812
C  C106  1  0.17257000  0.17257000  0.62941000  1.0 -0.033429812
C  C107  1  0.17257000  0.82743000  0.62941000  1.0 -0.033429812
C  C108  1  0.82743000  0.17257000  0.62941000  1.0 -0.033429812
C  C109  1  0.17257000  0.82743000  0.37059000  1.0 -0.033429812
C  C110  1  0.82743000  0.17257000  0.37059000  1.0 -0.033429812
C  C111  1  0.82743000  0.82743000  0.37059000  1.0 -0.033429812
C  C112  1  0.17257000  0.17257000  0.37059000  1.0 -0.033429812
C  C113  1  0.39121000  0.39121000  0.12939000  1.0 0.4619094596
C  C114  1  0.60879000  0.60879000  0.12939000  1.0 0.4619094596
C  C115  1  0.60879000  0.39121000  0.12939000  1.0 0.4619094596
C  C116  1  0.39121000  0.60879000  0.12939000  1.0 0.4619094596
C  C117  1  0.60879000  0.39121000  0.87061000  1.0 0.4619094596
C  C118  1  0.39121000  0.60879000  0.87061000  1.0 0.4619094596
C  C119  1  0.39121000  0.39121000  0.87061000  1.0 0.4619094596
C  C120  1  0.60879000  0.60879000  0.87061000  1.0 0.4619094596
C  C121  1  0.89121000  0.89121000  0.62939000  1.0 0.4619094596
C  C122  1  0.10879000  0.10879000  0.62939000  1.0 0.4619094596
C  C123  1  0.10879000  0.89121000  0.62939000  1.0 0.4619094596
C  C124  1  0.89121000  0.10879000  0.62939000  1.0 0.4619094596
C  C125  1  0.10879000  0.89121000  0.37061000  1.0 0.4619094596
C  C126  1  0.89121000  0.10879000  0.37061000  1.0 0.4619094596
C  C127  1  0.89121000  0.89121000  0.37061000  1.0 0.4619094596
C  C128  1  0.10879000  0.10879000  0.37061000  1.0 0.4619094596
C  C257  1  0.00000000  0.00000000  0.22715000  1.0 0.0015664925
C  C258  1  0.00000000  0.00000000  0.77285000  1.0 0.0015664925
C  C259  1  0.50000000  0.50000000  0.72715000  1.0 0.0015664925
C  C260  1  0.50000000  0.50000000  0.27285000  1.0 0.0015664925
C  C261  1  0.00000000  0.00000000  0.25433000  1.0 -0.033429812
C  C262  1  0.00000000  0.00000000  0.74567000  1.0 -0.033429812
C  C263  1  0.50000000  0.50000000  0.75433000  1.0 -0.033429812
C  C264  1  0.50000000  0.50000000  0.24567000  1.0 -0.033429812
C  C457  1  0.50000000  0.50000000  0.01379000  1.0 -0.033429812
C  C458  1  0.50000000  0.50000000  0.98621000  1.0 -0.033429812
C  C459  1  0.00000000  0.00000000  0.51379000  1.0 -0.033429812
C  C460  1  0.00000000  0.00000000  0.48621000  1.0 -0.033429812
C  C265  1  0.02090000  0.06320000  0.18827000  0.25 -0.0062835787
C  C266  1  0.97910000  0.93680000  0.18827000  0.25 -0.0062835787
C  C267  1  0.93680000  0.02090000  0.18827000  0.25 -0.0062835787
C  C268  1  0.06320000  0.97910000  0.18827000  0.25 -0.0062835787
C  C269  1  0.97910000  0.06320000  0.81173000  0.25 -0.0062835787
C  C270  1  0.02090000  0.93680000  0.81173000  0.25 -0.0062835787
C  C271  1  0.06320000  0.02090000  0.81173000  0.25 -0.0062835787
C  C272  1  0.93680000  0.97910000  0.81173000  0.25 -0.0062835787
C  C273  1  0.52090000  0.56320000  0.68827000  0.25 -0.0062835787
C  C274  1  0.47910000  0.43680000  0.68827000  0.25 -0.0062835787
C  C275  1  0.43680000  0.52090000  0.68827000  0.25 -0.0062835787
C  C276  1  0.56320000  0.47910000  0.68827000  0.25 -0.0062835787
C  C277  1  0.47910000  0.56320000  0.31173000  0.25 -0.0062835787
C  C278  1  0.52090000  0.43680000  0.31173000  0.25 -0.0062835787
C  C279  1  0.56320000  0.52090000  0.31173000  0.25 -0.0062835787
C  C280  1  0.43680000  0.47910000  0.31173000  0.25 -0.0062835787
C  C281  1  0.97910000  0.93680000  0.81173000  0.25 -0.0062835787
C  C282  1  0.02090000  0.06320000  0.81173000  0.25 -0.0062835787
C  C283  1  0.06320000  0.97910000  0.81173000  0.25 -0.0062835787
C  C284  1  0.93680000  0.02090000  0.81173000  0.25 -0.0062835787
C  C285  1  0.02090000  0.93680000  0.18827000  0.25 -0.0062835787
C  C286  1  0.97910000  0.06320000  0.18827000  0.25 -0.0062835787
C  C287  1  0.93680000  0.97910000  0.18827000  0.25 -0.0062835787
C  C288  1  0.06320000  0.02090000  0.18827000  0.25 -0.0062835787
C  C289  1  0.47910000  0.43680000  0.31173000  0.25 -0.0062835787
C  C290  1  0.52090000  0.56320000  0.31173000  0.25 -0.0062835787
C  C291  1  0.56320000  0.47910000  0.31173000  0.25 -0.0062835787
C  C292  1  0.43680000  0.52090000  0.31173000  0.25 -0.0062835787
C  C293  1  0.52090000  0.43680000  0.68827000  0.25 -0.0062835787
C  C294  1  0.47910000  0.56320000  0.68827000  0.25 -0.0062835787
C  C295  1  0.43680000  0.47910000  0.68827000  0.25 -0.0062835787
C  C296  1  0.56320000  0.52090000  0.68827000  0.25 -0.0062835787
C  C297  1  0.02310000  0.06750000  0.21376000  0.25 -0.0453396564
C  C298  1  0.97690000  0.93250000  0.21376000  0.25 -0.0453396564
C  C299  1  0.93250000  0.02310000  0.21376000  0.25 -0.0453396564
C  C300  1  0.06750000  0.97690000  0.21376000  0.25 -0.0453396564
C  C301  1  0.97690000  0.06750000  0.78624000  0.25 -0.0453396564
C  C302  1  0.02310000  0.93250000  0.78624000  0.25 -0.0453396564
C  C303  1  0.06750000  0.02310000  0.78624000  0.25 -0.0453396564
C  C304  1  0.93250000  0.97690000  0.78624000  0.25 -0.0453396564
C  C305  1  0.52310000  0.56750000  0.71376000  0.25 -0.0453396564
C  C306  1  0.47690000  0.43250000  0.71376000  0.25 -0.0453396564
C  C307  1  0.43250000  0.52310000  0.71376000  0.25 -0.0453396564
C  C308  1  0.56750000  0.47690000  0.71376000  0.25 -0.0453396564
C  C309  1  0.47690000  0.56750000  0.28624000  0.25 -0.0453396564
C  C310  1  0.52310000  0.43250000  0.28624000  0.25 -0.0453396564
C  C311  1  0.56750000  0.52310000  0.28624000  0.25 -0.0453396564
C  C312  1  0.43250000  0.47690000  0.28624000  0.25 -0.0453396564
C  C313  1  0.97690000  0.93250000  0.78624000  0.25 -0.0453396564
C  C314  1  0.02310000  0.06750000  0.78624000  0.25 -0.0453396564
C  C315  1  0.06750000  0.97690000  0.78624000  0.25 -0.0453396564
C  C316  1  0.93250000  0.02310000  0.78624000  0.25 -0.0453396564
C  C317  1  0.02310000  0.93250000  0.21376000  0.25 -0.0453396564
C  C318  1  0.97690000  0.06750000  0.21376000  0.25 -0.0453396564
C  C319  1  0.93250000  0.97690000  0.21376000  0.25 -0.0453396564
C  C320  1  0.06750000  0.02310000  0.21376000  0.25 -0.0453396564
C  C321  1  0.47690000  0.43250000  0.28624000  0.25 -0.0453396564
C  C322  1  0.52310000  0.56750000  0.28624000  0.25 -0.0453396564
C  C323  1  0.56750000  0.47690000  0.28624000  0.25 -0.0453396564
C  C324  1  0.43250000  0.52310000  0.28624000  0.25 -0.0453396564
C  C325  1  0.52310000  0.43250000  0.71376000  0.25 -0.0453396564
C  C326  1  0.47690000  0.56750000  0.71376000  0.25 -0.0453396564
C  C327  1  0.43250000  0.47690000  0.71376000  0.25 -0.0453396564
C  C328  1  0.56750000  0.52310000  0.71376000  0.25 -0.0453396564
C  C329  1  0.06420000  0.02770000  0.26757000  0.25 -0.0362003508
C  C330  1  0.93580000  0.97230000  0.26757000  0.25 -0.0362003508
C  C331  1  0.97230000  0.06420000  0.26757000  0.25 -0.0362003508
C  C332  1  0.02770000  0.93580000  0.26757000  0.25 -0.0362003508
C  C333  1  0.93580000  0.02770000  0.73243000  0.25 -0.0362003508
C  C334  1  0.06420000  0.97230000  0.73243000  0.25 -0.0362003508
C  C335  1  0.02770000  0.06420000  0.73243000  0.25 -0.0362003508
C  C336  1  0.97230000  0.93580000  0.73243000  0.25 -0.0362003508
C  C337  1  0.56420000  0.52770000  0.76757000  0.25 -0.0362003508
C  C338  1  0.43580000  0.47230000  0.76757000  0.25 -0.0362003508
C  C339  1  0.47230000  0.56420000  0.76757000  0.25 -0.0362003508
C  C340  1  0.52770000  0.43580000  0.76757000  0.25 -0.0362003508
C  C341  1  0.43580000  0.52770000  0.23243000  0.25 -0.0362003508
C  C342  1  0.56420000  0.47230000  0.23243000  0.25 -0.0362003508
C  C343  1  0.52770000  0.56420000  0.23243000  0.25 -0.0362003508
C  C344  1  0.47230000  0.43580000  0.23243000  0.25 -0.0362003508
C  C345  1  0.93580000  0.97230000  0.73243000  0.25 -0.0362003508
C  C346  1  0.06420000  0.02770000  0.73243000  0.25 -0.0362003508
C  C347  1  0.02770000  0.93580000  0.73243000  0.25 -0.0362003508
C  C348  1  0.97230000  0.06420000  0.73243000  0.25 -0.0362003508
C  C349  1  0.06420000  0.97230000  0.26757000  0.25 -0.0362003508
C  C350  1  0.93580000  0.02770000  0.26757000  0.25 -0.0362003508
C  C351  1  0.97230000  0.93580000  0.26757000  0.25 -0.0362003508
C  C352  1  0.02770000  0.06420000  0.26757000  0.25 -0.0362003508
C  C353  1  0.43580000  0.47230000  0.23243000  0.25 -0.0362003508
C  C354  1  0.56420000  0.52770000  0.23243000  0.25 -0.0362003508
C  C355  1  0.52770000  0.43580000  0.23243000  0.25 -0.0362003508
C  C356  1  0.47230000  0.56420000  0.23243000  0.25 -0.0362003508
C  C357  1  0.56420000  0.47230000  0.76757000  0.25 -0.0362003508
C  C358  1  0.43580000  0.52770000  0.76757000  0.25 -0.0362003508
C  C359  1  0.47230000  0.43580000  0.76757000  0.25 -0.0362003508
C  C360  1  0.52770000  0.56420000  0.76757000  0.25 -0.0362003508
C  C361  1  0.06180000  0.02660000  0.29292000  0.25 0.0015664925
C  C362  1  0.93820000  0.97340000  0.29292000  0.25 0.0015664925
C  C363  1  0.97340000  0.06180000  0.29292000  0.25 0.0015664925
C  C364  1  0.02660000  0.93820000  0.29292000  0.25 0.0015664925
C  C365  1  0.93820000  0.02660000  0.70708000  0.25 0.0015664925
C  C366  1  0.06180000  0.97340000  0.70708000  0.25 0.0015664925
C  C367  1  0.02660000  0.06180000  0.70708000  0.25 0.0015664925
C  C368  1  0.97340000  0.93820000  0.70708000  0.25 0.0015664925
C  C369  1  0.56180000  0.52660000  0.79292000  0.25 0.0015664925
C  C370  1  0.43820000  0.47340000  0.79292000  0.25 0.0015664925
C  C371  1  0.47340000  0.56180000  0.79292000  0.25 0.0015664925
C  C372  1  0.52660000  0.43820000  0.79292000  0.25 0.0015664925
C  C373  1  0.43820000  0.52660000  0.20708000  0.25 0.0015664925
C  C374  1  0.56180000  0.47340000  0.20708000  0.25 0.0015664925
C  C375  1  0.52660000  0.56180000  0.20708000  0.25 0.0015664925
C  C376  1  0.47340000  0.43820000  0.20708000  0.25 0.0015664925
C  C377  1  0.93820000  0.97340000  0.70708000  0.25 0.0015664925
C  C378  1  0.06180000  0.02660000  0.70708000  0.25 0.0015664925
C  C379  1  0.02660000  0.93820000  0.70708000  0.25 0.0015664925
C  C380  1  0.97340000  0.06180000  0.70708000  0.25 0.0015664925
C  C381  1  0.06180000  0.97340000  0.29292000  0.25 0.0015664925
C  C382  1  0.93820000  0.02660000  0.29292000  0.25 0.0015664925
C  C383  1  0.97340000  0.93820000  0.29292000  0.25 0.0015664925
C  C384  1  0.02660000  0.06180000  0.29292000  0.25 0.0015664925
C  C385  1  0.43820000  0.47340000  0.20708000  0.25 0.0015664925
C  C386  1  0.56180000  0.52660000  0.20708000  0.25 0.0015664925
C  C387  1  0.52660000  0.43820000  0.20708000  0.25 0.0015664925
C  C388  1  0.47340000  0.56180000  0.20708000  0.25 0.0015664925
C  C389  1  0.56180000  0.47340000  0.79292000  0.25 0.0015664925
C  C390  1  0.43820000  0.52660000  0.79292000  0.25 0.0015664925
C  C391  1  0.47340000  0.43820000  0.79292000  0.25 0.0015664925
C  C392  1  0.52660000  0.56180000  0.79292000  0.25 0.0015664925
C  C393  1  0.47350000  0.43860000  0.05249000  0.25 -0.0062835787
C  C394  1  0.52650000  0.56140000  0.05249000  0.25 -0.0062835787
C  C395  1  0.56140000  0.47350000  0.05249000  0.25 -0.0062835787
C  C396  1  0.43860000  0.52650000  0.05249000  0.25 -0.0062835787
C  C397  1  0.52650000  0.43860000  0.94751000  0.25 -0.0062835787
C  C398  1  0.47350000  0.56140000  0.94751000  0.25 -0.0062835787
C  C399  1  0.43860000  0.47350000  0.94751000  0.25 -0.0062835787
C  C400  1  0.56140000  0.52650000  0.94751000  0.25 -0.0062835787
C  C401  1  0.97350000  0.93860000  0.55249000  0.25 -0.0062835787
C  C402  1  0.02650000  0.06140000  0.55249000  0.25 -0.0062835787
C  C403  1  0.06140000  0.97350000  0.55249000  0.25 -0.0062835787
C  C404  1  0.93860000  0.02650000  0.55249000  0.25 -0.0062835787
C  C405  1  0.02650000  0.93860000  0.44751000  0.25 -0.0062835787
C  C406  1  0.97350000  0.06140000  0.44751000  0.25 -0.0062835787
C  C407  1  0.93860000  0.97350000  0.44751000  0.25 -0.0062835787
C  C408  1  0.06140000  0.02650000  0.44751000  0.25 -0.0062835787
C  C409  1  0.52650000  0.56140000  0.94751000  0.25 -0.0062835787
C  C410  1  0.47350000  0.43860000  0.94751000  0.25 -0.0062835787
C  C411  1  0.43860000  0.52650000  0.94751000  0.25 -0.0062835787
C  C412  1  0.56140000  0.47350000  0.94751000  0.25 -0.0062835787
C  C413  1  0.47350000  0.56140000  0.05249000  0.25 -0.0062835787
C  C414  1  0.52650000  0.43860000  0.05249000  0.25 -0.0062835787
C  C415  1  0.56140000  0.52650000  0.05249000  0.25 -0.0062835787
C  C416  1  0.43860000  0.47350000  0.05249000  0.25 -0.0062835787
C  C417  1  0.02650000  0.06140000  0.44751000  0.25 -0.0062835787
C  C418  1  0.97350000  0.93860000  0.44751000  0.25 -0.0062835787
C  C419  1  0.93860000  0.02650000  0.44751000  0.25 -0.0062835787
C  C420  1  0.06140000  0.97350000  0.44751000  0.25 -0.0062835787
C  C421  1  0.97350000  0.06140000  0.55249000  0.25 -0.0062835787
C  C422  1  0.02650000  0.93860000  0.55249000  0.25 -0.0062835787
C  C423  1  0.06140000  0.02650000  0.55249000  0.25 -0.0062835787
C  C424  1  0.93860000  0.97350000  0.55249000  0.25 -0.0062835787
C  C425  1  0.47330000  0.43540000  0.02656000  0.25 -0.033429812
C  C426  1  0.52670000  0.56460000  0.02656000  0.25 -0.033429812
C  C427  1  0.56460000  0.47330000  0.02656000  0.25 -0.033429812
C  C428  1  0.43540000  0.52670000  0.02656000  0.25 -0.033429812
C  C429  1  0.52670000  0.43540000  0.97344000  0.25 -0.033429812
C  C430  1  0.47330000  0.56460000  0.97344000  0.25 -0.033429812
C  C431  1  0.43540000  0.47330000  0.97344000  0.25 -0.033429812
C  C432  1  0.56460000  0.52670000  0.97344000  0.25 -0.033429812
C  C433  1  0.97330000  0.93540000  0.52656000  0.25 -0.033429812
C  C434  1  0.02670000  0.06460000  0.52656000  0.25 -0.033429812
C  C435  1  0.06460000  0.97330000  0.52656000  0.25 -0.033429812
C  C436  1  0.93540000  0.02670000  0.52656000  0.25 -0.033429812
C  C437  1  0.02670000  0.93540000  0.47344000  0.25 -0.033429812
C  C438  1  0.97330000  0.06460000  0.47344000  0.25 -0.033429812
C  C439  1  0.93540000  0.97330000  0.47344000  0.25 -0.033429812
C  C440  1  0.06460000  0.02670000  0.47344000  0.25 -0.033429812
C  C441  1  0.52670000  0.56460000  0.97344000  0.25 -0.033429812
C  C442  1  0.47330000  0.43540000  0.97344000  0.25 -0.033429812
C  C443  1  0.43540000  0.52670000  0.97344000  0.25 -0.033429812
C  C444  1  0.56460000  0.47330000  0.97344000  0.25 -0.033429812
C  C445  1  0.47330000  0.56460000  0.02656000  0.25 -0.033429812
C  C446  1  0.52670000  0.43540000  0.02656000  0.25 -0.033429812
C  C447  1  0.56460000  0.52670000  0.02656000  0.25 -0.033429812
C  C448  1  0.43540000  0.47330000  0.02656000  0.25 -0.033429812
C  C449  1  0.02670000  0.06460000  0.47344000  0.25 -0.033429812
C  C450  1  0.97330000  0.93540000  0.47344000  0.25 -0.033429812
C  C451  1  0.93540000  0.02670000  0.47344000  0.25 -0.033429812
C  C452  1  0.06460000  0.97330000  0.47344000  0.25 -0.033429812
C  C453  1  0.97330000  0.06460000  0.52656000  0.25 -0.033429812
C  C454  1  0.02670000  0.93540000  0.52656000  0.25 -0.033429812
C  C455  1  0.06460000  0.02670000  0.52656000  0.25 -0.033429812
C  C456  1  0.93540000  0.97330000  0.52656000  0.25 -0.033429812
C  C129  1  0.22840000  0.24970000  0.10797000  0.5 -0.0229896915
C  C130  1  0.77160000  0.75030000  0.10797000  0.5 -0.0229896915
C  C131  1  0.75030000  0.22840000  0.10797000  0.5 -0.0229896915
C  C132  1  0.24970000  0.77160000  0.10797000  0.5 -0.0229896915
C  C133  1  0.77160000  0.24970000  0.89203000  0.5 -0.0229896915
C  C134  1  0.22840000  0.75030000  0.89203000  0.5 -0.0229896915
C  C135  1  0.24970000  0.22840000  0.89203000  0.5 -0.0229896915
C  C136  1  0.75030000  0.77160000  0.89203000  0.5 -0.0229896915
C  C137  1  0.72840000  0.74970000  0.60797000  0.5 -0.0229896915
C  C138  1  0.27160000  0.25030000  0.60797000  0.5 -0.0229896915
C  C139  1  0.25030000  0.72840000  0.60797000  0.5 -0.0229896915
C  C140  1  0.74970000  0.27160000  0.60797000  0.5 -0.0229896915
C  C141  1  0.27160000  0.74970000  0.39203000  0.5 -0.0229896915
C  C142  1  0.72840000  0.25030000  0.39203000  0.5 -0.0229896915
C  C143  1  0.74970000  0.72840000  0.39203000  0.5 -0.0229896915
C  C144  1  0.25030000  0.27160000  0.39203000  0.5 -0.0229896915
C  C145  1  0.77160000  0.75030000  0.89203000  0.5 -0.0229896915
C  C146  1  0.22840000  0.24970000  0.89203000  0.5 -0.0229896915
C  C147  1  0.24970000  0.77160000  0.89203000  0.5 -0.0229896915
C  C148  1  0.75030000  0.22840000  0.89203000  0.5 -0.0229896915
C  C149  1  0.22840000  0.75030000  0.10797000  0.5 -0.0229896915
C  C150  1  0.77160000  0.24970000  0.10797000  0.5 -0.0229896915
C  C151  1  0.75030000  0.77160000  0.10797000  0.5 -0.0229896915
C  C152  1  0.24970000  0.22840000  0.10797000  0.5 -0.0229896915
C  C153  1  0.27160000  0.25030000  0.39203000  0.5 -0.0229896915
C  C154  1  0.72840000  0.74970000  0.39203000  0.5 -0.0229896915
C  C155  1  0.74970000  0.27160000  0.39203000  0.5 -0.0229896915
C  C156  1  0.25030000  0.72840000  0.39203000  0.5 -0.0229896915
C  C157  1  0.72840000  0.25030000  0.60797000  0.5 -0.0229896915
C  C158  1  0.27160000  0.74970000  0.60797000  0.5 -0.0229896915
C  C159  1  0.25030000  0.27160000  0.60797000  0.5 -0.0229896915
C  C160  1  0.74970000  0.72840000  0.60797000  0.5 -0.0229896915
C  C161  1  0.28710000  0.30910000  0.10813000  0.5 -0.0703795732
C  C162  1  0.71290000  0.69090000  0.10813000  0.5 -0.0703795732
C  C163  1  0.69090000  0.28710000  0.10813000  0.5 -0.0703795732
C  C164  1  0.30910000  0.71290000  0.10813000  0.5 -0.0703795732
C  C165  1  0.71290000  0.30910000  0.89187000  0.5 -0.0703795732
C  C166  1  0.28710000  0.69090000  0.89187000  0.5 -0.0703795732
C  C167  1  0.30910000  0.28710000  0.89187000  0.5 -0.0703795732
C  C168  1  0.69090000  0.71290000  0.89187000  0.5 -0.0703795732
C  C169  1  0.78710000  0.80910000  0.60813000  0.5 -0.0703795732
C  C170  1  0.21290000  0.19090000  0.60813000  0.5 -0.0703795732
C  C171  1  0.19090000  0.78710000  0.60813000  0.5 -0.0703795732
C  C172  1  0.80910000  0.21290000  0.60813000  0.5 -0.0703795732
C  C173  1  0.21290000  0.80910000  0.39187000  0.5 -0.0703795732
C  C174  1  0.78710000  0.19090000  0.39187000  0.5 -0.0703795732
C  C175  1  0.80910000  0.78710000  0.39187000  0.5 -0.0703795732
C  C176  1  0.19090000  0.21290000  0.39187000  0.5 -0.0703795732
C  C177  1  0.71290000  0.69090000  0.89187000  0.5 -0.0703795732
C  C178  1  0.28710000  0.30910000  0.89187000  0.5 -0.0703795732
C  C179  1  0.30910000  0.71290000  0.89187000  0.5 -0.0703795732
C  C180  1  0.69090000  0.28710000  0.89187000  0.5 -0.0703795732
C  C181  1  0.28710000  0.69090000  0.10813000  0.5 -0.0703795732
C  C182  1  0.71290000  0.30910000  0.10813000  0.5 -0.0703795732
C  C183  1  0.69090000  0.71290000  0.10813000  0.5 -0.0703795732
C  C184  1  0.30910000  0.28710000  0.10813000  0.5 -0.0703795732
C  C185  1  0.21290000  0.19090000  0.39187000  0.5 -0.0703795732
C  C186  1  0.78710000  0.80910000  0.39187000  0.5 -0.0703795732
C  C187  1  0.80910000  0.21290000  0.39187000  0.5 -0.0703795732
C  C188  1  0.19090000  0.78710000  0.39187000  0.5 -0.0703795732
C  C189  1  0.78710000  0.19090000  0.60813000  0.5 -0.0703795732
C  C190  1  0.21290000  0.80910000  0.60813000  0.5 -0.0703795732
C  C191  1  0.19090000  0.21290000  0.60813000  0.5 -0.0703795732
C  C192  1  0.80910000  0.78710000  0.60813000  0.5 -0.0703795732
C  C193  1  0.30790000  0.28740000  0.15075000  0.5 -0.0782086243
C  C194  1  0.69210000  0.71260000  0.15075000  0.5 -0.0782086243
C  C195  1  0.71260000  0.30790000  0.15075000  0.5 -0.0782086243
C  C196  1  0.28740000  0.69210000  0.15075000  0.5 -0.0782086243
C  C197  1  0.69210000  0.28740000  0.84925000  0.5 -0.0782086243
C  C198  1  0.30790000  0.71260000  0.84925000  0.5 -0.0782086243
C  C199  1  0.28740000  0.30790000  0.84925000  0.5 -0.0782086243
C  C200  1  0.71260000  0.69210000  0.84925000  0.5 -0.0782086243
C  C201  1  0.80790000  0.78740000  0.65075000  0.5 -0.0782086243
C  C202  1  0.19210000  0.21260000  0.65075000  0.5 -0.0782086243
C  C203  1  0.21260000  0.80790000  0.65075000  0.5 -0.0782086243
C  C204  1  0.78740000  0.19210000  0.65075000  0.5 -0.0782086243
C  C205  1  0.19210000  0.78740000  0.34925000  0.5 -0.0782086243
C  C206  1  0.80790000  0.21260000  0.34925000  0.5 -0.0782086243
C  C207  1  0.78740000  0.80790000  0.34925000  0.5 -0.0782086243
C  C208  1  0.21260000  0.19210000  0.34925000  0.5 -0.0782086243
C  C209  1  0.69210000  0.71260000  0.84925000  0.5 -0.0782086243
C  C210  1  0.30790000  0.28740000  0.84925000  0.5 -0.0782086243
C  C211  1  0.28740000  0.69210000  0.84925000  0.5 -0.0782086243
C  C212  1  0.71260000  0.30790000  0.84925000  0.5 -0.0782086243
C  C213  1  0.30790000  0.71260000  0.15075000  0.5 -0.0782086243
C  C214  1  0.69210000  0.28740000  0.15075000  0.5 -0.0782086243
C  C215  1  0.71260000  0.69210000  0.15075000  0.5 -0.0782086243
C  C216  1  0.28740000  0.30790000  0.15075000  0.5 -0.0782086243
C  C217  1  0.19210000  0.21260000  0.34925000  0.5 -0.0782086243
C  C218  1  0.80790000  0.78740000  0.34925000  0.5 -0.0782086243
C  C219  1  0.78740000  0.19210000  0.34925000  0.5 -0.0782086243
C  C220  1  0.21260000  0.80790000  0.34925000  0.5 -0.0782086243
C  C221  1  0.80790000  0.21260000  0.65075000  0.5 -0.0782086243
C  C222  1  0.19210000  0.78740000  0.65075000  0.5 -0.0782086243
C  C223  1  0.21260000  0.19210000  0.65075000  0.5 -0.0782086243
C  C224  1  0.78740000  0.80790000  0.65075000  0.5 -0.0782086243
C  C225  1  0.24950000  0.22860000  0.15075000  0.5 -0.0782086243
C  C226  1  0.75050000  0.77140000  0.15075000  0.5 -0.0782086243
C  C227  1  0.77140000  0.24950000  0.15075000  0.5 -0.0782086243
C  C228  1  0.22860000  0.75050000  0.15075000  0.5 -0.0782086243
C  C229  1  0.75050000  0.22860000  0.84925000  0.5 -0.0782086243
C  C230  1  0.24950000  0.77140000  0.84925000  0.5 -0.0782086243
C  C231  1  0.22860000  0.24950000  0.84925000  0.5 -0.0782086243
C  C232  1  0.77140000  0.75050000  0.84925000  0.5 -0.0782086243
C  C233  1  0.74950000  0.72860000  0.65075000  0.5 -0.0782086243
C  C234  1  0.25050000  0.27140000  0.65075000  0.5 -0.0782086243
C  C235  1  0.27140000  0.74950000  0.65075000  0.5 -0.0782086243
C  C236  1  0.72860000  0.25050000  0.65075000  0.5 -0.0782086243
C  C237  1  0.25050000  0.72860000  0.34925000  0.5 -0.0782086243
C  C238  1  0.74950000  0.27140000  0.34925000  0.5 -0.0782086243
C  C239  1  0.72860000  0.74950000  0.34925000  0.5 -0.0782086243
C  C240  1  0.27140000  0.25050000  0.34925000  0.5 -0.0782086243
C  C241  1  0.75050000  0.77140000  0.84925000  0.5 -0.0782086243
C  C242  1  0.24950000  0.22860000  0.84925000  0.5 -0.0782086243
C  C243  1  0.22860000  0.75050000  0.84925000  0.5 -0.0782086243
C  C244  1  0.77140000  0.24950000  0.84925000  0.5 -0.0782086243
C  C245  1  0.24950000  0.77140000  0.15075000  0.5 -0.0782086243
C  C246  1  0.75050000  0.22860000  0.15075000  0.5 -0.0782086243
C  C247  1  0.77140000  0.75050000  0.15075000  0.5 -0.0782086243
C  C248  1  0.22860000  0.24950000  0.15075000  0.5 -0.0782086243
C  C249  1  0.25050000  0.27140000  0.34925000  0.5 -0.0782086243
C  C250  1  0.74950000  0.72860000  0.34925000  0.5 -0.0782086243
C  C251  1  0.72860000  0.25050000  0.34925000  0.5 -0.0782086243
C  C252  1  0.27140000  0.74950000  0.34925000  0.5 -0.0782086243
C  C253  1  0.74950000  0.27140000  0.65075000  0.5 -0.0782086243
C  C254  1  0.25050000  0.72860000  0.65075000  0.5 -0.0782086243
C  C255  1  0.27140000  0.25050000  0.65075000  0.5 -0.0782086243
C  C256  1  0.72860000  0.74950000  0.65075000  0.5 -0.0782086243
N  N1  1  0.12218000  0.00000000  0.12980000  1.0 -0.3427273411
N  N2  1  0.87782000  0.00000000  0.12980000  1.0 -0.3427273411
N  N3  1  0.00000000  0.12218000  0.12980000  1.0 -0.3427273411
N  N4  1  0.00000000  0.87782000  0.12980000  1.0 -0.3427273411
N  N5  1  0.87782000  0.00000000  0.87020000  1.0 -0.3427273411
N  N6  1  0.12218000  0.00000000  0.87020000  1.0 -0.3427273411
N  N7  1  0.00000000  0.12218000  0.87020000  1.0 -0.3427273411
N  N8  1  0.00000000  0.87782000  0.87020000  1.0 -0.3427273411
N  N9  1  0.62218000  0.50000000  0.62980000  1.0 -0.3427273411
N  N10  1  0.37782000  0.50000000  0.62980000  1.0 -0.3427273411
N  N11  1  0.50000000  0.62218000  0.62980000  1.0 -0.3427273411
N  N12  1  0.50000000  0.37782000  0.62980000  1.0 -0.3427273411
N  N13  1  0.37782000  0.50000000  0.37020000  1.0 -0.3427273411
N  N14  1  0.62218000  0.50000000  0.37020000  1.0 -0.3427273411
N  N15  1  0.50000000  0.62218000  0.37020000  1.0 -0.3427273411
N  N16  1  0.50000000  0.37782000  0.37020000  1.0 -0.3427273411
N  N17  1  0.00000000  0.00000000  0.17559000  1.0 -0.1841067407
N  N18  1  0.00000000  0.00000000  0.82441000  1.0 -0.1841067407
N  N19  1  0.50000000  0.50000000  0.67559000  1.0 -0.1841067407
N  N20  1  0.50000000  0.50000000  0.32441000  1.0 -0.1856681205
N  N21  1  0.00000000  0.00000000  0.30559000  1.0 -0.1841067407
N  N22  1  0.00000000  0.00000000  0.69441000  1.0 -0.1841067407
N  N23  1  0.50000000  0.50000000  0.80559000  1.0 -0.1841067407
N  N24  1  0.50000000  0.50000000  0.19441000  1.0 -0.1841067407
N  N25  1  0.50000000  0.50000000  0.06528000  1.0 -0.1656605549
N  N26  1  0.50000000  0.50000000  0.93472000  1.0 -0.1656605549
N  N27  1  0.00000000  0.00000000  0.56528000  1.0 -0.1656605549
N  N28  1  0.00000000  0.00000000  0.43472000  1.0 -0.1656605549
O  O1  1  0.41521000  0.41521000  0.15002000  1.0 -0.4899182267
O  O2  1  0.58479000  0.58479000  0.15002000  1.0 -0.4899182267
O  O3  1  0.58479000  0.41521000  0.15002000  1.0 -0.4899182267
O  O4  1  0.41521000  0.58479000  0.15002000  1.0 -0.4899182267
O  O5  1  0.58479000  0.41521000  0.84998000  1.0 -0.4899182267
O  O6  1  0.41521000  0.58479000  0.84998000  1.0 -0.4899182267
O  O7  1  0.41521000  0.41521000  0.84998000  1.0 -0.4899182267
O  O8  1  0.58479000  0.58479000  0.84998000  1.0 -0.4899182267
O  O9  1  0.91521000  0.91521000  0.65002000  1.0 -0.4899182267
O  O10  1  0.08479000  0.08479000  0.65002000  1.0 -0.4899182267
O  O11  1  0.08479000  0.91521000  0.65002000  1.0 -0.4899182267
O  O12  1  0.91521000  0.08479000  0.65002000  1.0 -0.4899182267
O  O13  1  0.08479000  0.91521000  0.34998000  1.0 -0.4899182267
O  O14  1  0.91521000  0.08479000  0.34998000  1.0 -0.4899182267
O  O15  1  0.91521000  0.91521000  0.34998000  1.0 -0.4899182267
O  O16  1  0.08479000  0.08479000  0.34998000  1.0 -0.4899182267
O  O17  1  0.41525000  0.41525000  0.10906000  1.0 -0.4738833181
O  O18  1  0.58475000  0.58475000  0.10906000  1.0 -0.4738833181
O  O19  1  0.58475000  0.41525000  0.10906000  1.0 -0.4738833181
O  O20  1  0.41525000  0.58475000  0.10906000  1.0 -0.4738833181
O  O21  1  0.58475000  0.41525000  0.89094000  1.0 -0.4738833181
O  O22  1  0.41525000  0.58475000  0.89094000  1.0 -0.4738833181
O  O23  1  0.41525000  0.41525000  0.89094000  1.0 -0.4738833181
O  O24  1  0.58475000  0.58475000  0.89094000  1.0 -0.4738833181
O  O25  1  0.91525000  0.91525000  0.60906000  1.0 -0.4738833181
O  O26  1  0.08475000  0.08475000  0.60906000  1.0 -0.4738833181
O  O27  1  0.08475000  0.91525000  0.60906000  1.0 -0.4738833181
O  O28  1  0.91525000  0.08475000  0.60906000  1.0 -0.4738833181
O  O29  1  0.08475000  0.91525000  0.39094000  1.0 -0.4738833181
O  O30  1  0.91525000  0.08475000  0.39094000  1.0 -0.4738833181
O  O31  1  0.91525000  0.91525000  0.39094000  1.0 -0.4738833181
O  O32  1  0.08475000  0.08475000  0.39094000  1.0 -0.4738833181
