# DDEC6 charges by PACMAN v1.1 (https://github.com/mtap-research/PACMAN-charge/)
data_d2cc02041f2_3_ASR_pacman
_symmetry_space_group_name_H-M   'P 1'
_cell_length_a   19.61750000
_cell_length_b   19.74100000
_cell_length_c   32.32600000
_cell_angle_alpha   90.00000000
_cell_angle_beta   90.00000000
_cell_angle_gamma   90.00000000
_symmetry_Int_Tables_number   1
_chemical_formula_structural   Zn4H14C25(NO)10
_chemical_formula_sum   'Zn32 H112 C200 N80 O80'
_cell_volume   12518.85987601
_cell_formula_units_Z   8
loop_
 _symmetry_equiv_pos_site_id
 _symmetry_equiv_pos_as_xyz
  1  'x, y, z'
loop_
 _atom_site_type_symbol
 _atom_site_label
 _atom_site_symmetry_multiplicity
 _atom_site_fract_x
 _atom_site_fract_y
 _atom_site_fract_z
 _atom_site_occupancy
 _atom_site_charge
Zn  Zn1  1  0.44105000  0.63406000  0.02067000  1.0 0.8203636199
Zn  Zn2  1  0.05895000  0.86594000  0.02067000  1.0 0.8203636199
Zn  Zn3  1  0.55895000  0.13406000  0.47933000  1.0 0.8203636199
Zn  Zn4  1  0.94105000  0.36594000  0.47933000  1.0 0.8203636199
Zn  Zn5  1  0.55895000  0.36594000  0.97933000  1.0 0.8203636199
Zn  Zn6  1  0.94105000  0.13406000  0.97933000  1.0 0.8203636199
Zn  Zn7  1  0.44105000  0.86594000  0.52067000  1.0 0.8203636199
Zn  Zn8  1  0.05895000  0.63406000  0.52067000  1.0 0.8203636199
Zn  Zn9  1  0.46587000  0.57022000  0.48926000  1.0 0.9136874343
Zn  Zn10  1  0.03413000  0.92978000  0.48926000  1.0 0.9136874343
Zn  Zn11  1  0.53413000  0.07022000  0.01074000  1.0 0.9136874343
Zn  Zn12  1  0.96587000  0.42978000  0.01074000  1.0 0.9136874343
Zn  Zn13  1  0.53413000  0.42978000  0.51074000  1.0 0.9186558947
Zn  Zn14  1  0.96587000  0.07022000  0.51074000  1.0 0.9186558947
Zn  Zn15  1  0.46587000  0.92978000  0.98926000  1.0 0.9136874343
Zn  Zn16  1  0.03413000  0.57022000  0.98926000  1.0 0.9136874343
Zn  Zn17  1  0.56369000  0.52903000  0.02503000  1.0 0.9186558947
Zn  Zn18  1  0.93631000  0.97097000  0.02503000  1.0 0.9186558947
Zn  Zn19  1  0.43631000  0.02903000  0.47497000  1.0 0.9186558947
Zn  Zn20  1  0.06369000  0.47097000  0.47497000  1.0 0.9186558947
Zn  Zn21  1  0.43631000  0.47097000  0.97497000  1.0 0.9186558947
Zn  Zn22  1  0.06369000  0.02903000  0.97497000  1.0 0.9186558947
Zn  Zn23  1  0.56369000  0.97097000  0.52503000  1.0 0.9186558947
Zn  Zn24  1  0.93631000  0.52903000  0.52503000  1.0 0.9186558947
Zn  Zn25  1  0.36604000  0.44272000  0.47283000  1.0 0.8080434963
Zn  Zn26  1  0.13396000  0.05728000  0.47283000  1.0 0.8080434963
Zn  Zn27  1  0.63396000  0.94272000  0.02717000  1.0 0.8080434963
Zn  Zn28  1  0.86604000  0.55728000  0.02717000  1.0 0.8080434963
Zn  Zn29  1  0.63396000  0.55728000  0.52717000  1.0 0.8080434963
Zn  Zn30  1  0.86604000  0.94272000  0.52717000  1.0 0.8080434963
Zn  Zn31  1  0.36604000  0.05728000  0.97283000  1.0 0.8080434963
Zn  Zn32  1  0.13396000  0.44272000  0.97283000  1.0 0.8080434963
H  H1  1  0.69231000  0.71405000  0.05793000  1.0 0.3195438176
H  H2  1  0.80769000  0.78595000  0.05793000  1.0 0.3195438176
H  H3  1  0.30769000  0.21405000  0.44207000  1.0 0.3195438176
H  H4  1  0.19231000  0.28595000  0.44207000  1.0 0.3195438176
H  H5  1  0.30769000  0.28595000  0.94207000  1.0 0.3195438176
H  H6  1  0.19231000  0.21405000  0.94207000  1.0 0.3195438176
H  H7  1  0.69231000  0.78595000  0.55793000  1.0 0.3195438176
H  H8  1  0.80769000  0.71405000  0.55793000  1.0 0.3195438176
H  H9  1  0.28995000  0.69253000  0.53140000  1.0 0.3195438176
H  H10  1  0.21005000  0.80747000  0.53140000  1.0 0.3195438176
H  H11  1  0.71005000  0.19253000  0.96860000  1.0 0.3195438176
H  H12  1  0.78995000  0.30747000  0.96860000  1.0 0.3195438176
H  H13  1  0.71005000  0.30747000  0.46860000  1.0 0.3195438176
H  H14  1  0.78995000  0.19253000  0.46860000  1.0 0.3195438176
H  H15  1  0.28995000  0.80747000  0.03140000  1.0 0.3195438176
H  H16  1  0.21005000  0.69253000  0.03140000  1.0 0.3195438176
H  H17  1  0.41163000  0.78510000  0.98907000  1.0 0.099446992
H  H18  1  0.08837000  0.71490000  0.98907000  1.0 0.099446992
H  H19  1  0.58837000  0.28510000  0.51093000  1.0 0.099446992
H  H20  1  0.91163000  0.21490000  0.51093000  1.0 0.099446992
H  H21  1  0.58837000  0.21490000  0.01093000  1.0 0.099446992
H  H22  1  0.91163000  0.28510000  0.01093000  1.0 0.099446992
H  H23  1  0.41163000  0.71490000  0.48907000  1.0 0.099446992
H  H24  1  0.08837000  0.78510000  0.48907000  1.0 0.099446992
H  H25  1  0.20902000  0.41268000  0.46592000  1.0 0.1107115594
H  H26  1  0.29098000  0.08732000  0.46592000  1.0 0.1107115594
H  H27  1  0.79098000  0.91268000  0.03408000  1.0 0.1107115594
H  H28  1  0.70902000  0.58732000  0.03408000  1.0 0.1107115594
H  H29  1  0.79098000  0.58732000  0.53408000  1.0 0.1107115594
H  H30  1  0.70902000  0.91268000  0.53408000  1.0 0.1107115594
H  H31  1  0.20902000  0.08732000  0.96592000  1.0 0.1107115594
H  H32  1  0.29098000  0.41268000  0.96592000  1.0 0.1107115594
H  H33  1  0.51360000  0.60256000  0.36184000  0.25 0.099446992
H  H34  1  0.98640000  0.89744000  0.36184000  0.25 0.099446992
H  H35  1  0.48640000  0.10256000  0.13816000  0.25 0.099446992
H  H36  1  0.01360000  0.39744000  0.13816000  0.25 0.099446992
H  H37  1  0.48640000  0.39744000  0.63816000  0.25 0.099446992
H  H38  1  0.01360000  0.10256000  0.63816000  0.25 0.099446992
H  H39  1  0.51360000  0.89744000  0.86184000  0.25 0.099446992
H  H40  1  0.98640000  0.60256000  0.86184000  0.25 0.099446992
H  H41  1  0.37284000  0.48211000  0.27299000  0.25 0.0817701484
H  H42  1  0.12716000  0.01789000  0.27299000  0.25 0.0817701484
H  H43  1  0.62716000  0.98211000  0.22701000  0.25 0.0817701484
H  H44  1  0.87284000  0.51789000  0.22701000  0.25 0.0817701484
H  H45  1  0.62716000  0.51789000  0.72701000  0.25 0.0817701484
H  H46  1  0.87284000  0.98211000  0.72701000  0.25 0.0817701484
H  H47  1  0.37284000  0.01789000  0.77299000  0.25 0.0817701484
H  H48  1  0.12716000  0.48211000  0.77299000  0.25 0.0817701484
H  H49  1  0.35903000  0.47222000  0.34401000  0.25 0.1107115594
H  H50  1  0.14097000  0.02778000  0.34401000  0.25 0.1107115594
H  H51  1  0.64097000  0.97222000  0.15599000  0.25 0.1107115594
H  H52  1  0.85903000  0.52778000  0.15599000  0.25 0.1107115594
H  H53  1  0.64097000  0.52778000  0.65599000  0.25 0.1107115594
H  H54  1  0.85903000  0.97222000  0.65599000  0.25 0.1107115594
H  H55  1  0.35903000  0.02778000  0.84401000  0.25 0.1107115594
H  H56  1  0.14097000  0.47222000  0.84401000  0.25 0.1107115594
H  H57  1  0.51929000  0.46836000  0.22371000  0.25 0.1107115594
H  H58  1  0.98071000  0.03164000  0.22371000  0.25 0.1107115594
H  H59  1  0.48071000  0.96836000  0.27629000  0.25 0.1107115594
H  H60  1  0.01929000  0.53164000  0.27629000  0.25 0.1107115594
H  H61  1  0.48071000  0.53164000  0.77629000  0.25 0.1107115594
H  H62  1  0.01929000  0.96836000  0.77629000  0.25 0.1107115594
H  H63  1  0.51929000  0.03164000  0.72371000  0.25 0.1107115594
H  H64  1  0.98071000  0.46836000  0.72371000  0.25 0.1107115594
H  H65  1  0.53546000  0.47672000  0.15280000  0.25 0.1439062819
H  H66  1  0.96454000  0.02328000  0.15280000  0.25 0.1439062819
H  H67  1  0.46454000  0.97672000  0.34720000  0.25 0.1488934541
H  H68  1  0.03546000  0.52328000  0.34720000  0.25 0.1488934541
H  H69  1  0.46454000  0.52328000  0.84720000  0.25 0.1488934541
H  H70  1  0.03546000  0.97672000  0.84720000  0.25 0.1488934541
H  H71  1  0.53546000  0.02328000  0.65280000  0.25 0.1488934541
H  H72  1  0.96454000  0.47672000  0.65280000  0.25 0.1488934541
H  H73  1  0.42397000  0.64744000  0.15093000  0.25 0.1488934541
H  H74  1  0.07603000  0.85256000  0.15093000  0.25 0.1488934541
H  H75  1  0.57603000  0.14744000  0.34907000  0.25 0.1488934541
H  H76  1  0.92397000  0.35256000  0.34907000  0.25 0.1488934541
H  H77  1  0.57603000  0.35256000  0.84907000  0.25 0.1488934541
H  H78  1  0.92397000  0.14744000  0.84907000  0.25 0.1488934541
H  H79  1  0.42397000  0.85256000  0.65093000  0.25 0.1488934541
H  H80  1  0.07603000  0.64744000  0.65093000  0.25 0.1488934541
H  H81  1  0.40074000  0.69604000  0.21355000  0.25 0.1810756676
H  H82  1  0.09926000  0.80396000  0.21355000  0.25 0.1810756676
H  H83  1  0.59926000  0.19604000  0.28645000  0.25 0.1810756676
H  H84  1  0.90074000  0.30396000  0.28645000  0.25 0.1810756676
H  H85  1  0.59926000  0.30396000  0.78645000  0.25 0.1810756676
H  H86  1  0.90074000  0.19604000  0.78645000  0.25 0.1810756676
H  H87  1  0.40074000  0.80396000  0.71355000  0.25 0.1810756676
H  H88  1  0.09926000  0.69604000  0.71355000  0.25 0.1810756676
H  H89  1  0.51992000  0.67819000  0.30743000  0.25 0.1715909928
H  H90  1  0.98008000  0.82181000  0.30743000  0.25 0.1715909928
H  H91  1  0.48008000  0.17819000  0.19257000  0.25 0.1715909928
H  H92  1  0.01992000  0.32181000  0.19257000  0.25 0.1715909928
H  H93  1  0.48008000  0.32181000  0.69257000  0.25 0.1715909928
H  H94  1  0.01992000  0.17819000  0.69257000  0.25 0.1715909928
H  H95  1  0.51992000  0.82181000  0.80743000  0.25 0.1715909928
H  H96  1  0.98008000  0.67819000  0.80743000  0.25 0.1715909928
H  H97  1  0.47346000  0.73518000  0.25564000  0.25 0.0912088624
H  H98  1  0.02654000  0.76482000  0.25564000  0.25 0.0912088624
H  H99  1  0.52654000  0.23518000  0.24436000  0.25 0.0912088624
H  H100  1  0.97346000  0.26482000  0.24436000  0.25 0.0912088624
H  H101  1  0.52654000  0.26482000  0.74436000  0.25 0.0912088624
H  H102  1  0.97346000  0.23518000  0.74436000  0.25 0.0912088624
H  H103  1  0.47346000  0.76482000  0.75564000  0.25 0.0912088624
H  H104  1  0.02654000  0.73518000  0.75564000  0.25 0.0912088624
H  H105  1  0.41912000  0.70860000  0.28678000  0.25 0.0912088624
H  H106  1  0.08088000  0.79140000  0.28678000  0.25 0.0912088624
H  H107  1  0.58088000  0.20860000  0.21322000  0.25 0.0912088624
H  H108  1  0.91912000  0.29140000  0.21322000  0.25 0.0912088624
H  H109  1  0.58088000  0.29140000  0.71322000  0.25 0.0912088624
H  H110  1  0.91912000  0.20860000  0.71322000  0.25 0.0912088624
H  H111  1  0.41912000  0.79140000  0.78678000  0.25 0.0912088624
H  H112  1  0.08088000  0.70860000  0.78678000  0.25 0.0912088624
H  H113  1  0.46235000  0.63263000  0.36115000  0.75 0.0912088624
H  H114  1  0.03765000  0.86737000  0.36115000  0.75 0.0912088624
H  H115  1  0.53765000  0.13263000  0.13885000  0.75 0.0912088624
H  H116  1  0.96235000  0.36737000  0.13885000  0.75 0.0912088624
H  H117  1  0.53765000  0.36737000  0.63885000  0.75 0.0912088624
H  H118  1  0.96235000  0.13263000  0.63885000  0.75 0.0912088624
H  H119  1  0.46235000  0.86737000  0.86115000  0.75 0.0912088624
H  H120  1  0.03765000  0.63263000  0.86115000  0.75 0.0912088624
H  H121  1  0.41586000  0.43842000  0.34785000  0.75 0.1107115594
H  H122  1  0.08414000  0.06158000  0.34785000  0.75 0.1107115594
H  H123  1  0.58414000  0.93842000  0.15215000  0.75 0.1107115594
H  H124  1  0.91586000  0.56158000  0.15215000  0.75 0.1107115594
H  H125  1  0.58414000  0.56158000  0.65215000  0.75 0.1107115594
H  H126  1  0.91586000  0.93842000  0.65215000  0.75 0.1107115594
H  H127  1  0.41586000  0.06158000  0.84785000  0.75 0.1107115594
H  H128  1  0.08414000  0.43842000  0.84785000  0.75 0.1107115594
H  H129  1  0.46880000  0.64673000  0.29023000  0.75 0.099446992
H  H130  1  0.03120000  0.85327000  0.29023000  0.75 0.099446992
H  H131  1  0.53120000  0.14673000  0.20977000  0.75 0.099446992
H  H132  1  0.96880000  0.35327000  0.20977000  0.75 0.099446992
H  H133  1  0.53120000  0.35327000  0.70977000  0.75 0.099446992
H  H134  1  0.96880000  0.14673000  0.70977000  0.75 0.099446992
H  H135  1  0.46880000  0.85327000  0.79023000  0.75 0.099446992
H  H136  1  0.03120000  0.64673000  0.79023000  0.75 0.099446992
H  H137  1  0.54407000  0.48602000  0.15340000  0.75 0.1488934541
H  H138  1  0.95593000  0.01398000  0.15340000  0.75 0.1488934541
H  H139  1  0.45593000  0.98602000  0.34660000  0.75 0.1488934541
H  H140  1  0.04407000  0.51398000  0.34660000  0.75 0.1488934541
H  H141  1  0.45593000  0.51398000  0.84660000  0.75 0.1488934541
H  H142  1  0.04407000  0.98602000  0.84660000  0.75 0.1488934541
H  H143  1  0.54407000  0.01398000  0.65340000  0.75 0.1488934541
H  H144  1  0.95593000  0.48602000  0.65340000  0.75 0.1488934541
H  H145  1  0.39976000  0.63079000  0.22004000  0.75 0.1107115594
H  H146  1  0.10024000  0.86921000  0.22004000  0.75 0.1107115594
H  H147  1  0.60024000  0.13079000  0.27996000  0.75 0.1107115594
H  H148  1  0.89976000  0.36921000  0.27996000  0.75 0.1107115594
H  H149  1  0.60024000  0.36921000  0.77996000  0.75 0.1107115594
H  H150  1  0.89976000  0.13079000  0.77996000  0.75 0.1107115594
H  H151  1  0.39976000  0.86921000  0.72004000  0.75 0.1107115594
H  H152  1  0.10024000  0.63079000  0.72004000  0.75 0.1107115594
H  H153  1  0.41552000  0.64022000  0.14933000  0.75 0.1488934541
H  H154  1  0.08448000  0.85978000  0.14933000  0.75 0.1488934541
H  H155  1  0.58448000  0.14022000  0.35067000  0.75 0.1488934541
H  H156  1  0.91552000  0.35978000  0.35067000  0.75 0.1488934541
H  H157  1  0.58448000  0.35978000  0.85067000  0.75 0.1488934541
H  H158  1  0.91552000  0.14022000  0.85067000  0.75 0.1488934541
H  H159  1  0.41552000  0.85978000  0.64933000  0.75 0.1488934541
H  H160  1  0.08448000  0.64022000  0.64933000  0.75 0.1488934541
H  H161  1  0.48543000  0.36914000  0.22592000  0.75 0.0912088624
H  H162  1  0.01457000  0.13086000  0.22592000  0.75 0.0912088624
H  H163  1  0.51457000  0.86914000  0.27408000  0.75 0.0912088624
H  H164  1  0.98543000  0.63086000  0.27408000  0.75 0.0912088624
H  H165  1  0.51457000  0.63086000  0.77408000  0.75 0.0912088624
H  H166  1  0.98543000  0.86914000  0.77408000  0.75 0.0912088624
H  H167  1  0.48543000  0.13086000  0.72592000  0.75 0.0912088624
H  H168  1  0.01457000  0.36914000  0.72592000  0.75 0.0912088624
H  H169  1  0.52586000  0.37309000  0.26756000  0.75 0.099446992
H  H170  1  0.97414000  0.12691000  0.26756000  0.75 0.099446992
H  H171  1  0.47414000  0.87309000  0.23244000  0.75 0.099446992
H  H172  1  0.02586000  0.62691000  0.23244000  0.75 0.099446992
H  H173  1  0.47414000  0.62691000  0.73244000  0.75 0.099446992
H  H174  1  0.02586000  0.87309000  0.73244000  0.75 0.099446992
H  H175  1  0.52586000  0.12691000  0.76756000  0.75 0.099446992
H  H176  1  0.97414000  0.37309000  0.76756000  0.75 0.099446992
H  H177  1  0.39812000  0.39547000  0.26977000  0.75 0.256400691
H  H178  1  0.10188000  0.10453000  0.26977000  0.75 0.256400691
H  H179  1  0.60188000  0.89547000  0.23023000  0.75 0.256400691
H  H180  1  0.89812000  0.60453000  0.23023000  0.75 0.256400691
H  H181  1  0.60188000  0.60453000  0.73023000  0.75 0.256400691
H  H182  1  0.89812000  0.89547000  0.73023000  0.75 0.256400691
H  H183  1  0.39812000  0.10453000  0.76977000  0.75 0.256400691
H  H184  1  0.10188000  0.39547000  0.76977000  0.75 0.256400691
H  H185  1  0.58371000  0.45564000  0.23456000  0.75 0.203576162
H  H186  1  0.91629000  0.04436000  0.23456000  0.75 0.203576162
H  H187  1  0.41629000  0.95564000  0.26544000  0.75 0.203576162
H  H188  1  0.08371000  0.54436000  0.26544000  0.75 0.203576162
H  H189  1  0.41629000  0.54436000  0.76544000  0.75 0.203576162
H  H190  1  0.08371000  0.95564000  0.76544000  0.75 0.203576162
H  H191  1  0.58371000  0.04436000  0.73456000  0.75 0.203576162
H  H192  1  0.91629000  0.45564000  0.73456000  0.75 0.203576162
C  C1  1  0.66482000  0.80584000  0.04594000  1.0 0.6362742275
C  C2  1  0.83518000  0.69416000  0.04594000  1.0 0.6362742275
C  C3  1  0.33518000  0.30584000  0.45406000  1.0 0.6362742275
C  C4  1  0.16482000  0.19416000  0.45406000  1.0 0.6362742275
C  C5  1  0.33518000  0.19416000  0.95406000  1.0 0.6362742275
C  C6  1  0.16482000  0.30584000  0.95406000  1.0 0.6362742275
C  C7  1  0.66482000  0.69416000  0.54594000  1.0 0.6362742275
C  C8  1  0.83518000  0.80584000  0.54594000  1.0 0.6362742275
C  C9  1  0.54844000  0.73996000  0.02246000  1.0 -0.0915006501
C  C10  1  0.95156000  0.76004000  0.02246000  1.0 -0.0915006501
C  C11  1  0.45156000  0.23996000  0.47754000  1.0 -0.0915006501
C  C12  1  0.04844000  0.26004000  0.47754000  1.0 -0.0915006501
C  C13  1  0.45156000  0.26004000  0.97754000  1.0 -0.0915006501
C  C14  1  0.04844000  0.23996000  0.97754000  1.0 -0.0915006501
C  C15  1  0.54844000  0.76004000  0.52246000  1.0 -0.0915006501
C  C16  1  0.95156000  0.73996000  0.52246000  1.0 -0.0915006501
C  C17  1  0.60213000  0.69835000  0.03633000  1.0 0.4749937519
C  C18  1  0.89787000  0.80165000  0.03633000  1.0 0.4749937519
C  C19  1  0.39787000  0.19835000  0.46367000  1.0 0.4749937519
C  C20  1  0.10213000  0.30165000  0.46367000  1.0 0.4749937519
C  C21  1  0.39787000  0.30165000  0.96367000  1.0 0.4749937519
C  C22  1  0.10213000  0.19835000  0.96367000  1.0 0.4749937519
C  C23  1  0.60213000  0.80165000  0.53633000  1.0 0.4749937519
C  C24  1  0.89787000  0.69835000  0.53633000  1.0 0.4749937519
C  C25  1  0.55671000  0.80928000  0.01915000  1.0 0.3195438176
C  C26  1  0.94329000  0.69072000  0.01915000  1.0 0.3195438176
C  C27  1  0.44329000  0.30928000  0.48085000  1.0 0.3195438176
C  C28  1  0.05671000  0.19072000  0.48085000  1.0 0.3195438176
C  C29  1  0.44329000  0.19072000  0.98085000  1.0 0.3195438176
C  C30  1  0.05671000  0.30928000  0.98085000  1.0 0.3195438176
C  C31  1  0.55671000  0.69072000  0.51915000  1.0 0.3195438176
C  C32  1  0.94329000  0.80928000  0.51915000  1.0 0.3195438176
C  C33  1  0.19685000  0.66409000  0.52550000  1.0 0.63204007
C  C34  1  0.30315000  0.83591000  0.52550000  1.0 0.63204007
C  C35  1  0.80315000  0.16409000  0.97450000  1.0 0.63204007
C  C36  1  0.69685000  0.33591000  0.97450000  1.0 0.63204007
C  C37  1  0.80315000  0.33591000  0.47450000  1.0 0.63204007
C  C38  1  0.69685000  0.16409000  0.47450000  1.0 0.63204007
C  C39  1  0.19685000  0.83591000  0.02550000  1.0 0.63204007
C  C40  1  0.30315000  0.66409000  0.02550000  1.0 0.63204007
C  C41  1  0.18957000  0.55538000  0.49983000  1.0 0.3195438176
C  C42  1  0.31043000  0.94462000  0.49983000  1.0 0.3195438176
C  C43  1  0.81043000  0.05538000  0.00017000  1.0 0.3195438176
C  C44  1  0.68957000  0.44462000  0.00017000  1.0 0.3195438176
C  C45  1  0.81043000  0.44462000  0.50017000  1.0 0.3195438176
C  C46  1  0.68957000  0.05538000  0.50017000  1.0 0.3195438176
C  C47  1  0.18957000  0.94462000  0.99983000  1.0 0.3195438176
C  C48  1  0.31043000  0.55538000  0.99983000  1.0 0.3195438176
C  C49  1  0.45586000  0.78160000  0.99919000  1.0 0.2106287382
C  C50  1  0.04414000  0.71840000  0.99919000  1.0 0.2106287382
C  C51  1  0.54414000  0.28160000  0.50081000  1.0 0.2106287382
C  C52  1  0.95586000  0.21840000  0.50081000  1.0 0.2106287382
C  C53  1  0.54414000  0.21840000  0.00081000  1.0 0.2106287382
C  C54  1  0.95586000  0.28160000  0.00081000  1.0 0.2106287382
C  C55  1  0.45586000  0.71840000  0.49919000  1.0 0.2106287382
C  C56  1  0.04414000  0.78160000  0.49919000  1.0 0.2106287382
C  C57  1  0.21426000  0.45630000  0.47628000  1.0 0.2106287382
C  C58  1  0.28574000  0.04370000  0.47628000  1.0 0.2106287382
C  C59  1  0.78574000  0.95630000  0.02372000  1.0 0.2106287382
C  C60  1  0.71426000  0.54370000  0.02372000  1.0 0.2106287382
C  C61  1  0.78574000  0.54370000  0.52372000  1.0 0.2106287382
C  C62  1  0.71426000  0.95630000  0.52372000  1.0 0.2106287382
C  C63  1  0.21426000  0.04370000  0.97628000  1.0 0.2106287382
C  C64  1  0.28574000  0.45630000  0.97628000  1.0 0.2106287382
C  C65  1  0.25975000  0.54770000  0.49826000  1.0 -0.0915006501
C  C66  1  0.24025000  0.95230000  0.49826000  1.0 -0.0915006501
C  C67  1  0.74025000  0.04770000  0.00174000  1.0 -0.0915006501
C  C68  1  0.75975000  0.45230000  0.00174000  1.0 -0.0915006501
C  C69  1  0.74025000  0.45230000  0.50174000  1.0 -0.0915006501
C  C70  1  0.75975000  0.04770000  0.50174000  1.0 -0.0915006501
C  C71  1  0.25975000  0.95230000  0.99826000  1.0 -0.0915006501
C  C72  1  0.24025000  0.54770000  0.99826000  1.0 -0.0915006501
C  C73  1  0.30258000  0.60237000  0.50935000  1.0 0.4764679126
C  C74  1  0.19742000  0.89763000  0.50935000  1.0 0.4764679126
C  C75  1  0.69742000  0.10237000  0.99065000  1.0 0.4764679126
C  C76  1  0.80258000  0.39763000  0.99065000  1.0 0.4764679126
C  C77  1  0.69742000  0.39763000  0.49065000  1.0 0.4764679126
C  C78  1  0.80258000  0.10237000  0.49065000  1.0 0.4764679126
C  C79  1  0.30258000  0.89763000  0.00935000  1.0 0.4764679126
C  C80  1  0.19742000  0.60237000  0.00935000  1.0 0.4764679126
C  C81  1  0.49020000  0.56750000  0.09919000  1.0 0.5467582211
C  C82  1  0.00980000  0.93250000  0.09919000  1.0 0.5467582211
C  C83  1  0.50980000  0.06750000  0.40081000  1.0 0.5467582211
C  C84  1  0.99020000  0.43250000  0.40081000  1.0 0.5467582211
C  C85  1  0.50980000  0.43250000  0.90081000  1.0 0.5467582211
C  C86  1  0.99020000  0.06750000  0.90081000  1.0 0.5467582211
C  C87  1  0.49020000  0.93250000  0.59919000  1.0 0.5467582211
C  C88  1  0.00980000  0.56750000  0.59919000  1.0 0.5467582211
C  C89  1  0.42700000  0.52800000  0.40612000  1.0 0.5467582211
C  C90  1  0.07300000  0.97200000  0.40612000  1.0 0.5467582211
C  C91  1  0.57300000  0.02800000  0.09388000  1.0 0.5467582211
C  C92  1  0.92700000  0.47200000  0.09388000  1.0 0.5467582211
C  C93  1  0.57300000  0.47200000  0.59388000  1.0 0.5467582211
C  C94  1  0.92700000  0.02800000  0.59388000  1.0 0.5467582211
C  C95  1  0.42700000  0.97200000  0.90612000  1.0 0.5467582211
C  C96  1  0.07300000  0.52800000  0.90612000  1.0 0.5467582211
C  C97  1  0.45150000  0.54830000  0.27487000  1.0 -0.0122364139
C  C98  1  0.04850000  0.95170000  0.27487000  1.0 -0.0122364139
C  C99  1  0.54850000  0.04830000  0.22513000  1.0 -0.0122364139
C  C100  1  0.95150000  0.45170000  0.22513000  1.0 -0.0122364139
C  C101  1  0.54850000  0.45170000  0.72513000  1.0 -0.0122364139
C  C102  1  0.95150000  0.04830000  0.72513000  1.0 -0.0122364139
C  C103  1  0.45150000  0.95170000  0.77487000  1.0 -0.0122364139
C  C104  1  0.04850000  0.54830000  0.77487000  1.0 -0.0122364139
C  C105  1  0.43490000  0.53640000  0.35997000  1.0 -0.0275837548
C  C106  1  0.06510000  0.96360000  0.35997000  1.0 -0.0275837548
C  C107  1  0.56510000  0.03640000  0.14003000  1.0 -0.0275837548
C  C108  1  0.93490000  0.46360000  0.14003000  1.0 -0.0275837548
C  C109  1  0.56510000  0.46360000  0.64003000  1.0 -0.0275837548
C  C110  1  0.93490000  0.03640000  0.64003000  1.0 -0.0275837548
C  C111  1  0.43490000  0.96360000  0.85997000  1.0 -0.0275837548
C  C112  1  0.06510000  0.53640000  0.85997000  1.0 -0.0275837548
C  C113  1  0.46190000  0.55290000  0.22980000  1.0 -0.0122364139
C  C114  1  0.03810000  0.94710000  0.22980000  1.0 -0.0122364139
C  C115  1  0.53810000  0.05290000  0.27020000  1.0 -0.0122364139
C  C116  1  0.96190000  0.44710000  0.27020000  1.0 -0.0122364139
C  C117  1  0.53810000  0.44710000  0.77020000  1.0 -0.0122364139
C  C118  1  0.96190000  0.05290000  0.77020000  1.0 -0.0122364139
C  C119  1  0.46190000  0.94710000  0.72980000  1.0 -0.0122364139
C  C120  1  0.03810000  0.55290000  0.72980000  1.0 -0.0122364139
C  C121  1  0.48130000  0.56290000  0.14483000  1.0 0.0817701484
C  C122  1  0.01870000  0.93710000  0.14483000  1.0 0.0817701484
C  C123  1  0.51870000  0.06290000  0.35517000  1.0 0.0817701484
C  C124  1  0.98130000  0.43710000  0.35517000  1.0 0.0817701484
C  C125  1  0.51870000  0.43710000  0.85517000  1.0 0.0817701484
C  C126  1  0.98130000  0.06290000  0.85517000  1.0 0.0817701484
C  C127  1  0.48130000  0.93710000  0.64483000  1.0 0.0817701484
C  C128  1  0.01870000  0.56290000  0.64483000  1.0 0.0817701484
C  C129  1  0.48540000  0.57840000  0.34403000  0.25 -0.0915006501
C  C130  1  0.01460000  0.92160000  0.34403000  0.25 -0.0915006501
C  C131  1  0.51460000  0.07840000  0.15597000  0.25 -0.0915006501
C  C132  1  0.98540000  0.42160000  0.15597000  0.25 -0.0915006501
C  C133  1  0.51460000  0.42160000  0.65597000  0.25 -0.0915006501
C  C134  1  0.98540000  0.07840000  0.65597000  0.25 -0.0915006501
C  C135  1  0.48540000  0.92160000  0.84403000  0.25 -0.0915006501
C  C136  1  0.01460000  0.57840000  0.84403000  0.25 -0.0915006501
C  C137  1  0.49370000  0.58430000  0.30150000  0.25 0.0500446547
C  C138  1  0.00630000  0.91570000  0.30150000  0.25 0.0500446547
C  C139  1  0.50630000  0.08430000  0.19850000  0.25 0.0500446547
C  C140  1  0.99370000  0.41570000  0.19850000  0.25 0.0500446547
C  C141  1  0.50630000  0.41570000  0.69850000  0.25 0.0500446547
C  C142  1  0.99370000  0.08430000  0.69850000  0.25 0.0500446547
C  C143  1  0.49370000  0.91570000  0.80150000  0.25 0.0500446547
C  C144  1  0.00630000  0.58430000  0.80150000  0.25 0.0500446547
C  C145  1  0.40110000  0.50630000  0.29080000  0.25 -0.0275837548
C  C146  1  0.09890000  0.99370000  0.29080000  0.25 -0.0275837548
C  C147  1  0.59890000  0.00630000  0.20920000  0.25 -0.0275837548
C  C148  1  0.90110000  0.49370000  0.20920000  0.25 -0.0275837548
C  C149  1  0.59890000  0.49370000  0.70920000  0.25 -0.0275837548
C  C150  1  0.90110000  0.00630000  0.70920000  0.25 -0.0275837548
C  C151  1  0.40110000  0.99370000  0.79080000  0.25 -0.0275837548
C  C152  1  0.09890000  0.50630000  0.79080000  0.25 -0.0275837548
C  C153  1  0.39280000  0.50030000  0.33333333  0.25 -0.0714365285
C  C154  1  0.10720000  0.99970000  0.33333333  0.25 -0.0714365285
C  C155  1  0.60720000  0.00030000  0.16667000  0.25 -0.0714365285
C  C156  1  0.89280000  0.49970000  0.16667000  0.25 -0.0714365285
C  C157  1  0.60720000  0.49970000  0.66666667  0.25 -0.0714365285
C  C158  1  0.89280000  0.00030000  0.66666667  0.25 -0.0714365285
C  C159  1  0.39280000  0.99970000  0.83333000  0.25 -0.0714365285
C  C160  1  0.10720000  0.50030000  0.83333000  0.25 -0.0714365285
C  C161  1  0.43340000  0.60650000  0.20800000  0.25 0.0500446547
C  C162  1  0.06660000  0.89350000  0.20800000  0.25 0.0500446547
C  C163  1  0.56660000  0.10650000  0.29200000  0.25 0.0500446547
C  C164  1  0.93340000  0.39350000  0.29200000  0.25 0.0500446547
C  C165  1  0.56660000  0.39350000  0.79200000  0.25 0.0500446547
C  C166  1  0.93340000  0.10650000  0.79200000  0.25 0.0500446547
C  C167  1  0.43340000  0.89350000  0.70800000  0.25 0.0500446547
C  C168  1  0.06660000  0.60650000  0.70800000  0.25 0.0500446547
C  C169  1  0.50020000  0.50430000  0.20910000  0.25 0.0328898895
C  C170  1  0.99980000  0.99570000  0.20910000  0.25 0.0328898895
C  C171  1  0.49980000  0.00430000  0.29090000  0.25 0.0328898895
C  C172  1  0.00020000  0.49570000  0.29090000  0.25 0.0328898895
C  C173  1  0.49980000  0.49570000  0.79090000  0.25 0.0328898895
C  C174  1  0.00020000  0.00430000  0.79090000  0.25 0.0328898895
C  C175  1  0.50020000  0.99570000  0.70910000  0.25 0.0328898895
C  C176  1  0.99980000  0.50430000  0.70910000  0.25 0.0328898895
C  C177  1  0.50990000  0.50930000  0.16660000  0.25 -0.2229820922
C  C178  1  0.99010000  0.99070000  0.16660000  0.25 -0.2229820922
C  C179  1  0.49010000  0.00930000  0.33340000  0.25 -0.2229820922
C  C180  1  0.00990000  0.49070000  0.33340000  0.25 -0.2229820922
C  C181  1  0.49010000  0.49070000  0.83340000  0.25 -0.2229820922
C  C182  1  0.00990000  0.00930000  0.83340000  0.25 -0.2229820922
C  C183  1  0.50990000  0.99070000  0.66666667  0.25 -0.2229820922
C  C184  1  0.99010000  0.50930000  0.66666667  0.25 -0.2229820922
C  C185  1  0.44310000  0.61150000  0.16550000  0.25 -0.2308430536
C  C186  1  0.05690000  0.88850000  0.16550000  0.25 -0.2308430536
C  C187  1  0.55690000  0.11150000  0.33450000  0.25 -0.2308430536
C  C188  1  0.94310000  0.38850000  0.33450000  0.25 -0.2308430536
C  C189  1  0.55690000  0.38850000  0.83450000  0.25 -0.2308430536
C  C190  1  0.94310000  0.11150000  0.83450000  0.25 -0.2308430536
C  C191  1  0.44310000  0.88850000  0.66550000  0.25 -0.2308430536
C  C192  1  0.05690000  0.61150000  0.66550000  0.25 -0.2308430536
C  C193  1  0.45160000  0.69440000  0.26590000  0.25 -0.157809107
C  C194  1  0.04840000  0.80560000  0.26590000  0.25 -0.157809107
C  C195  1  0.54840000  0.19440000  0.23410000  0.25 -0.157809107
C  C196  1  0.95160000  0.30560000  0.23410000  0.25 -0.157809107
C  C197  1  0.54840000  0.30560000  0.73410000  0.25 -0.157809107
C  C198  1  0.95160000  0.19440000  0.73410000  0.25 -0.157809107
C  C199  1  0.45160000  0.80560000  0.76590000  0.25 -0.157809107
C  C200  1  0.04840000  0.69440000  0.76590000  0.25 -0.157809107
C  C201  1  0.45350000  0.59620000  0.34370000  0.75 -0.0996071663
C  C202  1  0.04650000  0.90380000  0.34370000  0.75 -0.0996071663
C  C203  1  0.54650000  0.09620000  0.15630000  0.75 -0.0996071663
C  C204  1  0.95350000  0.40380000  0.15630000  0.75 -0.0996071663
C  C205  1  0.54650000  0.40380000  0.65630000  0.75 -0.0996071663
C  C206  1  0.95350000  0.09620000  0.65630000  0.75 -0.0996071663
C  C207  1  0.45350000  0.90380000  0.84370000  0.75 -0.0996071663
C  C208  1  0.04650000  0.59620000  0.84370000  0.75 -0.0996071663
C  C209  1  0.42670000  0.47980000  0.33570000  0.75 -0.0915006501
C  C210  1  0.07330000  0.02020000  0.33570000  0.75 -0.0915006501
C  C211  1  0.57330000  0.97980000  0.16430000  0.75 -0.0915006501
C  C212  1  0.92670000  0.52020000  0.16430000  0.75 -0.0915006501
C  C213  1  0.57330000  0.52020000  0.66430000  0.75 -0.0915006501
C  C214  1  0.92670000  0.97980000  0.66430000  0.75 -0.0915006501
C  C215  1  0.42670000  0.02020000  0.83570000  0.75 -0.0915006501
C  C216  1  0.07330000  0.47980000  0.83570000  0.75 -0.0915006501
C  C217  1  0.45950000  0.60420000  0.30130000  0.75 0.0365830376
C  C218  1  0.04050000  0.89580000  0.30130000  0.75 0.0365830376
C  C219  1  0.54050000  0.10420000  0.19870000  0.75 0.0365830376
C  C220  1  0.95950000  0.39580000  0.19870000  0.75 0.0365830376
C  C221  1  0.54050000  0.39580000  0.69870000  0.75 0.0365830376
C  C222  1  0.95950000  0.10420000  0.69870000  0.75 0.0365830376
C  C223  1  0.45950000  0.89580000  0.80130000  0.75 0.0365830376
C  C224  1  0.04050000  0.60420000  0.80130000  0.75 0.0365830376
C  C225  1  0.51490000  0.51590000  0.16690000  0.75 -0.2308430536
C  C226  1  0.98510000  0.98410000  0.16690000  0.75 -0.2308430536
C  C227  1  0.48510000  0.01590000  0.33310000  0.75 -0.2308430536
C  C228  1  0.01490000  0.48410000  0.33310000  0.75 -0.2308430536
C  C229  1  0.48510000  0.48410000  0.83310000  0.75 -0.2308430536
C  C230  1  0.01490000  0.01590000  0.83310000  0.75 -0.2308430536
C  C231  1  0.51490000  0.98410000  0.66690000  0.75 -0.2308430536
C  C232  1  0.98510000  0.51590000  0.66690000  0.75 -0.2308430536
C  C233  1  0.42920000  0.60090000  0.20680000  0.75 0.0328898895
C  C234  1  0.07080000  0.89910000  0.20680000  0.75 0.0328898895
C  C235  1  0.57080000  0.10090000  0.29320000  0.75 0.0365830376
C  C236  1  0.92920000  0.39910000  0.29320000  0.75 0.0365830376
C  C237  1  0.57080000  0.39910000  0.79320000  0.75 0.0365830376
C  C238  1  0.92920000  0.10090000  0.79320000  0.75 0.0365830376
C  C239  1  0.42920000  0.89910000  0.70680000  0.75 0.0365830376
C  C240  1  0.07080000  0.60090000  0.70680000  0.75 0.0365830376
C  C241  1  0.43470000  0.48420000  0.29350000  0.75 0.0817701484
C  C242  1  0.06530000  0.01580000  0.29350000  0.75 0.0817701484
C  C243  1  0.56530000  0.98420000  0.20650000  0.75 0.0817701484
C  C244  1  0.93470000  0.51580000  0.20650000  0.75 0.0817701484
C  C245  1  0.56530000  0.51580000  0.70650000  0.75 0.0817701484
C  C246  1  0.93470000  0.98420000  0.70650000  0.75 0.0817701484
C  C247  1  0.43470000  0.01580000  0.79350000  0.75 0.0817701484
C  C248  1  0.06530000  0.48420000  0.79350000  0.75 0.0817701484
C  C249  1  0.50680000  0.51100000  0.20930000  0.75 0.017017487
C  C250  1  0.99320000  0.98900000  0.20930000  0.75 0.017017487
C  C251  1  0.49320000  0.01100000  0.29070000  0.75 0.017017487
C  C252  1  0.00680000  0.48900000  0.29070000  0.75 0.0139355767
C  C253  1  0.49320000  0.48900000  0.79070000  0.75 0.017017487
C  C254  1  0.00680000  0.01100000  0.79070000  0.75 0.017017487
C  C255  1  0.50680000  0.98900000  0.70930000  0.75 0.017017487
C  C256  1  0.99320000  0.51100000  0.70930000  0.75 0.017017487
C  C257  1  0.43830000  0.60690000  0.16420000  0.75 -0.2308430536
C  C258  1  0.06170000  0.89310000  0.16420000  0.75 -0.2308430536
C  C259  1  0.56170000  0.10690000  0.33580000  0.75 -0.2308430536
C  C260  1  0.93830000  0.39310000  0.33580000  0.75 -0.2308430536
C  C261  1  0.56170000  0.39310000  0.83580000  0.75 -0.2308430536
C  C262  1  0.93830000  0.10690000  0.83580000  0.75 -0.2308430536
C  C263  1  0.43830000  0.89310000  0.66420000  0.75 -0.2308430536
C  C264  1  0.06170000  0.60690000  0.66420000  0.75 -0.2308430536
C  C265  1  0.49800000  0.39900000  0.24850000  0.75 -0.1100957295
C  C266  1  0.00200000  0.10100000  0.24850000  0.75 -0.1100957295
C  C267  1  0.50200000  0.89900000  0.25150000  0.75 -0.1100957295
C  C268  1  0.99800000  0.60100000  0.25150000  0.75 -0.1100957295
C  C269  1  0.50200000  0.60100000  0.75150000  0.75 -0.1100957295
C  C270  1  0.99800000  0.89900000  0.75150000  0.75 -0.1100957295
C  C271  1  0.49800000  0.10100000  0.74850000  0.75 -0.1100957295
C  C272  1  0.00200000  0.39900000  0.74850000  0.75 -0.1100957295
N  N1  1  0.15640000  0.61204000  0.51266000  1.0 -0.5099907018
N  N2  1  0.34360000  0.88796000  0.51266000  1.0 -0.5099907018
N  N3  1  0.84360000  0.11204000  0.98734000  1.0 -0.5099907018
N  N4  1  0.65640000  0.38796000  0.98734000  1.0 -0.5099907018
N  N5  1  0.84360000  0.38796000  0.48734000  1.0 -0.5099907018
N  N6  1  0.65640000  0.11204000  0.48734000  1.0 -0.5099907018
N  N7  1  0.15640000  0.88796000  0.01266000  1.0 -0.5099907018
N  N8  1  0.34360000  0.61204000  0.01266000  1.0 -0.5099907018
N  N9  1  0.49743000  0.83609000  0.00405000  1.0 -0.380898189
N  N10  1  0.00257000  0.66391000  0.00405000  1.0 -0.380898189
N  N11  1  0.50257000  0.33609000  0.49595000  1.0 -0.380898189
N  N12  1  0.99743000  0.16391000  0.49595000  1.0 -0.380898189
N  N13  1  0.50257000  0.16391000  0.99595000  1.0 -0.380898189
N  N14  1  0.99743000  0.33609000  0.99595000  1.0 -0.380898189
N  N15  1  0.49743000  0.66391000  0.50405000  1.0 -0.380898189
N  N16  1  0.00257000  0.83609000  0.50405000  1.0 -0.380898189
N  N17  1  0.61438000  0.84389000  0.02988000  1.0 -0.5099907018
N  N18  1  0.88562000  0.65611000  0.02988000  1.0 -0.5099907018
N  N19  1  0.38562000  0.34389000  0.47012000  1.0 -0.5099907018
N  N20  1  0.11438000  0.15611000  0.47012000  1.0 -0.5099907018
N  N21  1  0.38562000  0.15611000  0.97012000  1.0 -0.5099907018
N  N22  1  0.11438000  0.34389000  0.97012000  1.0 -0.5099907018
N  N23  1  0.61438000  0.65611000  0.52988000  1.0 -0.5099907018
N  N24  1  0.88562000  0.84389000  0.52988000  1.0 -0.5099907018
N  N25  1  0.48347000  0.72301000  0.01004000  1.0 -0.2703414247
N  N26  1  0.01653000  0.77699000  0.01004000  1.0 -0.2703414247
N  N27  1  0.51653000  0.22301000  0.48996000  1.0 -0.2703414247
N  N28  1  0.98347000  0.27699000  0.48996000  1.0 -0.2703414247
N  N29  1  0.51653000  0.27699000  0.98996000  1.0 -0.2703414247
N  N30  1  0.98347000  0.22301000  0.98996000  1.0 -0.2703414247
N  N31  1  0.48347000  0.77699000  0.51004000  1.0 -0.2703414247
N  N32  1  0.01653000  0.72301000  0.51004000  1.0 -0.2703414247
N  N33  1  0.27485000  0.48375000  0.48306000  1.0 -0.2851838231
N  N34  1  0.22515000  0.01625000  0.48306000  1.0 -0.2851838231
N  N35  1  0.72515000  0.98375000  0.01694000  1.0 -0.2851838231
N  N36  1  0.77485000  0.51625000  0.01694000  1.0 -0.2851838231
N  N37  1  0.72515000  0.51625000  0.51694000  1.0 -0.2851838231
N  N38  1  0.77485000  0.98375000  0.51694000  1.0 -0.2851838231
N  N39  1  0.27485000  0.01625000  0.98306000  1.0 -0.2851838231
N  N40  1  0.22515000  0.48375000  0.98306000  1.0 -0.2851838231
N  N41  1  0.65810000  0.73612000  0.04817000  1.0 -0.4193493263
N  N42  1  0.84190000  0.76388000  0.04817000  1.0 -0.4193493263
N  N43  1  0.34190000  0.23612000  0.45183000  1.0 -0.4193493263
N  N44  1  0.15810000  0.26388000  0.45183000  1.0 -0.4193493263
N  N45  1  0.34190000  0.26388000  0.95183000  1.0 -0.4193493263
N  N46  1  0.15810000  0.23612000  0.95183000  1.0 -0.4193493263
N  N47  1  0.65810000  0.76388000  0.54817000  1.0 -0.4193493263
N  N48  1  0.84190000  0.73612000  0.54817000  1.0 -0.4193493263
N  N49  1  0.16029000  0.49674000  0.48561000  1.0 -0.380898189
N  N50  1  0.33971000  0.00326000  0.48561000  1.0 -0.380898189
N  N51  1  0.83971000  0.99674000  0.01439000  1.0 -0.380898189
N  N52  1  0.66029000  0.50326000  0.01439000  1.0 -0.380898189
N  N53  1  0.83971000  0.50326000  0.51439000  1.0 -0.380898189
N  N54  1  0.66029000  0.99674000  0.51439000  1.0 -0.380898189
N  N55  1  0.16029000  0.00326000  0.98561000  1.0 -0.38550414
N  N56  1  0.33971000  0.49674000  0.98561000  1.0 -0.380898189
N  N57  1  0.26645000  0.65822000  0.52332000  1.0 -0.4129586913
N  N58  1  0.23355000  0.84178000  0.52332000  1.0 -0.4129586913
N  N59  1  0.73355000  0.15822000  0.97668000  1.0 -0.4129586913
N  N60  1  0.76645000  0.34178000  0.97668000  1.0 -0.4129586913
N  N61  1  0.73355000  0.34178000  0.47668000  1.0 -0.4129586913
N  N62  1  0.76645000  0.15822000  0.47668000  1.0 -0.4129586913
N  N63  1  0.26645000  0.84178000  0.02332000  1.0 -0.4129586913
N  N64  1  0.23355000  0.65822000  0.02332000  1.0 -0.4129586913
N  N65  1  0.41190000  0.66520000  0.23110000  0.25 -0.2308430536
N  N66  1  0.08810000  0.83480000  0.23110000  0.25 -0.2308430536
N  N67  1  0.58810000  0.16520000  0.26890000  0.25 -0.2308430536
N  N68  1  0.91190000  0.33480000  0.26890000  0.25 -0.2308430536
N  N69  1  0.58810000  0.33480000  0.76890000  0.25 -0.2308430536
N  N70  1  0.91190000  0.16520000  0.76890000  0.25 -0.2308430536
N  N71  1  0.41190000  0.83480000  0.73110000  0.25 -0.2308430536
N  N72  1  0.08810000  0.66520000  0.73110000  0.25 -0.2308430536
N  N73  1  0.50490000  0.65400000  0.28730000  0.25 -0.2607486494
N  N74  1  0.99510000  0.84600000  0.28730000  0.25 -0.2607486494
N  N75  1  0.49510000  0.15400000  0.21270000  0.25 -0.2607486494
N  N76  1  0.00490000  0.34600000  0.21270000  0.25 -0.2607486494
N  N77  1  0.49510000  0.34600000  0.71270000  0.25 -0.2607486494
N  N78  1  0.00490000  0.15400000  0.71270000  0.25 -0.2607486494
N  N79  1  0.50490000  0.84600000  0.78730000  0.25 -0.2607486494
N  N80  1  0.99510000  0.65400000  0.78730000  0.25 -0.2607486494
N  N81  1  0.43410000  0.42030000  0.27060000  0.75 -0.3424369008
N  N82  1  0.06590000  0.07970000  0.27060000  0.75 -0.3424369008
N  N83  1  0.56590000  0.92030000  0.22940000  0.75 -0.3424369008
N  N84  1  0.93410000  0.57970000  0.22940000  0.75 -0.3424369008
N  N85  1  0.56590000  0.57970000  0.72940000  0.75 -0.3424369008
N  N86  1  0.93410000  0.92030000  0.72940000  0.75 -0.3424369008
N  N87  1  0.43410000  0.07970000  0.77060000  0.75 -0.3424369008
N  N88  1  0.06590000  0.42030000  0.77060000  0.75 -0.3424369008
N  N89  1  0.54020000  0.45570000  0.23140000  0.75 -0.1987672601
N  N90  1  0.95980000  0.04430000  0.23140000  0.75 -0.1987672601
N  N91  1  0.45980000  0.95570000  0.26860000  0.75 -0.1987672601
N  N92  1  0.04020000  0.54430000  0.26860000  0.75 -0.1987672601
N  N93  1  0.45980000  0.54430000  0.76860000  0.75 -0.1987672601
N  N94  1  0.04020000  0.95570000  0.76860000  0.75 -0.1987672601
N  N95  1  0.54020000  0.04430000  0.73140000  0.75 -0.1987672601
N  N96  1  0.95980000  0.45570000  0.73140000  0.75 -0.1987672601
O  O1  1  0.49107000  0.56444000  0.98771000  1.0 -0.7805266142
O  O2  1  0.00893000  0.93556000  0.98771000  1.0 -0.7805266142
O  O3  1  0.50893000  0.06444000  0.51229000  1.0 -0.7805266142
O  O4  1  0.99107000  0.43556000  0.51229000  1.0 -0.7805266142
O  O5  1  0.50893000  0.43556000  0.01229000  1.0 -0.7805266142
O  O6  1  0.99107000  0.06444000  0.01229000  1.0 -0.7805266142
O  O7  1  0.49107000  0.93556000  0.48771000  1.0 -0.7805266142
O  O8  1  0.00893000  0.56444000  0.48771000  1.0 -0.7805266142
O  O9  1  0.43751000  0.47871000  0.51146000  1.0 -0.7805266142
O  O10  1  0.06249000  0.02129000  0.51146000  1.0 -0.7805266142
O  O11  1  0.56249000  0.97871000  0.98854000  1.0 -0.7805266142
O  O12  1  0.93751000  0.52129000  0.98854000  1.0 -0.7805266142
O  O13  1  0.56249000  0.52129000  0.48854000  1.0 -0.7805266142
O  O14  1  0.93751000  0.97871000  0.48854000  1.0 -0.7805266142
O  O15  1  0.43751000  0.02129000  0.01146000  1.0 -0.7805266142
O  O16  1  0.06249000  0.47871000  0.01146000  1.0 -0.7805266142
O  O17  1  0.71846000  0.83269000  0.05916000  1.0 -0.5675635472
O  O18  1  0.78154000  0.66731000  0.05916000  1.0 -0.5675635472
O  O19  1  0.28154000  0.33269000  0.44084000  1.0 -0.5675635472
O  O20  1  0.21846000  0.16731000  0.44084000  1.0 -0.5675635472
O  O21  1  0.28154000  0.16731000  0.94084000  1.0 -0.5675635472
O  O22  1  0.21846000  0.33269000  0.94084000  1.0 -0.5675635472
O  O23  1  0.71846000  0.66731000  0.55916000  1.0 -0.5675635472
O  O24  1  0.78154000  0.83269000  0.55916000  1.0 -0.5675635472
O  O25  1  0.60223000  0.63523000  0.03988000  1.0 -0.4896413135
O  O26  1  0.89777000  0.86477000  0.03988000  1.0 -0.4896413135
O  O27  1  0.39777000  0.13523000  0.46012000  1.0 -0.4896413135
O  O28  1  0.10223000  0.36477000  0.46012000  1.0 -0.4896413135
O  O29  1  0.39777000  0.36477000  0.96012000  1.0 -0.4896413135
O  O30  1  0.10223000  0.13523000  0.96012000  1.0 -0.4896413135
O  O31  1  0.60223000  0.86477000  0.53988000  1.0 -0.4896413135
O  O32  1  0.89777000  0.63523000  0.53988000  1.0 -0.4896413135
O  O33  1  0.17110000  0.71743000  0.53943000  1.0 -0.5675635472
O  O34  1  0.32890000  0.78257000  0.53943000  1.0 -0.5675635472
O  O35  1  0.82890000  0.21743000  0.96057000  1.0 -0.5675635472
O  O36  1  0.67110000  0.28257000  0.96057000  1.0 -0.5675635472
O  O37  1  0.82890000  0.28257000  0.46057000  1.0 -0.5675635472
O  O38  1  0.67110000  0.21743000  0.46057000  1.0 -0.5675635472
O  O39  1  0.17110000  0.78257000  0.03943000  1.0 -0.5675635472
O  O40  1  0.32890000  0.71743000  0.03943000  1.0 -0.5675635472
O  O41  1  0.53254000  0.52697000  0.08267000  1.0 -0.4979835883
O  O42  1  0.96746000  0.97303000  0.08267000  1.0 -0.4979835883
O  O43  1  0.46746000  0.02697000  0.41733000  1.0 -0.4979835883
O  O44  1  0.03254000  0.47303000  0.41733000  1.0 -0.4979835883
O  O45  1  0.46746000  0.47303000  0.91733000  1.0 -0.4979835883
O  O46  1  0.03254000  0.02697000  0.91733000  1.0 -0.4979835883
O  O47  1  0.53254000  0.97303000  0.58267000  1.0 -0.4979835883
O  O48  1  0.96746000  0.52697000  0.58267000  1.0 -0.4979835883
O  O49  1  0.36558000  0.60530000  0.50801000  1.0 -0.4789696992
O  O50  1  0.13442000  0.89470000  0.50801000  1.0 -0.4789696992
O  O51  1  0.63442000  0.10530000  0.99199000  1.0 -0.4789696992
O  O52  1  0.86558000  0.39470000  0.99199000  1.0 -0.4789696992
O  O53  1  0.63442000  0.39470000  0.49199000  1.0 -0.4789696992
O  O54  1  0.86558000  0.10530000  0.49199000  1.0 -0.4789696992
O  O55  1  0.36558000  0.89470000  0.00801000  1.0 -0.4789696992
O  O56  1  0.13442000  0.60530000  0.00801000  1.0 -0.4789696992
O  O57  1  0.45638000  0.61122000  0.07951000  1.0 -0.5198912159
O  O58  1  0.04362000  0.88878000  0.07951000  1.0 -0.5198912159
O  O59  1  0.54362000  0.11122000  0.42049000  1.0 -0.5198912159
O  O60  1  0.95638000  0.38878000  0.42049000  1.0 -0.5198912159
O  O61  1  0.54362000  0.38878000  0.92049000  1.0 -0.5198912159
O  O62  1  0.95638000  0.11122000  0.92049000  1.0 -0.5198912159
O  O63  1  0.45638000  0.88878000  0.57951000  1.0 -0.5198912159
O  O64  1  0.04362000  0.61122000  0.57951000  1.0 -0.5198912159
O  O65  1  0.45050000  0.57382000  0.42887000  1.0 -0.4896413135
O  O66  1  0.04950000  0.92618000  0.42887000  1.0 -0.4896413135
O  O67  1  0.54950000  0.07382000  0.07113000  1.0 -0.4896413135
O  O68  1  0.95050000  0.42618000  0.07113000  1.0 -0.4896413135
O  O69  1  0.54950000  0.42618000  0.57113000  1.0 -0.4896413135
O  O70  1  0.95050000  0.07382000  0.57113000  1.0 -0.4896413135
O  O71  1  0.45050000  0.92618000  0.92887000  1.0 -0.4896413135
O  O72  1  0.04950000  0.57382000  0.92887000  1.0 -0.4896413135
O  O73  1  0.39790000  0.47541000  0.41854000  1.0 -0.4896413135
O  O74  1  0.10210000  0.02459000  0.41854000  1.0 -0.4896413135
O  O75  1  0.60210000  0.97541000  0.08146000  1.0 -0.4896413135
O  O76  1  0.89790000  0.52459000  0.08146000  1.0 -0.4896413135
O  O77  1  0.60210000  0.52459000  0.58146000  1.0 -0.4896413135
O  O78  1  0.89790000  0.97541000  0.58146000  1.0 -0.4896413135
O  O79  1  0.39790000  0.02459000  0.91854000  1.0 -0.4896413135
O  O80  1  0.10210000  0.47541000  0.91854000  1.0 -0.4896413135
