# DDEC6 charges by PACMAN v1.1 (https://github.com/mtap-research/PACMAN-charge/)
data_d0ce01004a2_4_FSR_pacman
_symmetry_space_group_name_H-M   'P 1'
_cell_length_a   11.92640000
_cell_length_b   14.14570000
_cell_length_c   17.61980000
_cell_angle_alpha   90.00000000
_cell_angle_beta   90.00000000
_cell_angle_gamma   90.00000000
_symmetry_Int_Tables_number   1
_chemical_formula_structural   Zn3H16C23O16
_chemical_formula_sum   'Zn6 H32 C46 O32'
_cell_volume   2972.58847012
_cell_formula_units_Z   2
loop_
 _symmetry_equiv_pos_site_id
 _symmetry_equiv_pos_as_xyz
  1  'x, y, z'
loop_
 _atom_site_type_symbol
 _atom_site_label
 _atom_site_symmetry_multiplicity
 _atom_site_fract_x
 _atom_site_fract_y
 _atom_site_fract_z
 _atom_site_occupancy
 _atom_site_charge
Zn  Zn1  1  0.88880000  0.59184000  0.40735000  1.0 0.885243137
Zn  Zn2  1  0.11120000  0.09184000  0.09265000  1.0 0.8847246362
Zn  Zn3  1  0.11120000  0.09184000  0.90735000  1.0 0.8847246362
Zn  Zn4  1  0.88880000  0.59184000  0.59265000  1.0 0.8847246362
Zn  Zn5  1  0.13136000  0.65302000  0.50000000  1.0 0.8522272003
Zn  Zn6  1  0.86864000  0.15302000  0.00000000  1.0 0.8522272003
H  H1  1  0.93180000  0.70891000  0.50000000  1.0 0.3559522373
H  H2  1  0.06820000  0.20891000  0.00000000  1.0 0.3559522373
H  H3  1  0.35138000  0.65085000  0.46405000  1.0 0.2807105375
H  H4  1  0.64862000  0.15085000  0.03595000  1.0 0.2807105375
H  H5  1  0.64862000  0.15085000  0.96405000  1.0 0.2807105375
H  H6  1  0.35138000  0.65085000  0.53595000  1.0 0.2807105375
H  H7  1  0.06827000  0.78428000  0.58286000  1.0 0.3397334112
H  H8  1  0.93173000  0.28428000  0.91714000  1.0 0.3397334112
H  H9  1  0.93173000  0.28428000  0.08286000  1.0 0.3397334112
H  H10  1  0.06827000  0.78428000  0.41714000  1.0 0.3397334112
H  H11  1  0.14246000  0.73583000  0.62511000  1.0 0.3336853577
H  H12  1  0.85754000  0.23583000  0.87489000  1.0 0.3336853577
H  H13  1  0.85754000  0.23583000  0.12511000  1.0 0.3336853577
H  H14  1  0.14246000  0.73583000  0.37489000  1.0 0.3336853577
H  H15  1  0.60500000  0.41537000  0.38564000  1.0 0.147060786
H  H16  1  0.39500000  0.91537000  0.11436000  1.0 0.147060786
H  H17  1  0.39500000  0.91537000  0.88564000  1.0 0.147060786
H  H18  1  0.60500000  0.41537000  0.61436000  1.0 0.147060786
H  H19  1  0.36923000  0.27290000  0.50000000  1.0 0.1562529646
H  H20  1  0.63077000  0.77290000  0.00000000  1.0 0.1562529646
H  H21  1  0.29935000  0.44087000  0.41085000  1.0 0.1292952118
H  H22  1  0.70065000  0.94087000  0.08915000  1.0 0.1292952118
H  H23  1  0.70065000  0.94087000  0.91085000  1.0 0.1292952118
H  H24  1  0.29935000  0.44087000  0.58915000  1.0 0.1292952118
H  H25  1  0.32920000  0.22392000  0.26352000  1.0 0.1562529646
H  H26  1  0.67080000  0.72392000  0.23648000  1.0 0.1562529646
H  H27  1  0.67080000  0.72392000  0.76352000  1.0 0.1562529646
H  H28  1  0.32920000  0.22392000  0.73648000  1.0 0.1562529646
H  H29  1  0.04080000  0.36880000  0.27581000  1.0 0.1292952118
H  H30  1  0.95920000  0.86880000  0.22419000  1.0 0.1292952118
H  H31  1  0.95920000  0.86880000  0.77581000  1.0 0.1292952118
H  H32  1  0.04080000  0.36880000  0.72419000  1.0 0.1292952118
C  C1  1  0.72500000  0.48670000  0.50000000  1.0 0.5794090224
C  C2  1  0.27500000  0.98670000  0.00000000  1.0 0.5794090224
C  C3  1  0.62150000  0.42250000  0.50000000  1.0 0.0275343401
C  C4  1  0.37850000  0.92250000  0.00000000  1.0 0.0275343401
C  C5  1  0.57390000  0.39530000  0.43130000  1.0 -0.2493222909
C  C6  1  0.42610000  0.89530000  0.06870000  1.0 -0.2493222909
C  C7  1  0.42610000  0.89530000  0.93130000  1.0 -0.2493222909
C  C8  1  0.57390000  0.39530000  0.56870000  1.0 -0.2493222909
C  C9  1  0.48090000  0.33880000  0.43160000  1.0 0.259451483
C  C10  1  0.51910000  0.83880000  0.06840000  1.0 0.259451483
C  C11  1  0.51910000  0.83880000  0.93160000  1.0 0.259451483
C  C12  1  0.48090000  0.33880000  0.56840000  1.0 0.259451483
C  C13  1  0.43310000  0.31060000  0.50000000  1.0 -0.3185175764
C  C14  1  0.56690000  0.81060000  0.00000000  1.0 -0.3185175764
C  C15  1  0.26840000  0.40130000  0.37430000  1.0 -0.2430857024
C  C16  1  0.73160000  0.90130000  0.12570000  1.0 -0.2430857024
C  C17  1  0.73160000  0.90130000  0.87430000  1.0 -0.2430857024
C  C18  1  0.26840000  0.40130000  0.62570000  1.0 -0.2430857024
C  C19  1  0.33040000  0.32610000  0.34350000  1.0 0.259451483
C  C20  1  0.66960000  0.82610000  0.15650000  1.0 0.259451483
C  C21  1  0.66960000  0.82610000  0.84350000  1.0 0.259451483
C  C22  1  0.33040000  0.32610000  0.65650000  1.0 0.259451483
C  C23  1  0.28620000  0.27140000  0.28560000  1.0 -0.2107428419
C  C24  1  0.71380000  0.77140000  0.21440000  1.0 -0.2107428419
C  C25  1  0.71380000  0.77140000  0.78560000  1.0 -0.2107428419
C  C26  1  0.28620000  0.27140000  0.71440000  1.0 -0.2107428419
C  C27  1  0.17820000  0.28750000  0.26070000  1.0 -0.0265986346
C  C28  1  0.82180000  0.78750000  0.23930000  1.0 -0.0265986346
C  C29  1  0.82180000  0.78750000  0.76070000  1.0 -0.0265986346
C  C30  1  0.17820000  0.28750000  0.73930000  1.0 -0.0265986346
C  C31  1  0.11390000  0.35880000  0.29230000  1.0 -0.150907177
C  C32  1  0.88610000  0.85880000  0.20770000  1.0 -0.150907177
C  C33  1  0.88610000  0.85880000  0.79230000  1.0 -0.150907177
C  C34  1  0.11390000  0.35880000  0.70770000  1.0 -0.150907177
C  C35  1  0.15930000  0.41500000  0.34850000  1.0 -0.0265986346
C  C36  1  0.84070000  0.91500000  0.15150000  1.0 -0.0265986346
C  C37  1  0.84070000  0.91500000  0.84850000  1.0 -0.0265986346
C  C38  1  0.15930000  0.41500000  0.65150000  1.0 -0.0265986346
C  C39  1  0.09340000  0.49540000  0.38150000  1.0 0.5132474494
C  C40  1  0.90660000  0.99540000  0.11850000  1.0 0.5132474494
C  C41  1  0.90660000  0.99540000  0.88150000  1.0 0.5132474494
C  C42  1  0.09340000  0.49540000  0.61850000  1.0 0.5132474494
C  C43  1  0.12880000  0.22600000  0.19820000  1.0 0.441443224
C  C44  1  0.87120000  0.72600000  0.30180000  1.0 0.441443224
C  C45  1  0.87120000  0.72600000  0.69820000  1.0 0.441443224
C  C46  1  0.12880000  0.22600000  0.80180000  1.0 0.441443224
O  O1  1  0.18910000  0.16630000  0.16851000  1.0 -0.4429368185
O  O2  1  0.81090000  0.66630000  0.33149000  1.0 -0.4429368185
O  O3  1  0.81090000  0.66630000  0.66851000  1.0 -0.4429368185
O  O4  1  0.18910000  0.16630000  0.83149000  1.0 -0.4429368185
O  O5  1  0.99230000  0.49930000  0.36576000  1.0 -0.4666965561
O  O6  1  0.00770000  0.99930000  0.13424000  1.0 -0.4666965561
O  O7  1  0.00770000  0.99930000  0.86576000  1.0 -0.4666965561
O  O8  1  0.99230000  0.49930000  0.63424000  1.0 -0.4666965561
O  O9  1  0.44120000  0.30750000  0.36351000  1.0 -0.2107428419
O  O10  1  0.55880000  0.80750000  0.13649000  1.0 -0.2107428419
O  O11  1  0.55880000  0.80750000  0.86351000  1.0 -0.2107428419
O  O12  1  0.44120000  0.30750000  0.63649000  1.0 -0.2107428419
O  O13  1  0.76210000  0.50870000  0.43712000  1.0 -0.5310970204
O  O14  1  0.23790000  0.00870000  0.06288000  1.0 -0.5310970204
O  O15  1  0.23790000  0.00870000  0.93712000  1.0 -0.5310970204
O  O16  1  0.76210000  0.50870000  0.56288000  1.0 -0.5310970204
O  O17  1  0.94820000  0.65290000  0.50000000  1.0 -0.8519717859
O  O18  1  0.05180000  0.15290000  0.00000000  1.0 -0.8519717859
O  O19  1  0.30830000  0.65880000  0.50000000  1.0 -0.6108826207
O  O20  1  0.69170000  0.15880000  0.00000000  1.0 -0.6108826207
O  O21  1  0.13320000  0.75960000  0.58120000  1.0 -0.6622972297
O  O22  1  0.86680000  0.25960000  0.91880000  1.0 -0.6622972297
O  O23  1  0.86680000  0.25960000  0.08120000  1.0 -0.6622972297
O  O24  1  0.13320000  0.75960000  0.41880000  1.0 -0.6622972297
O  O25  1  0.05600000  0.28400000  0.15800000  0.19 -0.1568880672
O  O26  1  0.94400000  0.78400000  0.34200000  0.19 -0.1568880672
O  O27  1  0.94400000  0.78400000  0.65800000  0.19 -0.1568880672
O  O28  1  0.05600000  0.28400000  0.84200000  0.19 -0.1568880672
O  O29  1  0.12880000  0.52620000  0.44730000  0.31 -0.1700214478
O  O30  1  0.87120000  0.02620000  0.05270000  0.31 -0.1700214478
O  O31  1  0.87120000  0.02620000  0.94730000  0.31 -0.1700214478
O  O32  1  0.12880000  0.52620000  0.55270000  0.31 -0.1700214478
O  O33  1  0.14640000  0.56570000  0.40870000  0.69 -0.2430857024
O  O34  1  0.85360000  0.06570000  0.09130000  0.69 -0.2430857024
O  O35  1  0.85360000  0.06570000  0.90870000  0.69 -0.2430857024
O  O36  1  0.14640000  0.56570000  0.59130000  0.69 -0.2430857024
O  O37  1  0.02710000  0.23190000  0.18410000  0.81 -0.1784623074
O  O38  1  0.97290000  0.73190000  0.31590000  0.81 -0.1784623074
O  O39  1  0.97290000  0.73190000  0.68410000  0.81 -0.1784623074
O  O40  1  0.02710000  0.23190000  0.81590000  0.81 -0.1784623074
