# DDEC6 charges by PACMAN v1.1 (https://github.com/mtap-research/PACMAN-charge/)
data_ja8b05471_si_001_FSR_pacman
_symmetry_space_group_name_H-M   'P 1'
_cell_length_a   28.67150000
_cell_length_b   28.67150000
_cell_length_c   28.67150000
_cell_angle_alpha   90.00000000
_cell_angle_beta   90.00000000
_cell_angle_gamma   90.00000000
_symmetry_Int_Tables_number   1
_chemical_formula_structural   Zn4H33C34(N8O)2
_chemical_formula_sum   'Zn48 H396.0 C408.0 N192 O24'
_cell_volume   23569.54741658
_cell_formula_units_Z   12
loop_
 _symmetry_equiv_pos_site_id
 _symmetry_equiv_pos_as_xyz
  1  'x, y, z'
loop_
 _atom_site_type_symbol
 _atom_site_label
 _atom_site_symmetry_multiplicity
 _atom_site_fract_x
 _atom_site_fract_y
 _atom_site_fract_z
 _atom_site_occupancy
 _atom_site_charge
Zn  Zn1  1  0.24896000  0.39594000  0.10387000  1.0 0.5487295779
Zn  Zn2  1  0.75104000  0.60406000  0.10387000  1.0 0.5487295779
Zn  Zn3  1  0.75104000  0.39594000  0.89613000  1.0 0.5487295779
Zn  Zn4  1  0.24896000  0.60406000  0.89613000  1.0 0.5487295779
Zn  Zn5  1  0.10387000  0.24896000  0.39594000  1.0 0.5487295779
Zn  Zn6  1  0.10387000  0.75104000  0.60406000  1.0 0.5487295779
Zn  Zn7  1  0.89613000  0.75104000  0.39594000  1.0 0.5487295779
Zn  Zn8  1  0.89613000  0.24896000  0.60406000  1.0 0.5487295779
Zn  Zn9  1  0.39594000  0.10387000  0.24896000  1.0 0.5487295779
Zn  Zn10  1  0.60406000  0.10387000  0.75104000  1.0 0.5487295779
Zn  Zn11  1  0.39594000  0.89613000  0.75104000  1.0 0.5487295779
Zn  Zn12  1  0.60406000  0.89613000  0.24896000  1.0 0.5487295779
Zn  Zn13  1  0.39594000  0.24896000  0.89613000  1.0 0.5487295779
Zn  Zn14  1  0.60406000  0.75104000  0.89613000  1.0 0.5487295779
Zn  Zn15  1  0.39594000  0.75104000  0.10387000  1.0 0.5487295779
Zn  Zn16  1  0.60406000  0.24896000  0.10387000  1.0 0.5487295779
Zn  Zn17  1  0.24896000  0.10387000  0.60406000  1.0 0.5487295779
Zn  Zn18  1  0.75104000  0.10387000  0.39594000  1.0 0.5487295779
Zn  Zn19  1  0.75104000  0.89613000  0.60406000  1.0 0.5487295779
Zn  Zn20  1  0.24896000  0.89613000  0.39594000  1.0 0.5487295779
Zn  Zn21  1  0.10387000  0.39594000  0.75104000  1.0 0.5487295779
Zn  Zn22  1  0.10387000  0.60406000  0.24896000  1.0 0.5487295779
Zn  Zn23  1  0.89613000  0.39594000  0.24896000  1.0 0.5487295779
Zn  Zn24  1  0.89613000  0.60406000  0.75104000  1.0 0.5487295779
Zn  Zn25  1  0.75104000  0.60406000  0.89613000  1.0 0.5487295779
Zn  Zn26  1  0.24896000  0.39594000  0.89613000  1.0 0.5487295779
Zn  Zn27  1  0.24896000  0.60406000  0.10387000  1.0 0.5487295779
Zn  Zn28  1  0.75104000  0.39594000  0.10387000  1.0 0.5487295779
Zn  Zn29  1  0.89613000  0.75104000  0.60406000  1.0 0.5487295779
Zn  Zn30  1  0.89613000  0.24896000  0.39594000  1.0 0.5487295779
Zn  Zn31  1  0.10387000  0.24896000  0.60406000  1.0 0.5487295779
Zn  Zn32  1  0.10387000  0.75104000  0.39594000  1.0 0.5487295779
Zn  Zn33  1  0.60406000  0.89613000  0.75104000  1.0 0.5487295779
Zn  Zn34  1  0.39594000  0.89613000  0.24896000  1.0 0.5487295779
Zn  Zn35  1  0.60406000  0.10387000  0.24896000  1.0 0.5487295779
Zn  Zn36  1  0.39594000  0.10387000  0.75104000  1.0 0.5487295779
Zn  Zn37  1  0.60406000  0.75104000  0.10387000  1.0 0.5487295779
Zn  Zn38  1  0.39594000  0.24896000  0.10387000  1.0 0.5487295779
Zn  Zn39  1  0.60406000  0.24896000  0.89613000  1.0 0.5487295779
Zn  Zn40  1  0.39594000  0.75104000  0.89613000  1.0 0.5487295779
Zn  Zn41  1  0.75104000  0.89613000  0.39594000  1.0 0.5487295779
Zn  Zn42  1  0.24896000  0.89613000  0.60406000  1.0 0.5487295779
Zn  Zn43  1  0.24896000  0.10387000  0.39594000  1.0 0.5487295779
Zn  Zn44  1  0.75104000  0.10387000  0.60406000  1.0 0.5487295779
Zn  Zn45  1  0.89613000  0.60406000  0.24896000  1.0 0.5487295779
Zn  Zn46  1  0.89613000  0.39594000  0.75104000  1.0 0.5487295779
Zn  Zn47  1  0.10387000  0.60406000  0.75104000  1.0 0.5487295779
Zn  Zn48  1  0.10387000  0.39594000  0.24896000  1.0 0.5487295779
H  H1  1  0.28514000  0.45605000  0.19161000  1.0 0.1085125545
H  H2  1  0.15353000  0.38506000  0.04196000  1.0 0.0990796303
H  H3  1  0.71486000  0.54395000  0.19161000  1.0 0.1085125545
H  H4  1  0.84647000  0.61494000  0.04196000  1.0 0.0990796303
H  H5  1  0.71486000  0.45605000  0.80839000  1.0 0.1085125545
H  H6  1  0.84647000  0.38506000  0.95804000  1.0 0.0990796303
H  H7  1  0.28514000  0.54395000  0.80839000  1.0 0.1085125545
H  H8  1  0.15353000  0.61494000  0.95804000  1.0 0.0990796303
H  H9  1  0.19161000  0.28514000  0.45605000  1.0 0.1085125545
H  H10  1  0.04196000  0.15353000  0.38506000  1.0 0.0990796303
H  H11  1  0.19161000  0.71486000  0.54395000  1.0 0.1085125545
H  H12  1  0.04196000  0.84647000  0.61494000  1.0 0.0990796303
H  H13  1  0.80839000  0.71486000  0.45605000  1.0 0.1085125545
H  H14  1  0.95804000  0.84647000  0.38506000  1.0 0.0990796303
H  H15  1  0.80839000  0.28514000  0.54395000  1.0 0.1085125545
H  H16  1  0.95804000  0.15353000  0.61494000  1.0 0.0990796303
H  H17  1  0.45605000  0.19161000  0.28514000  1.0 0.1085125545
H  H18  1  0.38506000  0.04196000  0.15353000  1.0 0.0990796303
H  H19  1  0.54395000  0.19161000  0.71486000  1.0 0.1085125545
H  H20  1  0.61494000  0.04196000  0.84647000  1.0 0.0990796303
H  H21  1  0.45605000  0.80839000  0.71486000  1.0 0.1085125545
H  H22  1  0.38506000  0.95804000  0.84647000  1.0 0.0990796303
H  H23  1  0.54395000  0.80839000  0.28514000  1.0 0.1085125545
H  H24  1  0.61494000  0.95804000  0.15353000  1.0 0.0990796303
H  H25  1  0.45605000  0.28514000  0.80839000  1.0 0.1085125545
H  H26  1  0.38506000  0.15353000  0.95804000  1.0 0.0990796303
H  H27  1  0.54395000  0.71486000  0.80839000  1.0 0.1085125545
H  H28  1  0.61494000  0.84647000  0.95804000  1.0 0.0990796303
H  H29  1  0.45605000  0.71486000  0.19161000  1.0 0.1085125545
H  H30  1  0.38506000  0.84647000  0.04196000  1.0 0.0990796303
H  H31  1  0.54395000  0.28514000  0.19161000  1.0 0.1085125545
H  H32  1  0.61494000  0.15353000  0.04196000  1.0 0.0990796303
H  H33  1  0.28514000  0.19161000  0.54395000  1.0 0.1085125545
H  H34  1  0.15353000  0.04196000  0.61494000  1.0 0.0990796303
H  H35  1  0.71486000  0.19161000  0.45605000  1.0 0.1085125545
H  H36  1  0.84647000  0.04196000  0.38506000  1.0 0.0990796303
H  H37  1  0.71486000  0.80839000  0.54395000  1.0 0.1085125545
H  H38  1  0.84647000  0.95804000  0.61494000  1.0 0.0990796303
H  H39  1  0.28514000  0.80839000  0.45605000  1.0 0.1085125545
H  H40  1  0.15353000  0.95804000  0.38506000  1.0 0.0990796303
H  H41  1  0.19161000  0.45605000  0.71486000  1.0 0.1085125545
H  H42  1  0.04196000  0.38506000  0.84647000  1.0 0.0990796303
H  H43  1  0.19161000  0.54395000  0.28514000  1.0 0.1085125545
H  H44  1  0.04196000  0.61494000  0.15353000  1.0 0.0990796303
H  H45  1  0.80839000  0.45605000  0.28514000  1.0 0.1085125545
H  H46  1  0.95804000  0.38506000  0.15353000  1.0 0.0990796303
H  H47  1  0.80839000  0.54395000  0.71486000  1.0 0.1085125545
H  H48  1  0.95804000  0.61494000  0.84647000  1.0 0.0990796303
H  H49  1  0.71486000  0.54395000  0.80839000  1.0 0.1085125545
H  H50  1  0.84647000  0.61494000  0.95804000  1.0 0.0990796303
H  H51  1  0.28514000  0.45605000  0.80839000  1.0 0.1085125545
H  H52  1  0.15353000  0.38506000  0.95804000  1.0 0.0990796303
H  H53  1  0.28514000  0.54395000  0.19161000  1.0 0.1085125545
H  H54  1  0.15353000  0.61494000  0.04196000  1.0 0.0990796303
H  H55  1  0.71486000  0.45605000  0.19161000  1.0 0.1085125545
H  H56  1  0.84647000  0.38506000  0.04196000  1.0 0.0990796303
H  H57  1  0.80839000  0.71486000  0.54395000  1.0 0.1085125545
H  H58  1  0.95804000  0.84647000  0.61494000  1.0 0.0990796303
H  H59  1  0.80839000  0.28514000  0.45605000  1.0 0.1085125545
H  H60  1  0.95804000  0.15353000  0.38506000  1.0 0.0990796303
H  H61  1  0.19161000  0.28514000  0.54395000  1.0 0.1085125545
H  H62  1  0.04196000  0.15353000  0.61494000  1.0 0.0990796303
H  H63  1  0.19161000  0.71486000  0.45605000  1.0 0.1085125545
H  H64  1  0.04196000  0.84647000  0.38506000  1.0 0.0990796303
H  H65  1  0.54395000  0.80839000  0.71486000  1.0 0.1085125545
H  H66  1  0.61494000  0.95804000  0.84647000  1.0 0.0990796303
H  H67  1  0.45605000  0.80839000  0.28514000  1.0 0.1085125545
H  H68  1  0.38506000  0.95804000  0.15353000  1.0 0.0990796303
H  H69  1  0.54395000  0.19161000  0.28514000  1.0 0.1085125545
H  H70  1  0.61494000  0.04196000  0.15353000  1.0 0.0990796303
H  H71  1  0.45605000  0.19161000  0.71486000  1.0 0.1085125545
H  H72  1  0.38506000  0.04196000  0.84647000  1.0 0.0990796303
H  H73  1  0.54395000  0.71486000  0.19161000  1.0 0.1085125545
H  H74  1  0.61494000  0.84647000  0.04196000  1.0 0.0990796303
H  H75  1  0.45605000  0.28514000  0.19161000  1.0 0.1085125545
H  H76  1  0.38506000  0.15353000  0.04196000  1.0 0.0990796303
H  H77  1  0.54395000  0.28514000  0.80839000  1.0 0.1085125545
H  H78  1  0.61494000  0.15353000  0.95804000  1.0 0.0990796303
H  H79  1  0.45605000  0.71486000  0.80839000  1.0 0.1085125545
H  H80  1  0.38506000  0.84647000  0.95804000  1.0 0.0990796303
H  H81  1  0.71486000  0.80839000  0.45605000  1.0 0.1085125545
H  H82  1  0.84647000  0.95804000  0.38506000  1.0 0.0990796303
H  H83  1  0.28514000  0.80839000  0.54395000  1.0 0.1085125545
H  H84  1  0.15353000  0.95804000  0.61494000  1.0 0.0990796303
H  H85  1  0.28514000  0.19161000  0.45605000  1.0 0.1085125545
H  H86  1  0.15353000  0.04196000  0.38506000  1.0 0.0990796303
H  H87  1  0.71486000  0.19161000  0.54395000  1.0 0.1085125545
H  H88  1  0.84647000  0.04196000  0.61494000  1.0 0.0990796303
H  H89  1  0.80839000  0.54395000  0.28514000  1.0 0.1085125545
H  H90  1  0.95804000  0.61494000  0.15353000  1.0 0.0990796303
H  H91  1  0.80839000  0.45605000  0.71486000  1.0 0.1085125545
H  H92  1  0.95804000  0.38506000  0.84647000  1.0 0.0990796303
H  H93  1  0.19161000  0.54395000  0.71486000  1.0 0.1085125545
H  H94  1  0.04196000  0.61494000  0.84647000  1.0 0.0990796303
H  H95  1  0.19161000  0.45605000  0.28514000  1.0 0.1085125545
H  H96  1  0.04196000  0.38506000  0.15353000  1.0 0.0990796303
H  H97  1  0.23356000  0.50000000  0.07276000  1.0 0.1085125545
H  H98  1  0.76644000  0.50000000  0.07276000  1.0 0.1085125545
H  H99  1  0.76644000  0.50000000  0.92724000  1.0 0.1085125545
H  H100  1  0.23356000  0.50000000  0.92724000  1.0 0.1085125545
H  H101  1  0.07276000  0.23356000  0.50000000  1.0 0.1085125545
H  H102  1  0.07276000  0.76644000  0.50000000  1.0 0.1085125545
H  H103  1  0.92724000  0.76644000  0.50000000  1.0 0.1085125545
H  H104  1  0.92724000  0.23356000  0.50000000  1.0 0.1085125545
H  H105  1  0.50000000  0.07276000  0.23356000  1.0 0.1085125545
H  H106  1  0.50000000  0.07276000  0.76644000  1.0 0.1085125545
H  H107  1  0.50000000  0.92724000  0.76644000  1.0 0.1085125545
H  H108  1  0.50000000  0.92724000  0.23356000  1.0 0.1085125545
H  H109  1  0.50000000  0.23356000  0.92724000  1.0 0.1085125545
H  H110  1  0.50000000  0.76644000  0.92724000  1.0 0.1085125545
H  H111  1  0.50000000  0.76644000  0.07276000  1.0 0.1085125545
H  H112  1  0.50000000  0.23356000  0.07276000  1.0 0.1085125545
H  H113  1  0.23356000  0.07276000  0.50000000  1.0 0.1085125545
H  H114  1  0.76644000  0.07276000  0.50000000  1.0 0.1085125545
H  H115  1  0.76644000  0.92724000  0.50000000  1.0 0.1085125545
H  H116  1  0.23356000  0.92724000  0.50000000  1.0 0.1085125545
H  H117  1  0.07276000  0.50000000  0.76644000  1.0 0.1085125545
H  H118  1  0.07276000  0.50000000  0.23356000  1.0 0.1085125545
H  H119  1  0.92724000  0.50000000  0.23356000  1.0 0.1085125545
H  H120  1  0.92724000  0.50000000  0.76644000  1.0 0.1085125545
H  H121  1  0.18547000  0.42742000  0.18547000  1.0 0.1192216723
H  H122  1  0.81453000  0.57258000  0.18547000  1.0 0.1192216723
H  H123  1  0.81453000  0.42742000  0.81453000  1.0 0.1192216723
H  H124  1  0.18547000  0.57258000  0.81453000  1.0 0.1192216723
H  H125  1  0.18547000  0.18547000  0.42742000  1.0 0.1192216723
H  H126  1  0.18547000  0.81453000  0.57258000  1.0 0.1192216723
H  H127  1  0.81453000  0.81453000  0.42742000  1.0 0.1192216723
H  H128  1  0.81453000  0.18547000  0.57258000  1.0 0.1192216723
H  H129  1  0.42742000  0.18547000  0.18547000  1.0 0.1192216723
H  H130  1  0.57258000  0.18547000  0.81453000  1.0 0.1192216723
H  H131  1  0.42742000  0.81453000  0.81453000  1.0 0.1192216723
H  H132  1  0.57258000  0.81453000  0.18547000  1.0 0.1192216723
H  H133  1  0.42742000  0.18547000  0.81453000  1.0 0.1192216723
H  H134  1  0.57258000  0.81453000  0.81453000  1.0 0.1192216723
H  H135  1  0.42742000  0.81453000  0.18547000  1.0 0.1192216723
H  H136  1  0.57258000  0.18547000  0.18547000  1.0 0.1192216723
H  H137  1  0.18547000  0.18547000  0.57258000  1.0 0.1192216723
H  H138  1  0.81453000  0.18547000  0.42742000  1.0 0.1192216723
H  H139  1  0.81453000  0.81453000  0.57258000  1.0 0.1192216723
H  H140  1  0.18547000  0.81453000  0.42742000  1.0 0.1192216723
H  H141  1  0.18547000  0.42742000  0.81453000  1.0 0.1192216723
H  H142  1  0.18547000  0.57258000  0.18547000  1.0 0.1192216723
H  H143  1  0.81453000  0.42742000  0.18547000  1.0 0.1192216723
H  H144  1  0.81453000  0.57258000  0.81453000  1.0 0.1192216723
H  H145  1  0.28321000  0.39977000  0.00000000  1.0 0.0990796303
H  H146  1  0.71679000  0.60023000  0.00000000  1.0 0.0990796303
H  H147  1  0.71679000  0.39977000  0.00000000  1.0 0.0990796303
H  H148  1  0.28321000  0.60023000  0.00000000  1.0 0.0990796303
H  H149  1  0.00000000  0.28321000  0.39977000  1.0 0.0990796303
H  H150  1  0.00000000  0.71679000  0.60023000  1.0 0.0990796303
H  H151  1  0.00000000  0.71679000  0.39977000  1.0 0.0990796303
H  H152  1  0.00000000  0.28321000  0.60023000  1.0 0.0990796303
H  H153  1  0.39977000  0.00000000  0.28321000  1.0 0.0990796303
H  H154  1  0.60023000  0.00000000  0.71679000  1.0 0.0990796303
H  H155  1  0.39977000  0.00000000  0.71679000  1.0 0.0990796303
H  H156  1  0.60023000  0.00000000  0.28321000  1.0 0.0990796303
H  H157  1  0.39977000  0.28321000  0.00000000  1.0 0.0990796303
H  H158  1  0.60023000  0.71679000  0.00000000  1.0 0.0990796303
H  H159  1  0.39977000  0.71679000  0.00000000  1.0 0.0990796303
H  H160  1  0.60023000  0.28321000  0.00000000  1.0 0.0990796303
H  H161  1  0.28321000  0.00000000  0.60023000  1.0 0.0990796303
H  H162  1  0.71679000  0.00000000  0.39977000  1.0 0.0990796303
H  H163  1  0.71679000  0.00000000  0.60023000  1.0 0.0990796303
H  H164  1  0.28321000  0.00000000  0.39977000  1.0 0.0990796303
H  H165  1  0.00000000  0.39977000  0.71679000  1.0 0.0990796303
H  H166  1  0.00000000  0.60023000  0.28321000  1.0 0.0990796303
H  H167  1  0.00000000  0.39977000  0.28321000  1.0 0.0990796303
H  H168  1  0.00000000  0.60023000  0.71679000  1.0 0.0990796303
H  H169  1  0.14760000  0.32627000  0.09473000  0.24 0.1085125545
H  H170  1  0.85240000  0.67373000  0.09473000  0.24 0.1085125545
H  H171  1  0.85240000  0.32627000  0.90527000  0.24 0.1085125545
H  H172  1  0.14760000  0.67373000  0.90527000  0.24 0.1085125545
H  H173  1  0.09473000  0.14760000  0.32627000  0.24 0.1085125545
H  H174  1  0.09473000  0.85240000  0.67373000  0.24 0.1085125545
H  H175  1  0.90527000  0.85240000  0.32627000  0.24 0.1085125545
H  H176  1  0.90527000  0.14760000  0.67373000  0.24 0.1085125545
H  H177  1  0.32627000  0.09473000  0.14760000  0.24 0.1085125545
H  H178  1  0.67373000  0.09473000  0.85240000  0.24 0.1085125545
H  H179  1  0.32627000  0.90527000  0.85240000  0.24 0.1085125545
H  H180  1  0.67373000  0.90527000  0.14760000  0.24 0.1085125545
H  H181  1  0.32627000  0.14760000  0.90527000  0.24 0.1085125545
H  H182  1  0.67373000  0.85240000  0.90527000  0.24 0.1085125545
H  H183  1  0.32627000  0.85240000  0.09473000  0.24 0.1085125545
H  H184  1  0.67373000  0.14760000  0.09473000  0.24 0.1085125545
H  H185  1  0.14760000  0.09473000  0.67373000  0.24 0.1085125545
H  H186  1  0.85240000  0.09473000  0.32627000  0.24 0.1085125545
H  H187  1  0.85240000  0.90527000  0.67373000  0.24 0.1085125545
H  H188  1  0.14760000  0.90527000  0.32627000  0.24 0.1085125545
H  H189  1  0.09473000  0.32627000  0.85240000  0.24 0.1085125545
H  H190  1  0.09473000  0.67373000  0.14760000  0.24 0.1085125545
H  H191  1  0.90527000  0.32627000  0.14760000  0.24 0.1085125545
H  H192  1  0.90527000  0.67373000  0.85240000  0.24 0.1085125545
H  H193  1  0.85240000  0.67373000  0.90527000  0.24 0.1085125545
H  H194  1  0.14760000  0.32627000  0.90527000  0.24 0.1085125545
H  H195  1  0.14760000  0.67373000  0.09473000  0.24 0.1085125545
H  H196  1  0.85240000  0.32627000  0.09473000  0.24 0.1085125545
H  H197  1  0.90527000  0.85240000  0.67373000  0.24 0.1085125545
H  H198  1  0.90527000  0.14760000  0.32627000  0.24 0.1085125545
H  H199  1  0.09473000  0.14760000  0.67373000  0.24 0.1085125545
H  H200  1  0.09473000  0.85240000  0.32627000  0.24 0.1085125545
H  H201  1  0.67373000  0.90527000  0.85240000  0.24 0.1085125545
H  H202  1  0.32627000  0.90527000  0.14760000  0.24 0.1085125545
H  H203  1  0.67373000  0.09473000  0.14760000  0.24 0.1085125545
H  H204  1  0.32627000  0.09473000  0.85240000  0.24 0.1085125545
H  H205  1  0.67373000  0.85240000  0.09473000  0.24 0.1085125545
H  H206  1  0.32627000  0.14760000  0.09473000  0.24 0.1085125545
H  H207  1  0.67373000  0.14760000  0.90527000  0.24 0.1085125545
H  H208  1  0.32627000  0.85240000  0.90527000  0.24 0.1085125545
H  H209  1  0.85240000  0.90527000  0.32627000  0.24 0.1085125545
H  H210  1  0.14760000  0.90527000  0.67373000  0.24 0.1085125545
H  H211  1  0.14760000  0.09473000  0.32627000  0.24 0.1085125545
H  H212  1  0.85240000  0.09473000  0.67373000  0.24 0.1085125545
H  H213  1  0.90527000  0.67373000  0.14760000  0.24 0.1085125545
H  H214  1  0.90527000  0.32627000  0.85240000  0.24 0.1085125545
H  H215  1  0.09473000  0.67373000  0.85240000  0.24 0.1085125545
H  H216  1  0.09473000  0.32627000  0.14760000  0.24 0.1085125545
H  H217  1  0.31434000  0.47209000  0.97911000  0.25 0.0990796303
H  H218  1  0.42030000  0.38033000  0.17502000  0.25 0.0762909225
H  H219  1  0.68566000  0.52791000  0.97911000  0.25 0.0990796303
H  H220  1  0.57970000  0.61967000  0.17502000  0.25 0.0762909225
H  H221  1  0.68566000  0.47209000  0.02089000  0.25 0.0990796303
H  H222  1  0.57970000  0.38033000  0.82498000  0.25 0.0762909225
H  H223  1  0.31434000  0.52791000  0.02089000  0.25 0.0990796303
H  H224  1  0.42030000  0.61967000  0.82498000  0.25 0.0762909225
H  H225  1  0.97911000  0.31434000  0.47209000  0.25 0.0990796303
H  H226  1  0.17502000  0.42030000  0.38033000  0.25 0.0762909225
H  H227  1  0.97911000  0.68566000  0.52791000  0.25 0.0990796303
H  H228  1  0.17502000  0.57970000  0.61967000  0.25 0.0762909225
H  H229  1  0.02089000  0.68566000  0.47209000  0.25 0.0990796303
H  H230  1  0.82498000  0.57970000  0.38033000  0.25 0.0762909225
H  H231  1  0.02089000  0.31434000  0.52791000  0.25 0.0990796303
H  H232  1  0.82498000  0.42030000  0.61967000  0.25 0.0762909225
H  H233  1  0.47209000  0.97911000  0.31434000  0.25 0.0990796303
H  H234  1  0.38033000  0.17502000  0.42030000  0.25 0.0762909225
H  H235  1  0.52791000  0.97911000  0.68566000  0.25 0.0990796303
H  H236  1  0.61967000  0.17502000  0.57970000  0.25 0.0762909225
H  H237  1  0.47209000  0.02089000  0.68566000  0.25 0.0990796303
H  H238  1  0.38033000  0.82498000  0.57970000  0.25 0.0762909225
H  H239  1  0.52791000  0.02089000  0.31434000  0.25 0.0990796303
H  H240  1  0.61967000  0.82498000  0.42030000  0.25 0.0762909225
H  H241  1  0.47209000  0.31434000  0.02089000  0.25 0.0990796303
H  H242  1  0.38033000  0.42030000  0.82498000  0.25 0.0762909225
H  H243  1  0.52791000  0.68566000  0.02089000  0.25 0.0990796303
H  H244  1  0.61967000  0.57970000  0.82498000  0.25 0.0762909225
H  H245  1  0.47209000  0.68566000  0.97911000  0.25 0.0990796303
H  H246  1  0.38033000  0.57970000  0.17502000  0.25 0.0762909225
H  H247  1  0.52791000  0.31434000  0.97911000  0.25 0.0990796303
H  H248  1  0.61967000  0.42030000  0.17502000  0.25 0.0762909225
H  H249  1  0.31434000  0.97911000  0.52791000  0.25 0.0990796303
H  H250  1  0.42030000  0.17502000  0.61967000  0.25 0.0762909225
H  H251  1  0.68566000  0.97911000  0.47209000  0.25 0.0990796303
H  H252  1  0.57970000  0.17502000  0.38033000  0.25 0.0762909225
H  H253  1  0.68566000  0.02089000  0.52791000  0.25 0.0990796303
H  H254  1  0.57970000  0.82498000  0.61967000  0.25 0.0762909225
H  H255  1  0.31434000  0.02089000  0.47209000  0.25 0.0990796303
H  H256  1  0.42030000  0.82498000  0.38033000  0.25 0.0762909225
H  H257  1  0.97911000  0.47209000  0.68566000  0.25 0.0990796303
H  H258  1  0.17502000  0.38033000  0.57970000  0.25 0.0762909225
H  H259  1  0.97911000  0.52791000  0.31434000  0.25 0.0990796303
H  H260  1  0.17502000  0.61967000  0.42030000  0.25 0.0762909225
H  H261  1  0.02089000  0.47209000  0.31434000  0.25 0.0990796303
H  H262  1  0.82498000  0.38033000  0.42030000  0.25 0.0762909225
H  H263  1  0.02089000  0.52791000  0.68566000  0.25 0.0990796303
H  H264  1  0.82498000  0.61967000  0.57970000  0.25 0.0762909225
H  H265  1  0.68566000  0.52791000  0.02089000  0.25 0.0990796303
H  H266  1  0.57970000  0.61967000  0.82498000  0.25 0.0762909225
H  H267  1  0.31434000  0.47209000  0.02089000  0.25 0.0990796303
H  H268  1  0.42030000  0.38033000  0.82498000  0.25 0.0762909225
H  H269  1  0.31434000  0.52791000  0.97911000  0.25 0.0990796303
H  H270  1  0.42030000  0.61967000  0.17502000  0.25 0.0762909225
H  H271  1  0.68566000  0.47209000  0.97911000  0.25 0.0990796303
H  H272  1  0.57970000  0.38033000  0.17502000  0.25 0.0762909225
H  H273  1  0.02089000  0.68566000  0.52791000  0.25 0.0990796303
H  H274  1  0.82498000  0.57970000  0.61967000  0.25 0.0762909225
H  H275  1  0.02089000  0.31434000  0.47209000  0.25 0.0990796303
H  H276  1  0.82498000  0.42030000  0.38033000  0.25 0.0762909225
H  H277  1  0.97911000  0.31434000  0.52791000  0.25 0.0990796303
H  H278  1  0.17502000  0.42030000  0.61967000  0.25 0.0762909225
H  H279  1  0.97911000  0.68566000  0.47209000  0.25 0.0990796303
H  H280  1  0.17502000  0.57970000  0.38033000  0.25 0.0762909225
H  H281  1  0.52791000  0.02089000  0.68566000  0.25 0.0990796303
H  H282  1  0.61967000  0.82498000  0.57970000  0.25 0.0762909225
H  H283  1  0.47209000  0.02089000  0.31434000  0.25 0.0990796303
H  H284  1  0.38033000  0.82498000  0.42030000  0.25 0.0762909225
H  H285  1  0.52791000  0.97911000  0.31434000  0.25 0.0990796303
H  H286  1  0.61967000  0.17502000  0.42030000  0.25 0.0762909225
H  H287  1  0.47209000  0.97911000  0.68566000  0.25 0.0990796303
H  H288  1  0.38033000  0.17502000  0.57970000  0.25 0.0762909225
H  H289  1  0.52791000  0.68566000  0.97911000  0.25 0.0990796303
H  H290  1  0.61967000  0.57970000  0.17502000  0.25 0.0762909225
H  H291  1  0.47209000  0.31434000  0.97911000  0.25 0.0990796303
H  H292  1  0.38033000  0.42030000  0.17502000  0.25 0.0762909225
H  H293  1  0.52791000  0.31434000  0.02089000  0.25 0.0990796303
H  H294  1  0.61967000  0.42030000  0.82498000  0.25 0.0762909225
H  H295  1  0.47209000  0.68566000  0.02089000  0.25 0.0990796303
H  H296  1  0.38033000  0.57970000  0.82498000  0.25 0.0762909225
H  H297  1  0.68566000  0.02089000  0.47209000  0.25 0.0990796303
H  H298  1  0.57970000  0.82498000  0.38033000  0.25 0.0762909225
H  H299  1  0.31434000  0.02089000  0.52791000  0.25 0.0990796303
H  H300  1  0.42030000  0.82498000  0.61967000  0.25 0.0762909225
H  H301  1  0.31434000  0.97911000  0.47209000  0.25 0.0990796303
H  H302  1  0.42030000  0.17502000  0.38033000  0.25 0.0762909225
H  H303  1  0.68566000  0.97911000  0.52791000  0.25 0.0990796303
H  H304  1  0.57970000  0.17502000  0.61967000  0.25 0.0762909225
H  H305  1  0.02089000  0.52791000  0.31434000  0.25 0.0990796303
H  H306  1  0.82498000  0.61967000  0.42030000  0.25 0.0762909225
H  H307  1  0.02089000  0.47209000  0.68566000  0.25 0.0990796303
H  H308  1  0.82498000  0.38033000  0.57970000  0.25 0.0762909225
H  H309  1  0.97911000  0.52791000  0.68566000  0.25 0.0990796303
H  H310  1  0.17502000  0.61967000  0.57970000  0.25 0.0762909225
H  H311  1  0.97911000  0.47209000  0.31434000  0.25 0.0990796303
H  H312  1  0.17502000  0.38033000  0.42030000  0.25 0.0762909225
H  H313  1  0.36039000  0.42093000  0.12821000  0.42 0.090947626
H  H314  1  0.63961000  0.57907000  0.12821000  0.42 0.090947626
H  H315  1  0.63961000  0.42093000  0.87179000  0.42 0.090947626
H  H316  1  0.36039000  0.57907000  0.87179000  0.42 0.090947626
H  H317  1  0.12821000  0.36039000  0.42093000  0.42 0.090947626
H  H318  1  0.12821000  0.63961000  0.57907000  0.42 0.090947626
H  H319  1  0.87179000  0.63961000  0.42093000  0.42 0.090947626
H  H320  1  0.87179000  0.36039000  0.57907000  0.42 0.090947626
H  H321  1  0.42093000  0.12821000  0.36039000  0.42 0.090947626
H  H322  1  0.57907000  0.12821000  0.63961000  0.42 0.090947626
H  H323  1  0.42093000  0.87179000  0.63961000  0.42 0.090947626
H  H324  1  0.57907000  0.87179000  0.36039000  0.42 0.090947626
H  H325  1  0.42093000  0.36039000  0.87179000  0.42 0.090947626
H  H326  1  0.57907000  0.63961000  0.87179000  0.42 0.090947626
H  H327  1  0.42093000  0.63961000  0.12821000  0.42 0.090947626
H  H328  1  0.57907000  0.36039000  0.12821000  0.42 0.090947626
H  H329  1  0.36039000  0.12821000  0.57907000  0.42 0.090947626
H  H330  1  0.63961000  0.12821000  0.42093000  0.42 0.090947626
H  H331  1  0.63961000  0.87179000  0.57907000  0.42 0.090947626
H  H332  1  0.36039000  0.87179000  0.42093000  0.42 0.090947626
H  H333  1  0.12821000  0.42093000  0.63961000  0.42 0.090947626
H  H334  1  0.12821000  0.57907000  0.36039000  0.42 0.090947626
H  H335  1  0.87179000  0.42093000  0.36039000  0.42 0.090947626
H  H336  1  0.87179000  0.57907000  0.63961000  0.42 0.090947626
H  H337  1  0.63961000  0.57907000  0.87179000  0.42 0.090947626
H  H338  1  0.36039000  0.42093000  0.87179000  0.42 0.090947626
H  H339  1  0.36039000  0.57907000  0.12821000  0.42 0.090947626
H  H340  1  0.63961000  0.42093000  0.12821000  0.42 0.090947626
H  H341  1  0.87179000  0.63961000  0.57907000  0.42 0.090947626
H  H342  1  0.87179000  0.36039000  0.42093000  0.42 0.090947626
H  H343  1  0.12821000  0.36039000  0.57907000  0.42 0.090947626
H  H344  1  0.12821000  0.63961000  0.42093000  0.42 0.090947626
H  H345  1  0.57907000  0.87179000  0.63961000  0.42 0.090947626
H  H346  1  0.42093000  0.87179000  0.36039000  0.42 0.090947626
H  H347  1  0.57907000  0.12821000  0.36039000  0.42 0.090947626
H  H348  1  0.42093000  0.12821000  0.63961000  0.42 0.090947626
H  H349  1  0.57907000  0.63961000  0.12821000  0.42 0.090947626
H  H350  1  0.42093000  0.36039000  0.12821000  0.42 0.090947626
H  H351  1  0.57907000  0.36039000  0.87179000  0.42 0.090947626
H  H352  1  0.42093000  0.63961000  0.87179000  0.42 0.090947626
H  H353  1  0.63961000  0.87179000  0.42093000  0.42 0.090947626
H  H354  1  0.36039000  0.87179000  0.57907000  0.42 0.090947626
H  H355  1  0.36039000  0.12821000  0.42093000  0.42 0.090947626
H  H356  1  0.63961000  0.12821000  0.57907000  0.42 0.090947626
H  H357  1  0.87179000  0.57907000  0.36039000  0.42 0.090947626
H  H358  1  0.87179000  0.42093000  0.63961000  0.42 0.090947626
H  H359  1  0.12821000  0.57907000  0.63961000  0.42 0.090947626
H  H360  1  0.12821000  0.42093000  0.36039000  0.42 0.090947626
H  H361  1  0.30233000  0.30233000  0.09508000  0.42 0.090947626
H  H362  1  0.69767000  0.69767000  0.09508000  0.42 0.090947626
H  H363  1  0.69767000  0.30233000  0.90492000  0.42 0.090947626
H  H364  1  0.30233000  0.69767000  0.90492000  0.42 0.090947626
H  H365  1  0.09508000  0.30233000  0.30233000  0.42 0.090947626
H  H366  1  0.09508000  0.69767000  0.69767000  0.42 0.090947626
H  H367  1  0.90492000  0.69767000  0.30233000  0.42 0.090947626
H  H368  1  0.90492000  0.30233000  0.69767000  0.42 0.090947626
H  H369  1  0.30233000  0.09508000  0.30233000  0.42 0.090947626
H  H370  1  0.69767000  0.09508000  0.69767000  0.42 0.090947626
H  H371  1  0.30233000  0.90492000  0.69767000  0.42 0.090947626
H  H372  1  0.69767000  0.90492000  0.30233000  0.42 0.090947626
H  H373  1  0.30233000  0.30233000  0.90492000  0.42 0.090947626
H  H374  1  0.69767000  0.69767000  0.90492000  0.42 0.090947626
H  H375  1  0.30233000  0.69767000  0.09508000  0.42 0.090947626
H  H376  1  0.69767000  0.30233000  0.09508000  0.42 0.090947626
H  H377  1  0.30233000  0.09508000  0.69767000  0.42 0.090947626
H  H378  1  0.69767000  0.09508000  0.30233000  0.42 0.090947626
H  H379  1  0.69767000  0.90492000  0.69767000  0.42 0.090947626
H  H380  1  0.30233000  0.90492000  0.30233000  0.42 0.090947626
H  H381  1  0.09508000  0.30233000  0.69767000  0.42 0.090947626
H  H382  1  0.09508000  0.69767000  0.30233000  0.42 0.090947626
H  H383  1  0.90492000  0.30233000  0.30233000  0.42 0.090947626
H  H384  1  0.90492000  0.69767000  0.69767000  0.42 0.090947626
H  H385  1  0.43351000  0.43454000  0.17368000  0.5 0.143769627
H  H386  1  0.56649000  0.56546000  0.17368000  0.5 0.143769627
H  H387  1  0.56649000  0.43454000  0.82632000  0.5 0.143769627
H  H388  1  0.43351000  0.56546000  0.82632000  0.5 0.143769627
H  H389  1  0.17368000  0.43351000  0.43454000  0.5 0.143769627
H  H390  1  0.17368000  0.56649000  0.56546000  0.5 0.143769627
H  H391  1  0.82632000  0.56649000  0.43454000  0.5 0.143769627
H  H392  1  0.82632000  0.43351000  0.56546000  0.5 0.143769627
H  H393  1  0.43454000  0.17368000  0.43351000  0.5 0.143769627
H  H394  1  0.56546000  0.17368000  0.56649000  0.5 0.143769627
H  H395  1  0.43454000  0.82632000  0.56649000  0.5 0.143769627
H  H396  1  0.56546000  0.82632000  0.43351000  0.5 0.143769627
H  H397  1  0.43454000  0.43351000  0.82632000  0.5 0.143769627
H  H398  1  0.56546000  0.56649000  0.82632000  0.5 0.143769627
H  H399  1  0.43454000  0.56649000  0.17368000  0.5 0.143769627
H  H400  1  0.56546000  0.43351000  0.17368000  0.5 0.143769627
H  H401  1  0.43351000  0.17368000  0.56546000  0.5 0.143769627
H  H402  1  0.56649000  0.17368000  0.43454000  0.5 0.143769627
H  H403  1  0.56649000  0.82632000  0.56546000  0.5 0.143769627
H  H404  1  0.43351000  0.82632000  0.43454000  0.5 0.143769627
H  H405  1  0.17368000  0.43454000  0.56649000  0.5 0.143769627
H  H406  1  0.17368000  0.56546000  0.43351000  0.5 0.143769627
H  H407  1  0.82632000  0.43454000  0.43351000  0.5 0.143769627
H  H408  1  0.82632000  0.56546000  0.56649000  0.5 0.143769627
H  H409  1  0.56649000  0.56546000  0.82632000  0.5 0.143769627
H  H410  1  0.43351000  0.43454000  0.82632000  0.5 0.143769627
H  H411  1  0.43351000  0.56546000  0.17368000  0.5 0.143769627
H  H412  1  0.56649000  0.43454000  0.17368000  0.5 0.143769627
H  H413  1  0.82632000  0.56649000  0.56546000  0.5 0.143769627
H  H414  1  0.82632000  0.43351000  0.43454000  0.5 0.143769627
H  H415  1  0.17368000  0.43351000  0.56546000  0.5 0.143769627
H  H416  1  0.17368000  0.56649000  0.43454000  0.5 0.143769627
H  H417  1  0.56546000  0.82632000  0.56649000  0.5 0.143769627
H  H418  1  0.43454000  0.82632000  0.43351000  0.5 0.143769627
H  H419  1  0.56546000  0.17368000  0.43351000  0.5 0.143769627
H  H420  1  0.43454000  0.17368000  0.56649000  0.5 0.143769627
H  H421  1  0.56546000  0.56649000  0.17368000  0.5 0.143769627
H  H422  1  0.43454000  0.43351000  0.17368000  0.5 0.143769627
H  H423  1  0.56546000  0.43351000  0.82632000  0.5 0.143769627
H  H424  1  0.43454000  0.56649000  0.82632000  0.5 0.143769627
H  H425  1  0.56649000  0.82632000  0.43454000  0.5 0.143769627
H  H426  1  0.43351000  0.82632000  0.56546000  0.5 0.143769627
H  H427  1  0.43351000  0.17368000  0.43454000  0.5 0.143769627
H  H428  1  0.56649000  0.17368000  0.56546000  0.5 0.143769627
H  H429  1  0.82632000  0.56546000  0.43351000  0.5 0.143769627
H  H430  1  0.82632000  0.43454000  0.56649000  0.5 0.143769627
H  H431  1  0.17368000  0.56546000  0.56649000  0.5 0.143769627
H  H432  1  0.17368000  0.43454000  0.43351000  0.5 0.143769627
H  H433  1  0.42633000  0.50000000  0.13719000  0.5 0.1085125545
H  H434  1  0.35608000  0.50000000  0.95471000  0.5 0.0616765435
H  H435  1  0.57367000  0.50000000  0.13719000  0.5 0.1085125545
H  H436  1  0.64392000  0.50000000  0.95471000  0.5 0.0616765435
H  H437  1  0.57367000  0.50000000  0.86281000  0.5 0.1085125545
H  H438  1  0.64392000  0.50000000  0.04529000  0.5 0.0616765435
H  H439  1  0.42633000  0.50000000  0.86281000  0.5 0.1085125545
H  H440  1  0.35608000  0.50000000  0.04529000  0.5 0.0616765435
H  H441  1  0.13719000  0.42633000  0.50000000  0.5 0.1085125545
H  H442  1  0.95471000  0.35608000  0.50000000  0.5 0.0616765435
H  H443  1  0.13719000  0.57367000  0.50000000  0.5 0.1085125545
H  H444  1  0.95471000  0.64392000  0.50000000  0.5 0.0616765435
H  H445  1  0.86281000  0.57367000  0.50000000  0.5 0.1085125545
H  H446  1  0.04529000  0.64392000  0.50000000  0.5 0.0616765435
H  H447  1  0.86281000  0.42633000  0.50000000  0.5 0.1085125545
H  H448  1  0.04529000  0.35608000  0.50000000  0.5 0.0616765435
H  H449  1  0.50000000  0.13719000  0.42633000  0.5 0.1085125545
H  H450  1  0.50000000  0.95471000  0.35608000  0.5 0.0616765435
H  H451  1  0.50000000  0.13719000  0.57367000  0.5 0.1085125545
H  H452  1  0.50000000  0.95471000  0.64392000  0.5 0.0616765435
H  H453  1  0.50000000  0.86281000  0.57367000  0.5 0.1085125545
H  H454  1  0.50000000  0.04529000  0.64392000  0.5 0.0616765435
H  H455  1  0.50000000  0.86281000  0.42633000  0.5 0.1085125545
H  H456  1  0.50000000  0.04529000  0.35608000  0.5 0.0616765435
H  H457  1  0.50000000  0.42633000  0.86281000  0.5 0.1085125545
H  H458  1  0.50000000  0.35608000  0.04529000  0.5 0.0616765435
H  H459  1  0.50000000  0.57367000  0.86281000  0.5 0.1085125545
H  H460  1  0.50000000  0.64392000  0.04529000  0.5 0.0616765435
H  H461  1  0.50000000  0.57367000  0.13719000  0.5 0.1085125545
H  H462  1  0.50000000  0.64392000  0.95471000  0.5 0.0616765435
H  H463  1  0.50000000  0.42633000  0.13719000  0.5 0.1085125545
H  H464  1  0.50000000  0.35608000  0.95471000  0.5 0.0616765435
H  H465  1  0.42633000  0.13719000  0.50000000  0.5 0.1085125545
H  H466  1  0.35608000  0.95471000  0.50000000  0.5 0.0616765435
H  H467  1  0.57367000  0.13719000  0.50000000  0.5 0.1085125545
H  H468  1  0.64392000  0.95471000  0.50000000  0.5 0.0616765435
H  H469  1  0.57367000  0.86281000  0.50000000  0.5 0.1085125545
H  H470  1  0.64392000  0.04529000  0.50000000  0.5 0.0616765435
H  H471  1  0.42633000  0.86281000  0.50000000  0.5 0.1085125545
H  H472  1  0.35608000  0.04529000  0.50000000  0.5 0.0616765435
H  H473  1  0.13719000  0.50000000  0.57367000  0.5 0.1085125545
H  H474  1  0.95471000  0.50000000  0.64392000  0.5 0.0616765435
H  H475  1  0.13719000  0.50000000  0.42633000  0.5 0.1085125545
H  H476  1  0.95471000  0.50000000  0.35608000  0.5 0.0616765435
H  H477  1  0.86281000  0.50000000  0.42633000  0.5 0.1085125545
H  H478  1  0.04529000  0.50000000  0.35608000  0.5 0.0616765435
H  H479  1  0.86281000  0.50000000  0.57367000  0.5 0.1085125545
H  H480  1  0.04529000  0.50000000  0.64392000  0.5 0.0616765435
H  H481  1  0.38631000  0.38631000  0.10216000  0.5 0.0659313045
H  H482  1  0.41352000  0.41352000  0.98553000  0.5 0.1085125545
H  H483  1  0.37479000  0.37479000  0.97462000  0.5 0.1944646418
H  H484  1  0.61369000  0.61369000  0.10216000  0.5 0.0616765435
H  H485  1  0.58648000  0.58648000  0.98553000  0.5 0.1085125545
H  H486  1  0.62521000  0.62521000  0.97462000  0.5 0.1944646418
H  H487  1  0.61369000  0.38631000  0.89784000  0.5 0.0659313045
H  H488  1  0.58648000  0.41352000  0.01447000  0.5 0.1085125545
H  H489  1  0.62521000  0.37479000  0.02538000  0.5 0.1944646418
H  H490  1  0.38631000  0.61369000  0.89784000  0.5 0.0659313045
H  H491  1  0.41352000  0.58648000  0.01447000  0.5 0.1085125545
H  H492  1  0.37479000  0.62521000  0.02538000  0.5 0.1950682282
H  H493  1  0.10216000  0.38631000  0.38631000  0.5 0.0659313045
H  H494  1  0.98553000  0.41352000  0.41352000  0.5 0.1085125545
H  H495  1  0.97462000  0.37479000  0.37479000  0.5 0.1944646418
H  H496  1  0.10216000  0.61369000  0.61369000  0.5 0.0616765435
H  H497  1  0.98553000  0.58648000  0.58648000  0.5 0.1085125545
H  H498  1  0.97462000  0.62521000  0.62521000  0.5 0.1944646418
H  H499  1  0.89784000  0.61369000  0.38631000  0.5 0.0659313045
H  H500  1  0.01447000  0.58648000  0.41352000  0.5 0.1085125545
H  H501  1  0.02538000  0.62521000  0.37479000  0.5 0.1950682282
H  H502  1  0.89784000  0.38631000  0.61369000  0.5 0.0659313045
H  H503  1  0.01447000  0.41352000  0.58648000  0.5 0.1085125545
H  H504  1  0.02538000  0.37479000  0.62521000  0.5 0.1944646418
H  H505  1  0.38631000  0.10216000  0.38631000  0.5 0.0659313045
H  H506  1  0.41352000  0.98553000  0.41352000  0.5 0.1085125545
H  H507  1  0.37479000  0.97462000  0.37479000  0.5 0.1944646418
H  H508  1  0.61369000  0.10216000  0.61369000  0.5 0.0659313045
H  H509  1  0.58648000  0.98553000  0.58648000  0.5 0.1085125545
H  H510  1  0.62521000  0.97462000  0.62521000  0.5 0.1944646418
H  H511  1  0.38631000  0.89784000  0.61369000  0.5 0.0659313045
H  H512  1  0.41352000  0.01447000  0.58648000  0.5 0.1085125545
H  H513  1  0.37479000  0.02538000  0.62521000  0.5 0.1944646418
H  H514  1  0.61369000  0.89784000  0.38631000  0.5 0.0659313045
H  H515  1  0.58648000  0.01447000  0.41352000  0.5 0.1085125545
H  H516  1  0.62521000  0.02538000  0.37479000  0.5 0.1944646418
H  H517  1  0.38631000  0.38631000  0.89784000  0.5 0.0659313045
H  H518  1  0.41352000  0.41352000  0.01447000  0.5 0.1085125545
H  H519  1  0.37479000  0.37479000  0.02538000  0.5 0.1944646418
H  H520  1  0.61369000  0.61369000  0.89784000  0.5 0.0616765435
H  H521  1  0.58648000  0.58648000  0.01447000  0.5 0.1085125545
H  H522  1  0.62521000  0.62521000  0.02538000  0.5 0.1950682282
H  H523  1  0.38631000  0.61369000  0.10216000  0.5 0.0659313045
H  H524  1  0.41352000  0.58648000  0.98553000  0.5 0.1085125545
H  H525  1  0.37479000  0.62521000  0.97462000  0.5 0.1944646418
H  H526  1  0.61369000  0.38631000  0.10216000  0.5 0.0659313045
H  H527  1  0.58648000  0.41352000  0.98553000  0.5 0.1085125545
H  H528  1  0.62521000  0.37479000  0.97462000  0.5 0.1944646418
H  H529  1  0.38631000  0.10216000  0.61369000  0.5 0.0659313045
H  H530  1  0.41352000  0.98553000  0.58648000  0.5 0.1085125545
H  H531  1  0.37479000  0.97462000  0.62521000  0.5 0.1944646418
H  H532  1  0.61369000  0.10216000  0.38631000  0.5 0.0659313045
H  H533  1  0.58648000  0.98553000  0.41352000  0.5 0.1085125545
H  H534  1  0.62521000  0.97462000  0.37479000  0.5 0.1944646418
H  H535  1  0.61369000  0.89784000  0.61369000  0.5 0.0616765435
H  H536  1  0.58648000  0.01447000  0.58648000  0.5 0.1085125545
H  H537  1  0.62521000  0.02538000  0.62521000  0.5 0.1944646418
H  H538  1  0.38631000  0.89784000  0.38631000  0.5 0.0659313045
H  H539  1  0.41352000  0.01447000  0.41352000  0.5 0.1085125545
H  H540  1  0.37479000  0.02538000  0.37479000  0.5 0.1944646418
H  H541  1  0.10216000  0.38631000  0.61369000  0.5 0.0659313045
H  H542  1  0.98553000  0.41352000  0.58648000  0.5 0.1085125545
H  H543  1  0.97462000  0.37479000  0.62521000  0.5 0.1944646418
H  H544  1  0.10216000  0.61369000  0.38631000  0.5 0.0659313045
H  H545  1  0.98553000  0.58648000  0.41352000  0.5 0.1085125545
H  H546  1  0.97462000  0.62521000  0.37479000  0.5 0.1944646418
H  H547  1  0.89784000  0.38631000  0.38631000  0.5 0.0659313045
H  H548  1  0.01447000  0.41352000  0.41352000  0.5 0.1085125545
H  H549  1  0.02538000  0.37479000  0.37479000  0.5 0.1944646418
H  H550  1  0.89784000  0.61369000  0.61369000  0.5 0.0659313045
H  H551  1  0.01447000  0.58648000  0.58648000  0.5 0.1085125545
H  H552  1  0.02538000  0.62521000  0.62521000  0.5 0.1950682282
H  H553  1  0.28759000  0.34683000  0.19121000  0.58 0.1302602321
H  H554  1  0.71241000  0.65317000  0.19121000  0.58 0.1302602321
H  H555  1  0.71241000  0.34683000  0.80879000  0.58 0.1302602321
H  H556  1  0.28759000  0.65317000  0.80879000  0.58 0.1302602321
H  H557  1  0.19121000  0.28759000  0.34683000  0.58 0.1302602321
H  H558  1  0.19121000  0.71241000  0.65317000  0.58 0.1302602321
H  H559  1  0.80879000  0.71241000  0.34683000  0.58 0.1302602321
H  H560  1  0.80879000  0.28759000  0.65317000  0.58 0.1302602321
H  H561  1  0.34683000  0.19121000  0.28759000  0.58 0.1302602321
H  H562  1  0.65317000  0.19121000  0.71241000  0.58 0.1302602321
H  H563  1  0.34683000  0.80879000  0.71241000  0.58 0.1302602321
H  H564  1  0.65317000  0.80879000  0.28759000  0.58 0.1302602321
H  H565  1  0.34683000  0.28759000  0.80879000  0.58 0.1302602321
H  H566  1  0.65317000  0.71241000  0.80879000  0.58 0.1302602321
H  H567  1  0.34683000  0.71241000  0.19121000  0.58 0.1302602321
H  H568  1  0.65317000  0.28759000  0.19121000  0.58 0.1302602321
H  H569  1  0.28759000  0.19121000  0.65317000  0.58 0.1302602321
H  H570  1  0.71241000  0.19121000  0.34683000  0.58 0.1302602321
H  H571  1  0.71241000  0.80879000  0.65317000  0.58 0.1302602321
H  H572  1  0.28759000  0.80879000  0.34683000  0.58 0.1302602321
H  H573  1  0.19121000  0.34683000  0.71241000  0.58 0.1302602321
H  H574  1  0.19121000  0.65317000  0.28759000  0.58 0.1302602321
H  H575  1  0.80879000  0.34683000  0.28759000  0.58 0.1302602321
H  H576  1  0.80879000  0.65317000  0.71241000  0.58 0.1302602321
H  H577  1  0.71241000  0.65317000  0.80879000  0.58 0.1302602321
H  H578  1  0.28759000  0.34683000  0.80879000  0.58 0.1302602321
H  H579  1  0.28759000  0.65317000  0.19121000  0.58 0.1302602321
H  H580  1  0.71241000  0.34683000  0.19121000  0.58 0.1302602321
H  H581  1  0.80879000  0.71241000  0.65317000  0.58 0.1302602321
H  H582  1  0.80879000  0.28759000  0.34683000  0.58 0.1302602321
H  H583  1  0.19121000  0.28759000  0.65317000  0.58 0.1302602321
H  H584  1  0.19121000  0.71241000  0.34683000  0.58 0.1302602321
H  H585  1  0.65317000  0.80879000  0.71241000  0.58 0.1302602321
H  H586  1  0.34683000  0.80879000  0.28759000  0.58 0.1302602321
H  H587  1  0.65317000  0.19121000  0.28759000  0.58 0.1302602321
H  H588  1  0.34683000  0.19121000  0.71241000  0.58 0.1302602321
H  H589  1  0.65317000  0.71241000  0.19121000  0.58 0.1302602321
H  H590  1  0.34683000  0.28759000  0.19121000  0.58 0.1302602321
H  H591  1  0.65317000  0.28759000  0.80879000  0.58 0.1302602321
H  H592  1  0.34683000  0.71241000  0.80879000  0.58 0.1302602321
H  H593  1  0.71241000  0.80879000  0.34683000  0.58 0.1302602321
H  H594  1  0.28759000  0.80879000  0.65317000  0.58 0.1302602321
H  H595  1  0.28759000  0.19121000  0.34683000  0.58 0.1302602321
H  H596  1  0.71241000  0.19121000  0.65317000  0.58 0.1302602321
H  H597  1  0.80879000  0.65317000  0.28759000  0.58 0.1302602321
H  H598  1  0.80879000  0.34683000  0.71241000  0.58 0.1302602321
H  H599  1  0.19121000  0.65317000  0.71241000  0.58 0.1302602321
H  H600  1  0.19121000  0.34683000  0.28759000  0.58 0.1302602321
H  H601  1  0.31954000  0.31954000  0.06172000  0.58 0.0762909225
H  H602  1  0.68046000  0.68046000  0.06172000  0.58 0.0762909225
H  H603  1  0.68046000  0.31954000  0.93828000  0.58 0.0762909225
H  H604  1  0.31954000  0.68046000  0.93828000  0.58 0.0762909225
H  H605  1  0.06172000  0.31954000  0.31954000  0.58 0.0762909225
H  H606  1  0.06172000  0.68046000  0.68046000  0.58 0.0762909225
H  H607  1  0.93828000  0.68046000  0.31954000  0.58 0.0762909225
H  H608  1  0.93828000  0.31954000  0.68046000  0.58 0.0762909225
H  H609  1  0.31954000  0.06172000  0.31954000  0.58 0.0762909225
H  H610  1  0.68046000  0.06172000  0.68046000  0.58 0.0762909225
H  H611  1  0.31954000  0.93828000  0.68046000  0.58 0.0762909225
H  H612  1  0.68046000  0.93828000  0.31954000  0.58 0.0762909225
H  H613  1  0.31954000  0.31954000  0.93828000  0.58 0.0762909225
H  H614  1  0.68046000  0.68046000  0.93828000  0.58 0.0762909225
H  H615  1  0.31954000  0.68046000  0.06172000  0.58 0.0762909225
H  H616  1  0.68046000  0.31954000  0.06172000  0.58 0.0762909225
H  H617  1  0.31954000  0.06172000  0.68046000  0.58 0.0762909225
H  H618  1  0.68046000  0.06172000  0.31954000  0.58 0.0762909225
H  H619  1  0.68046000  0.93828000  0.68046000  0.58 0.0762909225
H  H620  1  0.31954000  0.93828000  0.31954000  0.58 0.0762909225
H  H621  1  0.06172000  0.31954000  0.68046000  0.58 0.0762909225
H  H622  1  0.06172000  0.68046000  0.31954000  0.58 0.0762909225
H  H623  1  0.93828000  0.31954000  0.31954000  0.58 0.0762909225
H  H624  1  0.93828000  0.68046000  0.68046000  0.58 0.0762909225
H  H625  1  0.19666000  0.29862000  0.13601000  0.76 0.1085125545
H  H626  1  0.80334000  0.70138000  0.13601000  0.76 0.1085125545
H  H627  1  0.80334000  0.29862000  0.86399000  0.76 0.1085125545
H  H628  1  0.19666000  0.70138000  0.86399000  0.76 0.1085125545
H  H629  1  0.13601000  0.19666000  0.29862000  0.76 0.1085125545
H  H630  1  0.13601000  0.80334000  0.70138000  0.76 0.1085125545
H  H631  1  0.86399000  0.80334000  0.29862000  0.76 0.1085125545
H  H632  1  0.86399000  0.19666000  0.70138000  0.76 0.1085125545
H  H633  1  0.29862000  0.13601000  0.19666000  0.76 0.1085125545
H  H634  1  0.70138000  0.13601000  0.80334000  0.76 0.1085125545
H  H635  1  0.29862000  0.86399000  0.80334000  0.76 0.1085125545
H  H636  1  0.70138000  0.86399000  0.19666000  0.76 0.1085125545
H  H637  1  0.29862000  0.19666000  0.86399000  0.76 0.1085125545
H  H638  1  0.70138000  0.80334000  0.86399000  0.76 0.1085125545
H  H639  1  0.29862000  0.80334000  0.13601000  0.76 0.0990796303
H  H640  1  0.70138000  0.19666000  0.13601000  0.76 0.1085125545
H  H641  1  0.19666000  0.13601000  0.70138000  0.76 0.1085125545
H  H642  1  0.80334000  0.13601000  0.29862000  0.76 0.1085125545
H  H643  1  0.80334000  0.86399000  0.70138000  0.76 0.1085125545
H  H644  1  0.19666000  0.86399000  0.29862000  0.76 0.1085125545
H  H645  1  0.13601000  0.29862000  0.80334000  0.76 0.1085125545
H  H646  1  0.13601000  0.70138000  0.19666000  0.76 0.1085125545
H  H647  1  0.86399000  0.29862000  0.19666000  0.76 0.1085125545
H  H648  1  0.86399000  0.70138000  0.80334000  0.76 0.1085125545
H  H649  1  0.80334000  0.70138000  0.86399000  0.76 0.1085125545
H  H650  1  0.19666000  0.29862000  0.86399000  0.76 0.1085125545
H  H651  1  0.19666000  0.70138000  0.13601000  0.76 0.1085125545
H  H652  1  0.80334000  0.29862000  0.13601000  0.76 0.1085125545
H  H653  1  0.86399000  0.80334000  0.70138000  0.76 0.1085125545
H  H654  1  0.86399000  0.19666000  0.29862000  0.76 0.1085125545
H  H655  1  0.13601000  0.19666000  0.70138000  0.76 0.1085125545
H  H656  1  0.13601000  0.80334000  0.29862000  0.76 0.0990796303
H  H657  1  0.70138000  0.86399000  0.80334000  0.76 0.1085125545
H  H658  1  0.29862000  0.86399000  0.19666000  0.76 0.1085125545
H  H659  1  0.70138000  0.13601000  0.19666000  0.76 0.1085125545
H  H660  1  0.29862000  0.13601000  0.80334000  0.76 0.1085125545
H  H661  1  0.70138000  0.80334000  0.13601000  0.76 0.1085125545
H  H662  1  0.29862000  0.19666000  0.13601000  0.76 0.1085125545
H  H663  1  0.70138000  0.19666000  0.86399000  0.76 0.1085125545
H  H664  1  0.29862000  0.80334000  0.86399000  0.76 0.1085125545
H  H665  1  0.80334000  0.86399000  0.29862000  0.76 0.1085125545
H  H666  1  0.19666000  0.86399000  0.70138000  0.76 0.1085125545
H  H667  1  0.19666000  0.13601000  0.29862000  0.76 0.1085125545
H  H668  1  0.80334000  0.13601000  0.70138000  0.76 0.1085125545
H  H669  1  0.86399000  0.70138000  0.19666000  0.76 0.1085125545
H  H670  1  0.86399000  0.29862000  0.80334000  0.76 0.1085125545
H  H671  1  0.13601000  0.70138000  0.80334000  0.76 0.1085125545
H  H672  1  0.13601000  0.29862000  0.19666000  0.76 0.1085125545
C  C1  1  0.27630000  0.47570000  0.16640000  1.0 -0.08973577
C  C2  1  0.18040000  0.38820000  0.02280000  1.0 -0.0700835727
C  C3  1  0.72370000  0.52430000  0.16640000  1.0 -0.08973577
C  C4  1  0.81960000  0.61180000  0.02280000  1.0 -0.0700835727
C  C5  1  0.72370000  0.47570000  0.83360000  1.0 -0.08973577
C  C6  1  0.81960000  0.38820000  0.97720000  1.0 -0.0700835727
C  C7  1  0.27630000  0.52430000  0.83360000  1.0 -0.08973577
C  C8  1  0.18040000  0.61180000  0.97720000  1.0 -0.0700835727
C  C9  1  0.16640000  0.27630000  0.47570000  1.0 -0.08973577
C  C10  1  0.02280000  0.18040000  0.38820000  1.0 -0.0700835727
C  C11  1  0.16640000  0.72370000  0.52430000  1.0 -0.08973577
C  C12  1  0.02280000  0.81960000  0.61180000  1.0 -0.0700835727
C  C13  1  0.83360000  0.72370000  0.47570000  1.0 -0.08973577
C  C14  1  0.97720000  0.81960000  0.38820000  1.0 -0.0700835727
C  C15  1  0.83360000  0.27630000  0.52430000  1.0 -0.08973577
C  C16  1  0.97720000  0.18040000  0.61180000  1.0 -0.0700835727
C  C17  1  0.47570000  0.16640000  0.27630000  1.0 -0.08973577
C  C18  1  0.38820000  0.02280000  0.18040000  1.0 -0.0700835727
C  C19  1  0.52430000  0.16640000  0.72370000  1.0 -0.08973577
C  C20  1  0.61180000  0.02280000  0.81960000  1.0 -0.0700835727
C  C21  1  0.47570000  0.83360000  0.72370000  1.0 -0.08973577
C  C22  1  0.38820000  0.97720000  0.81960000  1.0 -0.0700835727
C  C23  1  0.52430000  0.83360000  0.27630000  1.0 -0.08973577
C  C24  1  0.61180000  0.97720000  0.18040000  1.0 -0.0700835727
C  C25  1  0.47570000  0.27630000  0.83360000  1.0 -0.08973577
C  C26  1  0.38820000  0.18040000  0.97720000  1.0 -0.0700835727
C  C27  1  0.52430000  0.72370000  0.83360000  1.0 -0.08973577
C  C28  1  0.61180000  0.81960000  0.97720000  1.0 -0.0700835727
C  C29  1  0.47570000  0.72370000  0.16640000  1.0 -0.08973577
C  C30  1  0.38820000  0.81960000  0.02280000  1.0 -0.0700835727
C  C31  1  0.52430000  0.27630000  0.16640000  1.0 -0.08973577
C  C32  1  0.61180000  0.18040000  0.02280000  1.0 -0.0700835727
C  C33  1  0.27630000  0.16640000  0.52430000  1.0 -0.08973577
C  C34  1  0.18040000  0.02280000  0.61180000  1.0 -0.0700835727
C  C35  1  0.72370000  0.16640000  0.47570000  1.0 -0.08973577
C  C36  1  0.81960000  0.02280000  0.38820000  1.0 -0.0700835727
C  C37  1  0.72370000  0.83360000  0.52430000  1.0 -0.08973577
C  C38  1  0.81960000  0.97720000  0.61180000  1.0 -0.0700835727
C  C39  1  0.27630000  0.83360000  0.47570000  1.0 -0.08973577
C  C40  1  0.18040000  0.97720000  0.38820000  1.0 -0.0700835727
C  C41  1  0.16640000  0.47570000  0.72370000  1.0 -0.08973577
C  C42  1  0.02280000  0.38820000  0.81960000  1.0 -0.0700835727
C  C43  1  0.16640000  0.52430000  0.27630000  1.0 -0.08973577
C  C44  1  0.02280000  0.61180000  0.18040000  1.0 -0.0700835727
C  C45  1  0.83360000  0.47570000  0.27630000  1.0 -0.08973577
C  C46  1  0.97720000  0.38820000  0.18040000  1.0 -0.0700835727
C  C47  1  0.83360000  0.52430000  0.72370000  1.0 -0.08973577
C  C48  1  0.97720000  0.61180000  0.81960000  1.0 -0.0700835727
C  C49  1  0.72370000  0.52430000  0.83360000  1.0 -0.08973577
C  C50  1  0.81960000  0.61180000  0.97720000  1.0 -0.0700835727
C  C51  1  0.27630000  0.47570000  0.83360000  1.0 -0.08973577
C  C52  1  0.18040000  0.38820000  0.97720000  1.0 -0.0700835727
C  C53  1  0.27630000  0.52430000  0.16640000  1.0 -0.08973577
C  C54  1  0.18040000  0.61180000  0.02280000  1.0 -0.0700835727
C  C55  1  0.72370000  0.47570000  0.16640000  1.0 -0.08973577
C  C56  1  0.81960000  0.38820000  0.02280000  1.0 -0.0700835727
C  C57  1  0.83360000  0.72370000  0.52430000  1.0 -0.08973577
C  C58  1  0.97720000  0.81960000  0.61180000  1.0 -0.0700835727
C  C59  1  0.83360000  0.27630000  0.47570000  1.0 -0.08973577
C  C60  1  0.97720000  0.18040000  0.38820000  1.0 -0.0700835727
C  C61  1  0.16640000  0.27630000  0.52430000  1.0 -0.08973577
C  C62  1  0.02280000  0.18040000  0.61180000  1.0 -0.0700835727
C  C63  1  0.16640000  0.72370000  0.47570000  1.0 -0.08973577
C  C64  1  0.02280000  0.81960000  0.38820000  1.0 -0.0700835727
C  C65  1  0.52430000  0.83360000  0.72370000  1.0 -0.08973577
C  C66  1  0.61180000  0.97720000  0.81960000  1.0 -0.0700835727
C  C67  1  0.47570000  0.83360000  0.27630000  1.0 -0.08973577
C  C68  1  0.38820000  0.97720000  0.18040000  1.0 -0.0700835727
C  C69  1  0.52430000  0.16640000  0.27630000  1.0 -0.08973577
C  C70  1  0.61180000  0.02280000  0.18040000  1.0 -0.0700835727
C  C71  1  0.47570000  0.16640000  0.72370000  1.0 -0.08973577
C  C72  1  0.38820000  0.02280000  0.81960000  1.0 -0.0700835727
C  C73  1  0.52430000  0.72370000  0.16640000  1.0 -0.08973577
C  C74  1  0.61180000  0.81960000  0.02280000  1.0 -0.0700835727
C  C75  1  0.47570000  0.27630000  0.16640000  1.0 -0.08973577
C  C76  1  0.38820000  0.18040000  0.02280000  1.0 -0.0700835727
C  C77  1  0.52430000  0.27630000  0.83360000  1.0 -0.08973577
C  C78  1  0.61180000  0.18040000  0.97720000  1.0 -0.0700835727
C  C79  1  0.47570000  0.72370000  0.83360000  1.0 -0.08973577
C  C80  1  0.38820000  0.81960000  0.97720000  1.0 -0.0700835727
C  C81  1  0.72370000  0.83360000  0.47570000  1.0 -0.08973577
C  C82  1  0.81960000  0.97720000  0.38820000  1.0 -0.0700835727
C  C83  1  0.27630000  0.83360000  0.52430000  1.0 -0.08973577
C  C84  1  0.18040000  0.97720000  0.61180000  1.0 -0.0700835727
C  C85  1  0.27630000  0.16640000  0.47570000  1.0 -0.08973577
C  C86  1  0.18040000  0.02280000  0.38820000  1.0 -0.0700835727
C  C87  1  0.72370000  0.16640000  0.52430000  1.0 -0.08973577
C  C88  1  0.81960000  0.02280000  0.61180000  1.0 -0.0700835727
C  C89  1  0.83360000  0.52430000  0.27630000  1.0 -0.08973577
C  C90  1  0.97720000  0.61180000  0.18040000  1.0 -0.0700835727
C  C91  1  0.83360000  0.47570000  0.72370000  1.0 -0.08973577
C  C92  1  0.97720000  0.38820000  0.81960000  1.0 -0.0700835727
C  C93  1  0.16640000  0.52430000  0.72370000  1.0 -0.08973577
C  C94  1  0.02280000  0.61180000  0.81960000  1.0 -0.0700835727
C  C95  1  0.16640000  0.47570000  0.27630000  1.0 -0.08973577
C  C96  1  0.02280000  0.38820000  0.18040000  1.0 -0.0700835727
C  C97  1  0.24950000  0.50000000  0.10180000  1.0 0.1192216723
C  C98  1  0.75050000  0.50000000  0.10180000  1.0 0.1192216723
C  C99  1  0.75050000  0.50000000  0.89820000  1.0 0.1192216723
C  C100  1  0.24950000  0.50000000  0.89820000  1.0 0.1192216723
C  C101  1  0.10180000  0.24950000  0.50000000  1.0 0.1192216723
C  C102  1  0.10180000  0.75050000  0.50000000  1.0 0.1192216723
C  C103  1  0.89820000  0.75050000  0.50000000  1.0 0.1192216723
C  C104  1  0.89820000  0.24950000  0.50000000  1.0 0.1192216723
C  C105  1  0.50000000  0.10180000  0.24950000  1.0 0.1192216723
C  C106  1  0.50000000  0.10180000  0.75050000  1.0 0.1192216723
C  C107  1  0.50000000  0.89820000  0.75050000  1.0 0.1192216723
C  C108  1  0.50000000  0.89820000  0.24950000  1.0 0.1192216723
C  C109  1  0.50000000  0.24950000  0.89820000  1.0 0.1192216723
C  C110  1  0.50000000  0.75050000  0.89820000  1.0 0.1192216723
C  C111  1  0.50000000  0.75050000  0.10180000  1.0 0.1192216723
C  C112  1  0.50000000  0.24950000  0.10180000  1.0 0.1192216723
C  C113  1  0.24950000  0.10180000  0.50000000  1.0 0.1192216723
C  C114  1  0.75050000  0.10180000  0.50000000  1.0 0.1192216723
C  C115  1  0.75050000  0.89820000  0.50000000  1.0 0.1192216723
C  C116  1  0.24950000  0.89820000  0.50000000  1.0 0.1192216723
C  C117  1  0.10180000  0.50000000  0.75050000  1.0 0.1192216723
C  C118  1  0.10180000  0.50000000  0.24950000  1.0 0.1192216723
C  C119  1  0.89820000  0.50000000  0.24950000  1.0 0.1192216723
C  C120  1  0.89820000  0.50000000  0.75050000  1.0 0.1192216723
C  C121  1  0.17720000  0.39640000  0.17720000  1.0 0.0357793405
C  C122  1  0.82280000  0.60360000  0.17720000  1.0 0.0357793405
C  C123  1  0.82280000  0.39640000  0.82280000  1.0 0.0357793405
C  C124  1  0.17720000  0.60360000  0.82280000  1.0 0.0357793405
C  C125  1  0.17720000  0.17720000  0.39640000  1.0 0.0357793405
C  C126  1  0.17720000  0.82280000  0.60360000  1.0 0.0357793405
C  C127  1  0.82280000  0.82280000  0.39640000  1.0 0.0357793405
C  C128  1  0.82280000  0.17720000  0.60360000  1.0 0.0357793405
C  C129  1  0.39640000  0.17720000  0.17720000  1.0 0.0357793405
C  C130  1  0.60360000  0.17720000  0.82280000  1.0 0.0357793405
C  C131  1  0.39640000  0.82280000  0.82280000  1.0 0.0357793405
C  C132  1  0.60360000  0.82280000  0.17720000  1.0 0.0357793405
C  C133  1  0.39640000  0.17720000  0.82280000  1.0 0.0357793405
C  C134  1  0.60360000  0.82280000  0.82280000  1.0 0.0357793405
C  C135  1  0.39640000  0.82280000  0.17720000  1.0 0.0357793405
C  C136  1  0.60360000  0.17720000  0.17720000  1.0 0.0357793405
C  C137  1  0.17720000  0.17720000  0.60360000  1.0 0.0357793405
C  C138  1  0.82280000  0.17720000  0.39640000  1.0 0.0357793405
C  C139  1  0.82280000  0.82280000  0.60360000  1.0 0.0357793405
C  C140  1  0.17720000  0.82280000  0.39640000  1.0 0.0357793405
C  C141  1  0.17720000  0.39640000  0.82280000  1.0 0.0357793405
C  C142  1  0.17720000  0.60360000  0.17720000  1.0 0.0357793405
C  C143  1  0.82280000  0.39640000  0.17720000  1.0 0.0357793405
C  C144  1  0.82280000  0.60360000  0.82280000  1.0 0.0357793405
C  C145  1  0.25030000  0.39620000  0.00000000  1.0 0.0357793405
C  C146  1  0.74970000  0.60380000  0.00000000  1.0 0.0357793405
C  C147  1  0.74970000  0.39620000  0.00000000  1.0 0.0357793405
C  C148  1  0.25030000  0.60380000  0.00000000  1.0 0.0357793405
C  C149  1  0.00000000  0.25030000  0.39620000  1.0 0.0357793405
C  C150  1  0.00000000  0.74970000  0.60380000  1.0 0.0311407039
C  C151  1  0.00000000  0.74970000  0.39620000  1.0 0.0311407039
C  C152  1  0.00000000  0.25030000  0.60380000  1.0 0.0311407039
C  C153  1  0.39620000  0.00000000  0.25030000  1.0 0.0357793405
C  C154  1  0.60380000  0.00000000  0.74970000  1.0 0.0311407039
C  C155  1  0.39620000  0.00000000  0.74970000  1.0 0.0311407039
C  C156  1  0.60380000  0.00000000  0.25030000  1.0 0.0357793405
C  C157  1  0.39620000  0.25030000  0.00000000  1.0 0.0357793405
C  C158  1  0.60380000  0.74970000  0.00000000  1.0 0.0311407039
C  C159  1  0.39620000  0.74970000  0.00000000  1.0 0.0311407039
C  C160  1  0.60380000  0.25030000  0.00000000  1.0 0.0357793405
C  C161  1  0.25030000  0.00000000  0.60380000  1.0 0.0357793405
C  C162  1  0.74970000  0.00000000  0.39620000  1.0 0.0357793405
C  C163  1  0.74970000  0.00000000  0.60380000  1.0 0.0357793405
C  C164  1  0.25030000  0.00000000  0.39620000  1.0 0.0357793405
C  C165  1  0.00000000  0.39620000  0.74970000  1.0 0.0311407039
C  C166  1  0.00000000  0.60380000  0.25030000  1.0 0.0311407039
C  C167  1  0.00000000  0.39620000  0.25030000  1.0 0.0357793405
C  C168  1  0.00000000  0.60380000  0.74970000  1.0 0.0311407039
C  C169  1  0.39130000  0.39130000  0.00000000  1.0 0.0762909225
C  C170  1  0.60870000  0.60870000  0.00000000  1.0 0.0762909225
C  C171  1  0.60870000  0.39130000  0.00000000  1.0 0.0762909225
C  C172  1  0.39130000  0.60870000  0.00000000  1.0 0.0762909225
C  C173  1  0.00000000  0.39130000  0.39130000  1.0 0.0762909225
C  C174  1  0.00000000  0.60870000  0.60870000  1.0 0.0762909225
C  C175  1  0.00000000  0.60870000  0.39130000  1.0 0.0762909225
C  C176  1  0.00000000  0.39130000  0.60870000  1.0 0.0762909225
C  C177  1  0.39130000  0.00000000  0.39130000  1.0 0.0762909225
C  C178  1  0.60870000  0.00000000  0.60870000  1.0 0.0762909225
C  C179  1  0.39130000  0.00000000  0.60870000  1.0 0.0762909225
C  C180  1  0.60870000  0.00000000  0.39130000  1.0 0.0762909225
C  C181  1  0.35580000  0.38900000  0.12060000  0.42 -0.153668207
C  C182  1  0.64420000  0.61100000  0.12060000  0.42 -0.153668207
C  C183  1  0.64420000  0.38900000  0.87940000  0.42 -0.153668207
C  C184  1  0.35580000  0.61100000  0.87940000  0.42 -0.153668207
C  C185  1  0.12060000  0.35580000  0.38900000  0.42 -0.153668207
C  C186  1  0.12060000  0.64420000  0.61100000  0.42 -0.153668207
C  C187  1  0.87940000  0.64420000  0.38900000  0.42 -0.153668207
C  C188  1  0.87940000  0.35580000  0.61100000  0.42 -0.153668207
C  C189  1  0.38900000  0.12060000  0.35580000  0.42 -0.153668207
C  C190  1  0.61100000  0.12060000  0.64420000  0.42 -0.153668207
C  C191  1  0.38900000  0.87940000  0.64420000  0.42 -0.153668207
C  C192  1  0.61100000  0.87940000  0.35580000  0.42 -0.153668207
C  C193  1  0.38900000  0.35580000  0.87940000  0.42 -0.153668207
C  C194  1  0.61100000  0.64420000  0.87940000  0.42 -0.153668207
C  C195  1  0.38900000  0.64420000  0.12060000  0.42 -0.153668207
C  C196  1  0.61100000  0.35580000  0.12060000  0.42 -0.153668207
C  C197  1  0.35580000  0.12060000  0.61100000  0.42 -0.153668207
C  C198  1  0.64420000  0.12060000  0.38900000  0.42 -0.153668207
C  C199  1  0.64420000  0.87940000  0.61100000  0.42 -0.153668207
C  C200  1  0.35580000  0.87940000  0.38900000  0.42 -0.153668207
C  C201  1  0.12060000  0.38900000  0.64420000  0.42 -0.153668207
C  C202  1  0.12060000  0.61100000  0.35580000  0.42 -0.153668207
C  C203  1  0.87940000  0.38900000  0.35580000  0.42 -0.153668207
C  C204  1  0.87940000  0.61100000  0.64420000  0.42 -0.153668207
C  C205  1  0.64420000  0.61100000  0.87940000  0.42 -0.153668207
C  C206  1  0.35580000  0.38900000  0.87940000  0.42 -0.153668207
C  C207  1  0.35580000  0.61100000  0.12060000  0.42 -0.153668207
C  C208  1  0.64420000  0.38900000  0.12060000  0.42 -0.153668207
C  C209  1  0.87940000  0.64420000  0.61100000  0.42 -0.153668207
C  C210  1  0.87940000  0.35580000  0.38900000  0.42 -0.153668207
C  C211  1  0.12060000  0.35580000  0.61100000  0.42 -0.153668207
C  C212  1  0.12060000  0.64420000  0.38900000  0.42 -0.153668207
C  C213  1  0.61100000  0.87940000  0.64420000  0.42 -0.153668207
C  C214  1  0.38900000  0.87940000  0.35580000  0.42 -0.153668207
C  C215  1  0.61100000  0.12060000  0.35580000  0.42 -0.153668207
C  C216  1  0.38900000  0.12060000  0.64420000  0.42 -0.153668207
C  C217  1  0.61100000  0.64420000  0.12060000  0.42 -0.153668207
C  C218  1  0.38900000  0.35580000  0.12060000  0.42 -0.153668207
C  C219  1  0.61100000  0.35580000  0.87940000  0.42 -0.153668207
C  C220  1  0.38900000  0.64420000  0.87940000  0.42 -0.153668207
C  C221  1  0.64420000  0.87940000  0.38900000  0.42 -0.153668207
C  C222  1  0.35580000  0.87940000  0.61100000  0.42 -0.153668207
C  C223  1  0.35580000  0.12060000  0.38900000  0.42 -0.153668207
C  C224  1  0.64420000  0.12060000  0.61100000  0.42 -0.153668207
C  C225  1  0.87940000  0.61100000  0.35580000  0.42 -0.153668207
C  C226  1  0.87940000  0.38900000  0.64420000  0.42 -0.153668207
C  C227  1  0.12060000  0.61100000  0.64420000  0.42 -0.153668207
C  C228  1  0.12060000  0.38900000  0.35580000  0.42 -0.153668207
C  C229  1  0.32516000  0.32516000  0.10251000  0.42 0.0990796303
C  C230  1  0.67484000  0.67484000  0.10251000  0.42 0.0990796303
C  C231  1  0.67484000  0.32516000  0.89749000  0.42 0.0990796303
C  C232  1  0.32516000  0.67484000  0.89749000  0.42 0.0990796303
C  C233  1  0.10251000  0.32516000  0.32516000  0.42 0.0990796303
C  C234  1  0.10251000  0.67484000  0.67484000  0.42 0.0990796303
C  C235  1  0.89749000  0.67484000  0.32516000  0.42 0.0990796303
C  C236  1  0.89749000  0.32516000  0.67484000  0.42 0.0990796303
C  C237  1  0.32516000  0.10251000  0.32516000  0.42 0.0990796303
C  C238  1  0.67484000  0.10251000  0.67484000  0.42 0.0990796303
C  C239  1  0.32516000  0.89749000  0.67484000  0.42 0.0990796303
C  C240  1  0.67484000  0.89749000  0.32516000  0.42 0.0990796303
C  C241  1  0.32516000  0.32516000  0.89749000  0.42 0.0990796303
C  C242  1  0.67484000  0.67484000  0.89749000  0.42 0.0990796303
C  C243  1  0.32516000  0.67484000  0.10251000  0.42 0.0990796303
C  C244  1  0.67484000  0.32516000  0.10251000  0.42 0.0990796303
C  C245  1  0.32516000  0.10251000  0.67484000  0.42 0.0990796303
C  C246  1  0.67484000  0.10251000  0.32516000  0.42 0.0990796303
C  C247  1  0.67484000  0.89749000  0.67484000  0.42 0.0990796303
C  C248  1  0.32516000  0.89749000  0.32516000  0.42 0.0990796303
C  C249  1  0.10251000  0.32516000  0.67484000  0.42 0.0990796303
C  C250  1  0.10251000  0.67484000  0.32516000  0.42 0.0990796303
C  C251  1  0.89749000  0.32516000  0.32516000  0.42 0.0990796303
C  C252  1  0.89749000  0.67484000  0.67484000  0.42 0.0990796303
C  C253  1  0.37320000  0.45830000  0.04940000  0.5 -0.0238409613
C  C254  1  0.39640000  0.45480000  0.09150000  0.5 -0.08973577
C  C255  1  0.62680000  0.54170000  0.04940000  0.5 -0.0238409613
C  C256  1  0.60360000  0.54520000  0.09150000  0.5 -0.08973577
C  C257  1  0.62680000  0.45830000  0.95060000  0.5 -0.0238409613
C  C258  1  0.60360000  0.45480000  0.90850000  0.5 -0.08973577
C  C259  1  0.37320000  0.54170000  0.95060000  0.5 -0.0238409613
C  C260  1  0.39640000  0.54520000  0.90850000  0.5 -0.08973577
C  C261  1  0.04940000  0.37320000  0.45830000  0.5 -0.0238409613
C  C262  1  0.09150000  0.39640000  0.45480000  0.5 -0.08973577
C  C263  1  0.04940000  0.62680000  0.54170000  0.5 -0.0238409613
C  C264  1  0.09150000  0.60360000  0.54520000  0.5 -0.08973577
C  C265  1  0.95060000  0.62680000  0.45830000  0.5 -0.0238409613
C  C266  1  0.90850000  0.60360000  0.45480000  0.5 -0.08973577
C  C267  1  0.95060000  0.37320000  0.54170000  0.5 -0.0238409613
C  C268  1  0.90850000  0.39640000  0.54520000  0.5 -0.08973577
C  C269  1  0.45830000  0.04940000  0.37320000  0.5 -0.0238409613
C  C270  1  0.45480000  0.09150000  0.39640000  0.5 -0.08973577
C  C271  1  0.54170000  0.04940000  0.62680000  0.5 -0.0238409613
C  C272  1  0.54520000  0.09150000  0.60360000  0.5 -0.08973577
C  C273  1  0.45830000  0.95060000  0.62680000  0.5 -0.0238409613
C  C274  1  0.45480000  0.90850000  0.60360000  0.5 -0.08973577
C  C275  1  0.54170000  0.95060000  0.37320000  0.5 -0.0238409613
C  C276  1  0.54520000  0.90850000  0.39640000  0.5 -0.08973577
C  C277  1  0.45830000  0.37320000  0.95060000  0.5 -0.0238409613
C  C278  1  0.45480000  0.39640000  0.90850000  0.5 -0.08973577
C  C279  1  0.54170000  0.62680000  0.95060000  0.5 -0.0238409613
C  C280  1  0.54520000  0.60360000  0.90850000  0.5 -0.08973577
C  C281  1  0.45830000  0.62680000  0.04940000  0.5 -0.0238409613
C  C282  1  0.45480000  0.60360000  0.09150000  0.5 -0.08973577
C  C283  1  0.54170000  0.37320000  0.04940000  0.5 -0.0238409613
C  C284  1  0.54520000  0.39640000  0.09150000  0.5 -0.08973577
C  C285  1  0.37320000  0.04940000  0.54170000  0.5 -0.0238409613
C  C286  1  0.39640000  0.09150000  0.54520000  0.5 -0.08973577
C  C287  1  0.62680000  0.04940000  0.45830000  0.5 -0.0238409613
C  C288  1  0.60360000  0.09150000  0.45480000  0.5 -0.08973577
C  C289  1  0.62680000  0.95060000  0.54170000  0.5 -0.0238409613
C  C290  1  0.60360000  0.90850000  0.54520000  0.5 -0.08973577
C  C291  1  0.37320000  0.95060000  0.45830000  0.5 -0.0238409613
C  C292  1  0.39640000  0.90850000  0.45480000  0.5 -0.08973577
C  C293  1  0.04940000  0.45830000  0.62680000  0.5 -0.0238409613
C  C294  1  0.09150000  0.45480000  0.60360000  0.5 -0.08973577
C  C295  1  0.04940000  0.54170000  0.37320000  0.5 -0.0238409613
C  C296  1  0.09150000  0.54520000  0.39640000  0.5 -0.08973577
C  C297  1  0.95060000  0.45830000  0.37320000  0.5 -0.0238409613
C  C298  1  0.90850000  0.45480000  0.39640000  0.5 -0.08973577
C  C299  1  0.95060000  0.54170000  0.62680000  0.5 -0.0238409613
C  C300  1  0.90850000  0.54520000  0.60360000  0.5 -0.08973577
C  C301  1  0.62680000  0.54170000  0.95060000  0.5 -0.0238409613
C  C302  1  0.60360000  0.54520000  0.90850000  0.5 -0.08973577
C  C303  1  0.37320000  0.45830000  0.95060000  0.5 -0.0238409613
C  C304  1  0.39640000  0.45480000  0.90850000  0.5 -0.08973577
C  C305  1  0.37320000  0.54170000  0.04940000  0.5 -0.0238409613
C  C306  1  0.39640000  0.54520000  0.09150000  0.5 -0.08973577
C  C307  1  0.62680000  0.45830000  0.04940000  0.5 -0.0238409613
C  C308  1  0.60360000  0.45480000  0.09150000  0.5 -0.08973577
C  C309  1  0.95060000  0.62680000  0.54170000  0.5 -0.0238409613
C  C310  1  0.90850000  0.60360000  0.54520000  0.5 -0.08973577
C  C311  1  0.95060000  0.37320000  0.45830000  0.5 -0.0238409613
C  C312  1  0.90850000  0.39640000  0.45480000  0.5 -0.08973577
C  C313  1  0.04940000  0.37320000  0.54170000  0.5 -0.0238409613
C  C314  1  0.09150000  0.39640000  0.54520000  0.5 -0.08973577
C  C315  1  0.04940000  0.62680000  0.45830000  0.5 -0.0238409613
C  C316  1  0.09150000  0.60360000  0.45480000  0.5 -0.08973577
C  C317  1  0.54170000  0.95060000  0.62680000  0.5 -0.0238409613
C  C318  1  0.54520000  0.90850000  0.60360000  0.5 -0.08973577
C  C319  1  0.45830000  0.95060000  0.37320000  0.5 -0.0238409613
C  C320  1  0.45480000  0.90850000  0.39640000  0.5 -0.08973577
C  C321  1  0.54170000  0.04940000  0.37320000  0.5 -0.0238409613
C  C322  1  0.54520000  0.09150000  0.39640000  0.5 -0.08973577
C  C323  1  0.45830000  0.04940000  0.62680000  0.5 -0.0238409613
C  C324  1  0.45480000  0.09150000  0.60360000  0.5 -0.08973577
C  C325  1  0.54170000  0.62680000  0.04940000  0.5 -0.0238409613
C  C326  1  0.54520000  0.60360000  0.09150000  0.5 -0.08973577
C  C327  1  0.45830000  0.37320000  0.04940000  0.5 -0.0238409613
C  C328  1  0.45480000  0.39640000  0.09150000  0.5 -0.08973577
C  C329  1  0.54170000  0.37320000  0.95060000  0.5 -0.0238409613
C  C330  1  0.54520000  0.39640000  0.90850000  0.5 -0.08973577
C  C331  1  0.45830000  0.62680000  0.95060000  0.5 -0.0238409613
C  C332  1  0.45480000  0.60360000  0.90850000  0.5 -0.08973577
C  C333  1  0.62680000  0.95060000  0.45830000  0.5 -0.0238409613
C  C334  1  0.60360000  0.90850000  0.45480000  0.5 -0.08973577
C  C335  1  0.37320000  0.95060000  0.54170000  0.5 -0.0238409613
C  C336  1  0.39640000  0.90850000  0.54520000  0.5 -0.08973577
C  C337  1  0.37320000  0.04940000  0.45830000  0.5 -0.0238409613
C  C338  1  0.39640000  0.09150000  0.45480000  0.5 -0.08973577
C  C339  1  0.62680000  0.04940000  0.54170000  0.5 -0.0238409613
C  C340  1  0.60360000  0.09150000  0.54520000  0.5 -0.08973577
C  C341  1  0.95060000  0.54170000  0.37320000  0.5 -0.0238409613
C  C342  1  0.90850000  0.54520000  0.39640000  0.5 -0.08973577
C  C343  1  0.95060000  0.45830000  0.62680000  0.5 -0.0238409613
C  C344  1  0.90850000  0.45480000  0.60360000  0.5 -0.08973577
C  C345  1  0.04940000  0.54170000  0.62680000  0.5 -0.0238409613
C  C346  1  0.09150000  0.54520000  0.60360000  0.5 -0.08973577
C  C347  1  0.04940000  0.45830000  0.37320000  0.5 -0.0238409613
C  C348  1  0.09150000  0.45480000  0.39640000  0.5 -0.08973577
C  C349  1  0.36040000  0.50000000  0.02590000  0.5 0.0311407039
C  C350  1  0.40820000  0.50000000  0.10950000  0.5 -0.3186683414
C  C351  1  0.33400000  0.50000000  0.98080000  0.5 -0.0980890339
C  C352  1  0.63960000  0.50000000  0.02590000  0.5 0.0311407039
C  C353  1  0.59180000  0.50000000  0.10950000  0.5 -0.3186683414
C  C354  1  0.66600000  0.50000000  0.98080000  0.5 -0.0980890339
C  C355  1  0.63960000  0.50000000  0.97410000  0.5 0.0311407039
C  C356  1  0.59180000  0.50000000  0.89050000  0.5 -0.3186683414
C  C357  1  0.66600000  0.50000000  0.01920000  0.5 -0.0980890339
C  C358  1  0.36040000  0.50000000  0.97410000  0.5 0.0311407039
C  C359  1  0.40820000  0.50000000  0.89050000  0.5 -0.3186683414
C  C360  1  0.33400000  0.50000000  0.01920000  0.5 -0.0980890339
C  C361  1  0.02590000  0.36040000  0.50000000  0.5 0.0311407039
C  C362  1  0.10950000  0.40820000  0.50000000  0.5 -0.3186683414
C  C363  1  0.98080000  0.33400000  0.50000000  0.5 -0.0980890339
C  C364  1  0.02590000  0.63960000  0.50000000  0.5 0.0311407039
C  C365  1  0.10950000  0.59180000  0.50000000  0.5 -0.3186683414
C  C366  1  0.98080000  0.66600000  0.50000000  0.5 -0.0980890339
C  C367  1  0.97410000  0.63960000  0.50000000  0.5 0.0311407039
C  C368  1  0.89050000  0.59180000  0.50000000  0.5 -0.3186683414
C  C369  1  0.01920000  0.66600000  0.50000000  0.5 -0.0980890339
C  C370  1  0.97410000  0.36040000  0.50000000  0.5 0.0311407039
C  C371  1  0.89050000  0.40820000  0.50000000  0.5 -0.3186683414
C  C372  1  0.01920000  0.33400000  0.50000000  0.5 -0.0980890339
C  C373  1  0.50000000  0.02590000  0.36040000  0.5 0.0311407039
C  C374  1  0.50000000  0.10950000  0.40820000  0.5 -0.3186683414
C  C375  1  0.50000000  0.98080000  0.33400000  0.5 -0.0980890339
C  C376  1  0.50000000  0.02590000  0.63960000  0.5 0.0311407039
C  C377  1  0.50000000  0.10950000  0.59180000  0.5 -0.3186683414
C  C378  1  0.50000000  0.98080000  0.66600000  0.5 -0.0980890339
C  C379  1  0.50000000  0.97410000  0.63960000  0.5 0.0311407039
C  C380  1  0.50000000  0.89050000  0.59180000  0.5 -0.3186683414
C  C381  1  0.50000000  0.01920000  0.66600000  0.5 -0.0980890339
C  C382  1  0.50000000  0.97410000  0.36040000  0.5 0.0311407039
C  C383  1  0.50000000  0.89050000  0.40820000  0.5 -0.3186683414
C  C384  1  0.50000000  0.01920000  0.33400000  0.5 -0.0980890339
C  C385  1  0.50000000  0.36040000  0.97410000  0.5 0.0311407039
C  C386  1  0.50000000  0.40820000  0.89050000  0.5 -0.3186683414
C  C387  1  0.50000000  0.33400000  0.01920000  0.5 -0.0980890339
C  C388  1  0.50000000  0.63960000  0.97410000  0.5 0.0311407039
C  C389  1  0.50000000  0.59180000  0.89050000  0.5 -0.3186683414
C  C390  1  0.50000000  0.66600000  0.01920000  0.5 -0.0980890339
C  C391  1  0.50000000  0.63960000  0.02590000  0.5 0.0311407039
C  C392  1  0.50000000  0.59180000  0.10950000  0.5 -0.3186683414
C  C393  1  0.50000000  0.66600000  0.98080000  0.5 -0.0980890339
C  C394  1  0.50000000  0.36040000  0.02590000  0.5 0.0311407039
C  C395  1  0.50000000  0.40820000  0.10950000  0.5 -0.3186683414
C  C396  1  0.50000000  0.33400000  0.98080000  0.5 -0.0980890339
C  C397  1  0.36040000  0.02590000  0.50000000  0.5 0.0311407039
C  C398  1  0.40820000  0.10950000  0.50000000  0.5 -0.3186683414
C  C399  1  0.33400000  0.98080000  0.50000000  0.5 -0.0980890339
C  C400  1  0.63960000  0.02590000  0.50000000  0.5 0.0311407039
C  C401  1  0.59180000  0.10950000  0.50000000  0.5 -0.3186683414
C  C402  1  0.66600000  0.98080000  0.50000000  0.5 -0.0980890339
C  C403  1  0.63960000  0.97410000  0.50000000  0.5 0.0311407039
C  C404  1  0.59180000  0.89050000  0.50000000  0.5 -0.3186683414
C  C405  1  0.66600000  0.01920000  0.50000000  0.5 -0.0980890339
C  C406  1  0.36040000  0.97410000  0.50000000  0.5 0.0311407039
C  C407  1  0.40820000  0.89050000  0.50000000  0.5 -0.3186683414
C  C408  1  0.33400000  0.01920000  0.50000000  0.5 -0.0980890339
C  C409  1  0.02590000  0.50000000  0.63960000  0.5 0.0311407039
C  C410  1  0.10950000  0.50000000  0.59180000  0.5 -0.3186683414
C  C411  1  0.98080000  0.50000000  0.66600000  0.5 -0.0980890339
C  C412  1  0.02590000  0.50000000  0.36040000  0.5 0.0311407039
C  C413  1  0.10950000  0.50000000  0.40820000  0.5 -0.3186683414
C  C414  1  0.98080000  0.50000000  0.33400000  0.5 -0.0980890339
C  C415  1  0.97410000  0.50000000  0.36040000  0.5 0.0311407039
C  C416  1  0.89050000  0.50000000  0.40820000  0.5 -0.3186683414
C  C417  1  0.01920000  0.50000000  0.33400000  0.5 -0.0980890339
C  C418  1  0.97410000  0.50000000  0.63960000  0.5 0.0311407039
C  C419  1  0.89050000  0.50000000  0.59180000  0.5 -0.3186683414
C  C420  1  0.01920000  0.50000000  0.66600000  0.5 -0.0980890339
C  C421  1  0.41000000  0.41000000  0.11180000  0.5 0.0510740926
C  C422  1  0.41100000  0.41100000  0.16320000  0.5 -0.3694590301
C  C423  1  0.59000000  0.59000000  0.11180000  0.5 0.0510740926
C  C424  1  0.58900000  0.58900000  0.16320000  0.5 -0.3694590301
C  C425  1  0.59000000  0.41000000  0.88820000  0.5 0.0510740926
C  C426  1  0.58900000  0.41100000  0.83680000  0.5 -0.3694590301
C  C427  1  0.41000000  0.59000000  0.88820000  0.5 0.0510740926
C  C428  1  0.41100000  0.58900000  0.83680000  0.5 -0.3694590301
C  C429  1  0.11180000  0.41000000  0.41000000  0.5 0.0510740926
C  C430  1  0.16320000  0.41100000  0.41100000  0.5 -0.3694590301
C  C431  1  0.11180000  0.59000000  0.59000000  0.5 0.0510740926
C  C432  1  0.16320000  0.58900000  0.58900000  0.5 -0.3694590301
C  C433  1  0.88820000  0.59000000  0.41000000  0.5 0.0510740926
C  C434  1  0.83680000  0.58900000  0.41100000  0.5 -0.3694590301
C  C435  1  0.88820000  0.41000000  0.59000000  0.5 0.0510740926
C  C436  1  0.83680000  0.41100000  0.58900000  0.5 -0.3694590301
C  C437  1  0.41000000  0.11180000  0.41000000  0.5 0.0510740926
C  C438  1  0.41100000  0.16320000  0.41100000  0.5 -0.3694590301
C  C439  1  0.59000000  0.11180000  0.59000000  0.5 0.0510740926
C  C440  1  0.58900000  0.16320000  0.58900000  0.5 -0.3694590301
C  C441  1  0.41000000  0.88820000  0.59000000  0.5 0.0510740926
C  C442  1  0.41100000  0.83680000  0.58900000  0.5 -0.3694590301
C  C443  1  0.59000000  0.88820000  0.41000000  0.5 0.0510740926
C  C444  1  0.58900000  0.83680000  0.41100000  0.5 -0.3694590301
C  C445  1  0.41000000  0.41000000  0.88820000  0.5 0.0510740926
C  C446  1  0.41100000  0.41100000  0.83680000  0.5 -0.3694590301
C  C447  1  0.59000000  0.59000000  0.88820000  0.5 0.0510740926
C  C448  1  0.58900000  0.58900000  0.83680000  0.5 -0.3694590301
C  C449  1  0.41000000  0.59000000  0.11180000  0.5 0.0510740926
C  C450  1  0.41100000  0.58900000  0.16320000  0.5 -0.3694590301
C  C451  1  0.59000000  0.41000000  0.11180000  0.5 0.0510740926
C  C452  1  0.58900000  0.41100000  0.16320000  0.5 -0.3694590301
C  C453  1  0.41000000  0.11180000  0.59000000  0.5 0.0510740926
C  C454  1  0.41100000  0.16320000  0.58900000  0.5 -0.3694590301
C  C455  1  0.59000000  0.11180000  0.41000000  0.5 0.0510740926
C  C456  1  0.58900000  0.16320000  0.41100000  0.5 -0.3694590301
C  C457  1  0.59000000  0.88820000  0.59000000  0.5 0.0510740926
C  C458  1  0.58900000  0.83680000  0.58900000  0.5 -0.3694590301
C  C459  1  0.41000000  0.88820000  0.41000000  0.5 0.0510740926
C  C460  1  0.41100000  0.83680000  0.41100000  0.5 -0.3694590301
C  C461  1  0.11180000  0.41000000  0.59000000  0.5 0.0510740926
C  C462  1  0.16320000  0.41100000  0.58900000  0.5 -0.3694590301
C  C463  1  0.11180000  0.59000000  0.41000000  0.5 0.0510740926
C  C464  1  0.16320000  0.58900000  0.41100000  0.5 -0.3694590301
C  C465  1  0.88820000  0.41000000  0.41000000  0.5 0.0510740926
C  C466  1  0.83680000  0.41100000  0.41100000  0.5 -0.3694590301
C  C467  1  0.88820000  0.59000000  0.59000000  0.5 0.0510740926
C  C468  1  0.83680000  0.58900000  0.58900000  0.5 -0.3694590301
C  C469  1  0.30370000  0.33600000  0.16440000  0.58 -0.1392414689
C  C470  1  0.69630000  0.66400000  0.16440000  0.58 -0.1392414689
C  C471  1  0.69630000  0.33600000  0.83560000  0.58 -0.1392414689
C  C472  1  0.30370000  0.66400000  0.83560000  0.58 -0.1392414689
C  C473  1  0.16440000  0.30370000  0.33600000  0.58 -0.1392414689
C  C474  1  0.16440000  0.69630000  0.66400000  0.58 -0.1392414689
C  C475  1  0.83560000  0.69630000  0.33600000  0.58 -0.1392414689
C  C476  1  0.83560000  0.30370000  0.66400000  0.58 -0.1392414689
C  C477  1  0.33600000  0.16440000  0.30370000  0.58 -0.1392414689
C  C478  1  0.66400000  0.16440000  0.69630000  0.58 -0.1392414689
C  C479  1  0.33600000  0.83560000  0.69630000  0.58 -0.1392414689
C  C480  1  0.66400000  0.83560000  0.30370000  0.58 -0.1392414689
C  C481  1  0.33600000  0.30370000  0.83560000  0.58 -0.1392414689
C  C482  1  0.66400000  0.69630000  0.83560000  0.58 -0.1392414689
C  C483  1  0.33600000  0.69630000  0.16440000  0.58 -0.1392414689
C  C484  1  0.66400000  0.30370000  0.16440000  0.58 -0.1392414689
C  C485  1  0.30370000  0.16440000  0.66400000  0.58 -0.1392414689
C  C486  1  0.69630000  0.16440000  0.33600000  0.58 -0.1392414689
C  C487  1  0.69630000  0.83560000  0.66400000  0.58 -0.1392414689
C  C488  1  0.30370000  0.83560000  0.33600000  0.58 -0.1392414689
C  C489  1  0.16440000  0.33600000  0.69630000  0.58 -0.1392414689
C  C490  1  0.16440000  0.66400000  0.30370000  0.58 -0.1392414689
C  C491  1  0.83560000  0.33600000  0.30370000  0.58 -0.1392414689
C  C492  1  0.83560000  0.66400000  0.69630000  0.58 -0.1392414689
C  C493  1  0.69630000  0.66400000  0.83560000  0.58 -0.1392414689
C  C494  1  0.30370000  0.33600000  0.83560000  0.58 -0.1392414689
C  C495  1  0.30370000  0.66400000  0.16440000  0.58 -0.1392414689
C  C496  1  0.69630000  0.33600000  0.16440000  0.58 -0.1392414689
C  C497  1  0.83560000  0.69630000  0.66400000  0.58 -0.1392414689
C  C498  1  0.83560000  0.30370000  0.33600000  0.58 -0.1392414689
C  C499  1  0.16440000  0.30370000  0.66400000  0.58 -0.1392414689
C  C500  1  0.16440000  0.69630000  0.33600000  0.58 -0.1392414689
C  C501  1  0.66400000  0.83560000  0.69630000  0.58 -0.1392414689
C  C502  1  0.33600000  0.83560000  0.30370000  0.58 -0.1392414689
C  C503  1  0.66400000  0.16440000  0.30370000  0.58 -0.1392414689
C  C504  1  0.33600000  0.16440000  0.69630000  0.58 -0.1392414689
C  C505  1  0.66400000  0.69630000  0.16440000  0.58 -0.1392414689
C  C506  1  0.33600000  0.30370000  0.16440000  0.58 -0.1392414689
C  C507  1  0.66400000  0.30370000  0.83560000  0.58 -0.1392414689
C  C508  1  0.33600000  0.69630000  0.83560000  0.58 -0.1392414689
C  C509  1  0.69630000  0.83560000  0.33600000  0.58 -0.1392414689
C  C510  1  0.30370000  0.83560000  0.66400000  0.58 -0.1392414689
C  C511  1  0.30370000  0.16440000  0.33600000  0.58 -0.1392414689
C  C512  1  0.69630000  0.16440000  0.66400000  0.58 -0.1392414689
C  C513  1  0.83560000  0.66400000  0.30370000  0.58 -0.1392414689
C  C514  1  0.83560000  0.33600000  0.69630000  0.58 -0.1392414689
C  C515  1  0.16440000  0.66400000  0.69630000  0.58 -0.1392414689
C  C516  1  0.16440000  0.33600000  0.30370000  0.58 -0.1392414689
C  C517  1  0.32224000  0.32224000  0.09463000  0.58 0.0510740926
C  C518  1  0.67776000  0.67776000  0.09463000  0.58 0.0510740926
C  C519  1  0.67776000  0.32224000  0.90537000  0.58 0.0510740926
C  C520  1  0.32224000  0.67776000  0.90537000  0.58 0.0510740926
C  C521  1  0.09463000  0.32224000  0.32224000  0.58 0.0510740926
C  C522  1  0.09463000  0.67776000  0.67776000  0.58 0.0510740926
C  C523  1  0.90537000  0.67776000  0.32224000  0.58 0.0510740926
C  C524  1  0.90537000  0.32224000  0.67776000  0.58 0.0510740926
C  C525  1  0.32224000  0.09463000  0.32224000  0.58 0.0510740926
C  C526  1  0.67776000  0.09463000  0.67776000  0.58 0.0510740926
C  C527  1  0.32224000  0.90537000  0.67776000  0.58 0.0510740926
C  C528  1  0.67776000  0.90537000  0.32224000  0.58 0.0510740926
C  C529  1  0.32224000  0.32224000  0.90537000  0.58 0.0510740926
C  C530  1  0.67776000  0.67776000  0.90537000  0.58 0.0510740926
C  C531  1  0.32224000  0.67776000  0.09463000  0.58 0.0510740926
C  C532  1  0.67776000  0.32224000  0.09463000  0.58 0.0510740926
C  C533  1  0.32224000  0.09463000  0.67776000  0.58 0.0510740926
C  C534  1  0.67776000  0.09463000  0.32224000  0.58 0.0510740926
C  C535  1  0.67776000  0.90537000  0.67776000  0.58 0.0510740926
C  C536  1  0.32224000  0.90537000  0.32224000  0.58 0.0510740926
C  C537  1  0.09463000  0.32224000  0.67776000  0.58 0.0510740926
C  C538  1  0.09463000  0.67776000  0.32224000  0.58 0.0510740926
C  C539  1  0.90537000  0.32224000  0.32224000  0.58 0.0510740926
C  C540  1  0.90537000  0.67776000  0.67776000  0.58 0.0510740926
C  C541  1  0.18440000  0.32530000  0.15140000  0.76 -0.0579258339
C  C542  1  0.81560000  0.67470000  0.15140000  0.76 -0.0579258339
C  C543  1  0.81560000  0.32530000  0.84860000  0.76 -0.0579258339
C  C544  1  0.18440000  0.67470000  0.84860000  0.76 -0.0579258339
C  C545  1  0.15140000  0.18440000  0.32530000  0.76 -0.0579258339
C  C546  1  0.15140000  0.81560000  0.67470000  0.76 -0.0579258339
C  C547  1  0.84860000  0.81560000  0.32530000  0.76 -0.0579258339
C  C548  1  0.84860000  0.18440000  0.67470000  0.76 -0.0579258339
C  C549  1  0.32530000  0.15140000  0.18440000  0.76 -0.0579258339
C  C550  1  0.67470000  0.15140000  0.81560000  0.76 -0.0579258339
C  C551  1  0.32530000  0.84860000  0.81560000  0.76 -0.0579258339
C  C552  1  0.67470000  0.84860000  0.18440000  0.76 -0.0579258339
C  C553  1  0.32530000  0.18440000  0.84860000  0.76 -0.0579258339
C  C554  1  0.67470000  0.81560000  0.84860000  0.76 -0.0579258339
C  C555  1  0.32530000  0.81560000  0.15140000  0.76 -0.0579258339
C  C556  1  0.67470000  0.18440000  0.15140000  0.76 -0.0579258339
C  C557  1  0.18440000  0.15140000  0.67470000  0.76 -0.0579258339
C  C558  1  0.81560000  0.15140000  0.32530000  0.76 -0.0579258339
C  C559  1  0.81560000  0.84860000  0.67470000  0.76 -0.0579258339
C  C560  1  0.18440000  0.84860000  0.32530000  0.76 -0.0579258339
C  C561  1  0.15140000  0.32530000  0.81560000  0.76 -0.0579258339
C  C562  1  0.15140000  0.67470000  0.18440000  0.76 -0.0579258339
C  C563  1  0.84860000  0.32530000  0.18440000  0.76 -0.0579258339
C  C564  1  0.84860000  0.67470000  0.81560000  0.76 -0.0579258339
C  C565  1  0.81560000  0.67470000  0.84860000  0.76 -0.0579258339
C  C566  1  0.18440000  0.32530000  0.84860000  0.76 -0.0579258339
C  C567  1  0.18440000  0.67470000  0.15140000  0.76 -0.0579258339
C  C568  1  0.81560000  0.32530000  0.15140000  0.76 -0.0579258339
C  C569  1  0.84860000  0.81560000  0.67470000  0.76 -0.0579258339
C  C570  1  0.84860000  0.18440000  0.32530000  0.76 -0.0579258339
C  C571  1  0.15140000  0.18440000  0.67470000  0.76 -0.0579258339
C  C572  1  0.15140000  0.81560000  0.32530000  0.76 -0.0579258339
C  C573  1  0.67470000  0.84860000  0.81560000  0.76 -0.0579258339
C  C574  1  0.32530000  0.84860000  0.18440000  0.76 -0.0579258339
C  C575  1  0.67470000  0.15140000  0.18440000  0.76 -0.0579258339
C  C576  1  0.32530000  0.15140000  0.81560000  0.76 -0.0579258339
C  C577  1  0.67470000  0.81560000  0.15140000  0.76 -0.0579258339
C  C578  1  0.32530000  0.18440000  0.15140000  0.76 -0.0579258339
C  C579  1  0.67470000  0.18440000  0.84860000  0.76 -0.0579258339
C  C580  1  0.32530000  0.81560000  0.84860000  0.76 -0.0579258339
C  C581  1  0.81560000  0.84860000  0.32530000  0.76 -0.0579258339
C  C582  1  0.18440000  0.84860000  0.67470000  0.76 -0.0579258339
C  C583  1  0.18440000  0.15140000  0.32530000  0.76 -0.0579258339
C  C584  1  0.81560000  0.15140000  0.67470000  0.76 -0.0579258339
C  C585  1  0.84860000  0.67470000  0.18440000  0.76 -0.0579258339
C  C586  1  0.84860000  0.32530000  0.81560000  0.76 -0.0579258339
C  C587  1  0.15140000  0.67470000  0.81560000  0.76 -0.0579258339
C  C588  1  0.15140000  0.32530000  0.18440000  0.76 -0.0579258339
C  C589  1  0.15010000  0.34100000  0.12430000  0.24 -0.0431906519
C  C590  1  0.84990000  0.65900000  0.12430000  0.24 -0.0431906519
C  C591  1  0.84990000  0.34100000  0.87570000  0.24 -0.0431906519
C  C592  1  0.15010000  0.65900000  0.87570000  0.24 -0.0431906519
C  C593  1  0.12430000  0.15010000  0.34100000  0.24 -0.0431906519
C  C594  1  0.12430000  0.84990000  0.65900000  0.24 -0.0431906519
C  C595  1  0.87570000  0.84990000  0.34100000  0.24 -0.0431906519
C  C596  1  0.87570000  0.15010000  0.65900000  0.24 -0.0431906519
C  C597  1  0.34100000  0.12430000  0.15010000  0.24 -0.0431906519
C  C598  1  0.65900000  0.12430000  0.84990000  0.24 -0.0431906519
C  C599  1  0.34100000  0.87570000  0.84990000  0.24 -0.0431906519
C  C600  1  0.65900000  0.87570000  0.15010000  0.24 -0.0431906519
C  C601  1  0.34100000  0.15010000  0.87570000  0.24 -0.0431906519
C  C602  1  0.65900000  0.84990000  0.87570000  0.24 -0.0431906519
C  C603  1  0.34100000  0.84990000  0.12430000  0.24 -0.0431906519
C  C604  1  0.65900000  0.15010000  0.12430000  0.24 -0.0431906519
C  C605  1  0.15010000  0.12430000  0.65900000  0.24 -0.0431906519
C  C606  1  0.84990000  0.12430000  0.34100000  0.24 -0.0431906519
C  C607  1  0.84990000  0.87570000  0.65900000  0.24 -0.0431906519
C  C608  1  0.15010000  0.87570000  0.34100000  0.24 -0.0431906519
C  C609  1  0.12430000  0.34100000  0.84990000  0.24 -0.0431906519
C  C610  1  0.12430000  0.65900000  0.15010000  0.24 -0.0431906519
C  C611  1  0.87570000  0.34100000  0.15010000  0.24 -0.0431906519
C  C612  1  0.87570000  0.65900000  0.84990000  0.24 -0.0431906519
C  C613  1  0.84990000  0.65900000  0.87570000  0.24 -0.0431906519
C  C614  1  0.15010000  0.34100000  0.87570000  0.24 -0.0431906519
C  C615  1  0.15010000  0.65900000  0.12430000  0.24 -0.0431906519
C  C616  1  0.84990000  0.34100000  0.12430000  0.24 -0.0431906519
C  C617  1  0.87570000  0.84990000  0.65900000  0.24 -0.0431906519
C  C618  1  0.87570000  0.15010000  0.34100000  0.24 -0.0431906519
C  C619  1  0.12430000  0.15010000  0.65900000  0.24 -0.0431906519
C  C620  1  0.12430000  0.84990000  0.34100000  0.24 -0.0431906519
C  C621  1  0.65900000  0.87570000  0.84990000  0.24 -0.0431906519
C  C622  1  0.34100000  0.87570000  0.15010000  0.24 -0.0431906519
C  C623  1  0.65900000  0.12430000  0.15010000  0.24 -0.0431906519
C  C624  1  0.34100000  0.12430000  0.84990000  0.24 -0.0431906519
C  C625  1  0.65900000  0.84990000  0.12430000  0.24 -0.0431906519
C  C626  1  0.34100000  0.15010000  0.12430000  0.24 -0.0431906519
C  C627  1  0.65900000  0.15010000  0.87570000  0.24 -0.0431906519
C  C628  1  0.34100000  0.84990000  0.87570000  0.24 -0.0431906519
C  C629  1  0.84990000  0.87570000  0.34100000  0.24 -0.0431906519
C  C630  1  0.15010000  0.87570000  0.65900000  0.24 -0.0431906519
C  C631  1  0.15010000  0.12430000  0.34100000  0.24 -0.0431906519
C  C632  1  0.84990000  0.12430000  0.65900000  0.24 -0.0431906519
C  C633  1  0.87570000  0.65900000  0.15010000  0.24 -0.0431906519
C  C634  1  0.87570000  0.34100000  0.84990000  0.24 -0.0431906519
C  C635  1  0.12430000  0.65900000  0.84990000  0.24 -0.0431906519
C  C636  1  0.12430000  0.34100000  0.15010000  0.24 -0.0431906519
N  N1  1  0.26110000  0.46120000  0.12280000  1.0 -0.3441391359
N  N2  1  0.19770000  0.37180000  0.14350000  1.0 -0.2467913219
N  N3  1  0.22610000  0.39360000  0.03900000  1.0 -0.3274189626
N  N4  1  0.73890000  0.53880000  0.12280000  1.0 -0.3441391359
N  N5  1  0.80230000  0.62820000  0.14350000  1.0 -0.2467913219
N  N6  1  0.77390000  0.60640000  0.03900000  1.0 -0.3274189626
N  N7  1  0.73890000  0.46120000  0.87720000  1.0 -0.3441391359
N  N8  1  0.80230000  0.37180000  0.85650000  1.0 -0.2467913219
N  N9  1  0.77390000  0.39360000  0.96100000  1.0 -0.3274189626
N  N10  1  0.26110000  0.53880000  0.87720000  1.0 -0.3441391359
N  N11  1  0.19770000  0.62820000  0.85650000  1.0 -0.2467913219
N  N12  1  0.22610000  0.60640000  0.96100000  1.0 -0.3274189626
N  N13  1  0.12280000  0.26110000  0.46120000  1.0 -0.3441391359
N  N14  1  0.14350000  0.19770000  0.37180000  1.0 -0.2467913219
N  N15  1  0.03900000  0.22610000  0.39360000  1.0 -0.3274189626
N  N16  1  0.12280000  0.73890000  0.53880000  1.0 -0.3441391359
N  N17  1  0.14350000  0.80230000  0.62820000  1.0 -0.2467913219
N  N18  1  0.03900000  0.77390000  0.60640000  1.0 -0.3274189626
N  N19  1  0.87720000  0.73890000  0.46120000  1.0 -0.3441391359
N  N20  1  0.85650000  0.80230000  0.37180000  1.0 -0.2467913219
N  N21  1  0.96100000  0.77390000  0.39360000  1.0 -0.3274189626
N  N22  1  0.87720000  0.26110000  0.53880000  1.0 -0.3441391359
N  N23  1  0.85650000  0.19770000  0.62820000  1.0 -0.2467913219
N  N24  1  0.96100000  0.22610000  0.60640000  1.0 -0.3274189626
N  N25  1  0.46120000  0.12280000  0.26110000  1.0 -0.3441391359
N  N26  1  0.37180000  0.14350000  0.19770000  1.0 -0.2467913219
N  N27  1  0.39360000  0.03900000  0.22610000  1.0 -0.3274189626
N  N28  1  0.53880000  0.12280000  0.73890000  1.0 -0.3441391359
N  N29  1  0.62820000  0.14350000  0.80230000  1.0 -0.2467913219
N  N30  1  0.60640000  0.03900000  0.77390000  1.0 -0.3274189626
N  N31  1  0.46120000  0.87720000  0.73890000  1.0 -0.3441391359
N  N32  1  0.37180000  0.85650000  0.80230000  1.0 -0.2467913219
N  N33  1  0.39360000  0.96100000  0.77390000  1.0 -0.3274189626
N  N34  1  0.53880000  0.87720000  0.26110000  1.0 -0.3441391359
N  N35  1  0.62820000  0.85650000  0.19770000  1.0 -0.2467913219
N  N36  1  0.60640000  0.96100000  0.22610000  1.0 -0.3274189626
N  N37  1  0.46120000  0.26110000  0.87720000  1.0 -0.3441391359
N  N38  1  0.37180000  0.19770000  0.85650000  1.0 -0.2467913219
N  N39  1  0.39360000  0.22610000  0.96100000  1.0 -0.3274189626
N  N40  1  0.53880000  0.73890000  0.87720000  1.0 -0.3441391359
N  N41  1  0.62820000  0.80230000  0.85650000  1.0 -0.2467913219
N  N42  1  0.60640000  0.77390000  0.96100000  1.0 -0.3274189626
N  N43  1  0.46120000  0.73890000  0.12280000  1.0 -0.3441391359
N  N44  1  0.37180000  0.80230000  0.14350000  1.0 -0.2467913219
N  N45  1  0.39360000  0.77390000  0.03900000  1.0 -0.3274189626
N  N46  1  0.53880000  0.26110000  0.12280000  1.0 -0.3441391359
N  N47  1  0.62820000  0.19770000  0.14350000  1.0 -0.2467913219
N  N48  1  0.60640000  0.22610000  0.03900000  1.0 -0.3274189626
N  N49  1  0.26110000  0.12280000  0.53880000  1.0 -0.3441391359
N  N50  1  0.19770000  0.14350000  0.62820000  1.0 -0.2467913219
N  N51  1  0.22610000  0.03900000  0.60640000  1.0 -0.3274189626
N  N52  1  0.73890000  0.12280000  0.46120000  1.0 -0.3441391359
N  N53  1  0.80230000  0.14350000  0.37180000  1.0 -0.2467913219
N  N54  1  0.77390000  0.03900000  0.39360000  1.0 -0.3274189626
N  N55  1  0.73890000  0.87720000  0.53880000  1.0 -0.3441391359
N  N56  1  0.80230000  0.85650000  0.62820000  1.0 -0.2467913219
N  N57  1  0.77390000  0.96100000  0.60640000  1.0 -0.3274189626
N  N58  1  0.26110000  0.87720000  0.46120000  1.0 -0.3441391359
N  N59  1  0.19770000  0.85650000  0.37180000  1.0 -0.2467913219
N  N60  1  0.22610000  0.96100000  0.39360000  1.0 -0.3274189626
N  N61  1  0.12280000  0.46120000  0.73890000  1.0 -0.3441391359
N  N62  1  0.14350000  0.37180000  0.80230000  1.0 -0.2467913219
N  N63  1  0.03900000  0.39360000  0.77390000  1.0 -0.3274189626
N  N64  1  0.12280000  0.53880000  0.26110000  1.0 -0.3441391359
N  N65  1  0.14350000  0.62820000  0.19770000  1.0 -0.2467913219
N  N66  1  0.03900000  0.60640000  0.22610000  1.0 -0.3274189626
N  N67  1  0.87720000  0.46120000  0.26110000  1.0 -0.3441391359
N  N68  1  0.85650000  0.37180000  0.19770000  1.0 -0.2467913219
N  N69  1  0.96100000  0.39360000  0.22610000  1.0 -0.3274189626
N  N70  1  0.87720000  0.53880000  0.73890000  1.0 -0.3441391359
N  N71  1  0.85650000  0.62820000  0.80230000  1.0 -0.2467913219
N  N72  1  0.96100000  0.60640000  0.77390000  1.0 -0.3274189626
N  N73  1  0.73890000  0.53880000  0.87720000  1.0 -0.3441391359
N  N74  1  0.80230000  0.62820000  0.85650000  1.0 -0.2467913219
N  N75  1  0.77390000  0.60640000  0.96100000  1.0 -0.3274189626
N  N76  1  0.26110000  0.46120000  0.87720000  1.0 -0.3441391359
N  N77  1  0.19770000  0.37180000  0.85650000  1.0 -0.2467913219
N  N78  1  0.22610000  0.39360000  0.96100000  1.0 -0.3274189626
N  N79  1  0.26110000  0.53880000  0.12280000  1.0 -0.3441391359
N  N80  1  0.19770000  0.62820000  0.14350000  1.0 -0.2467913219
N  N81  1  0.22610000  0.60640000  0.03900000  1.0 -0.3274189626
N  N82  1  0.73890000  0.46120000  0.12280000  1.0 -0.3441391359
N  N83  1  0.80230000  0.37180000  0.14350000  1.0 -0.2467913219
N  N84  1  0.77390000  0.39360000  0.03900000  1.0 -0.3274189626
N  N85  1  0.87720000  0.73890000  0.53880000  1.0 -0.3441391359
N  N86  1  0.85650000  0.80230000  0.62820000  1.0 -0.2467913219
N  N87  1  0.96100000  0.77390000  0.60640000  1.0 -0.3274189626
N  N88  1  0.87720000  0.26110000  0.46120000  1.0 -0.3441391359
N  N89  1  0.85650000  0.19770000  0.37180000  1.0 -0.2467913219
N  N90  1  0.96100000  0.22610000  0.39360000  1.0 -0.3274189626
N  N91  1  0.12280000  0.26110000  0.53880000  1.0 -0.3441391359
N  N92  1  0.14350000  0.19770000  0.62820000  1.0 -0.2467913219
N  N93  1  0.03900000  0.22610000  0.60640000  1.0 -0.3274189626
N  N94  1  0.12280000  0.73890000  0.46120000  1.0 -0.3441391359
N  N95  1  0.14350000  0.80230000  0.37180000  1.0 -0.2467913219
N  N96  1  0.03900000  0.77390000  0.39360000  1.0 -0.3274189626
N  N97  1  0.53880000  0.87720000  0.73890000  1.0 -0.3441391359
N  N98  1  0.62820000  0.85650000  0.80230000  1.0 -0.2467913219
N  N99  1  0.60640000  0.96100000  0.77390000  1.0 -0.3274189626
N  N100  1  0.46120000  0.87720000  0.26110000  1.0 -0.3441391359
N  N101  1  0.37180000  0.85650000  0.19770000  1.0 -0.2467913219
N  N102  1  0.39360000  0.96100000  0.22610000  1.0 -0.3274189626
N  N103  1  0.53880000  0.12280000  0.26110000  1.0 -0.3441391359
N  N104  1  0.62820000  0.14350000  0.19770000  1.0 -0.2467913219
N  N105  1  0.60640000  0.03900000  0.22610000  1.0 -0.3274189626
N  N106  1  0.46120000  0.12280000  0.73890000  1.0 -0.3441391359
N  N107  1  0.37180000  0.14350000  0.80230000  1.0 -0.2467913219
N  N108  1  0.39360000  0.03900000  0.77390000  1.0 -0.3274189626
N  N109  1  0.53880000  0.73890000  0.12280000  1.0 -0.3441391359
N  N110  1  0.62820000  0.80230000  0.14350000  1.0 -0.2467913219
N  N111  1  0.60640000  0.77390000  0.03900000  1.0 -0.3274189626
N  N112  1  0.46120000  0.26110000  0.12280000  1.0 -0.3441391359
N  N113  1  0.37180000  0.19770000  0.14350000  1.0 -0.2467913219
N  N114  1  0.39360000  0.22610000  0.03900000  1.0 -0.3274189626
N  N115  1  0.53880000  0.26110000  0.87720000  1.0 -0.3441391359
N  N116  1  0.62820000  0.19770000  0.85650000  1.0 -0.2467913219
N  N117  1  0.60640000  0.22610000  0.96100000  1.0 -0.3274189626
N  N118  1  0.46120000  0.73890000  0.87720000  1.0 -0.3441391359
N  N119  1  0.37180000  0.80230000  0.85650000  1.0 -0.2467913219
N  N120  1  0.39360000  0.77390000  0.96100000  1.0 -0.3274189626
N  N121  1  0.73890000  0.87720000  0.46120000  1.0 -0.3441391359
N  N122  1  0.80230000  0.85650000  0.37180000  1.0 -0.2467913219
N  N123  1  0.77390000  0.96100000  0.39360000  1.0 -0.3274189626
N  N124  1  0.26110000  0.87720000  0.53880000  1.0 -0.3441391359
N  N125  1  0.19770000  0.85650000  0.62820000  1.0 -0.2467913219
N  N126  1  0.22610000  0.96100000  0.60640000  1.0 -0.3274189626
N  N127  1  0.26110000  0.12280000  0.46120000  1.0 -0.3441391359
N  N128  1  0.19770000  0.14350000  0.37180000  1.0 -0.2467913219
N  N129  1  0.22610000  0.03900000  0.39360000  1.0 -0.3274189626
N  N130  1  0.73890000  0.12280000  0.53880000  1.0 -0.3441391359
N  N131  1  0.80230000  0.14350000  0.62820000  1.0 -0.2467913219
N  N132  1  0.77390000  0.03900000  0.60640000  1.0 -0.3274189626
N  N133  1  0.87720000  0.53880000  0.26110000  1.0 -0.3441391359
N  N134  1  0.85650000  0.62820000  0.19770000  1.0 -0.2467913219
N  N135  1  0.96100000  0.60640000  0.22610000  1.0 -0.3274189626
N  N136  1  0.87720000  0.46120000  0.73890000  1.0 -0.3441391359
N  N137  1  0.85650000  0.37180000  0.80230000  1.0 -0.2467913219
N  N138  1  0.96100000  0.39360000  0.77390000  1.0 -0.3274189626
N  N139  1  0.12280000  0.53880000  0.73890000  1.0 -0.3441391359
N  N140  1  0.14350000  0.62820000  0.80230000  1.0 -0.2467913219
N  N141  1  0.03900000  0.60640000  0.77390000  1.0 -0.3274189626
N  N142  1  0.12280000  0.46120000  0.26110000  1.0 -0.3441391359
N  N143  1  0.14350000  0.37180000  0.19770000  1.0 -0.2467913219
N  N144  1  0.03900000  0.39360000  0.22610000  1.0 -0.3274189626
N  N145  1  0.31410000  0.36910000  0.10790000  0.42 -0.0766768038
N  N146  1  0.68590000  0.63090000  0.10790000  0.42 -0.0766768038
N  N147  1  0.68590000  0.36910000  0.89210000  0.42 -0.0766768038
N  N148  1  0.31410000  0.63090000  0.89210000  0.42 -0.0766768038
N  N149  1  0.10790000  0.31410000  0.36910000  0.42 -0.0766768038
N  N150  1  0.10790000  0.68590000  0.63090000  0.42 -0.0766768038
N  N151  1  0.89210000  0.68590000  0.36910000  0.42 -0.0766768038
N  N152  1  0.89210000  0.31410000  0.63090000  0.42 -0.0766768038
N  N153  1  0.36910000  0.10790000  0.31410000  0.42 -0.0766768038
N  N154  1  0.63090000  0.10790000  0.68590000  0.42 -0.0766768038
N  N155  1  0.36910000  0.89210000  0.68590000  0.42 -0.0766768038
N  N156  1  0.63090000  0.89210000  0.31410000  0.42 -0.0766768038
N  N157  1  0.36910000  0.31410000  0.89210000  0.42 -0.0766768038
N  N158  1  0.63090000  0.68590000  0.89210000  0.42 -0.0766768038
N  N159  1  0.36910000  0.68590000  0.10790000  0.42 -0.0766768038
N  N160  1  0.63090000  0.31410000  0.10790000  0.42 -0.0766768038
N  N161  1  0.31410000  0.10790000  0.63090000  0.42 -0.0766768038
N  N162  1  0.68590000  0.10790000  0.36910000  0.42 -0.0766768038
N  N163  1  0.68590000  0.89210000  0.63090000  0.42 -0.0766768038
N  N164  1  0.31410000  0.89210000  0.36910000  0.42 -0.0766768038
N  N165  1  0.10790000  0.36910000  0.68590000  0.42 -0.0766768038
N  N166  1  0.10790000  0.63090000  0.31410000  0.42 -0.0766768038
N  N167  1  0.89210000  0.36910000  0.31410000  0.42 -0.0766768038
N  N168  1  0.89210000  0.63090000  0.68590000  0.42 -0.0766768038
N  N169  1  0.68590000  0.63090000  0.89210000  0.42 -0.0766768038
N  N170  1  0.31410000  0.36910000  0.89210000  0.42 -0.0766768038
N  N171  1  0.31410000  0.63090000  0.10790000  0.42 -0.0766768038
N  N172  1  0.68590000  0.36910000  0.10790000  0.42 -0.0766768038
N  N173  1  0.89210000  0.68590000  0.63090000  0.42 -0.0766768038
N  N174  1  0.89210000  0.31410000  0.36910000  0.42 -0.0766768038
N  N175  1  0.10790000  0.31410000  0.63090000  0.42 -0.0766768038
N  N176  1  0.10790000  0.68590000  0.36910000  0.42 -0.0766768038
N  N177  1  0.63090000  0.89210000  0.68590000  0.42 -0.0766768038
N  N178  1  0.36910000  0.89210000  0.31410000  0.42 -0.0766768038
N  N179  1  0.63090000  0.10790000  0.31410000  0.42 -0.0766768038
N  N180  1  0.36910000  0.10790000  0.68590000  0.42 -0.0766768038
N  N181  1  0.63090000  0.68590000  0.10790000  0.42 -0.0766768038
N  N182  1  0.36910000  0.31410000  0.10790000  0.42 -0.0766768038
N  N183  1  0.63090000  0.31410000  0.89210000  0.42 -0.0766768038
N  N184  1  0.36910000  0.68590000  0.89210000  0.42 -0.0766768038
N  N185  1  0.68590000  0.89210000  0.36910000  0.42 -0.0766768038
N  N186  1  0.31410000  0.89210000  0.63090000  0.42 -0.0766768038
N  N187  1  0.31410000  0.10790000  0.36910000  0.42 -0.0766768038
N  N188  1  0.68590000  0.10790000  0.63090000  0.42 -0.0766768038
N  N189  1  0.89210000  0.63090000  0.31410000  0.42 -0.0766768038
N  N190  1  0.89210000  0.36910000  0.68590000  0.42 -0.0766768038
N  N191  1  0.10790000  0.63090000  0.68590000  0.42 -0.0766768038
N  N192  1  0.10790000  0.36910000  0.31410000  0.42 -0.0766768038
N  N193  1  0.29670000  0.35190000  0.11970000  0.58 0.0616765435
N  N194  1  0.70330000  0.64810000  0.11970000  0.58 0.0616765435
N  N195  1  0.70330000  0.35190000  0.88030000  0.58 0.0616765435
N  N196  1  0.29670000  0.64810000  0.88030000  0.58 0.0616765435
N  N197  1  0.11970000  0.29670000  0.35190000  0.58 0.0616765435
N  N198  1  0.11970000  0.70330000  0.64810000  0.58 0.0616765435
N  N199  1  0.88030000  0.70330000  0.35190000  0.58 0.0616765435
N  N200  1  0.88030000  0.29670000  0.64810000  0.58 0.0616765435
N  N201  1  0.35190000  0.11970000  0.29670000  0.58 0.0616765435
N  N202  1  0.64810000  0.11970000  0.70330000  0.58 0.0616765435
N  N203  1  0.35190000  0.88030000  0.70330000  0.58 0.0616765435
N  N204  1  0.64810000  0.88030000  0.29670000  0.58 0.0616765435
N  N205  1  0.35190000  0.29670000  0.88030000  0.58 0.0616765435
N  N206  1  0.64810000  0.70330000  0.88030000  0.58 0.0616765435
N  N207  1  0.35190000  0.70330000  0.11970000  0.58 0.0616765435
N  N208  1  0.64810000  0.29670000  0.11970000  0.58 0.0616765435
N  N209  1  0.29670000  0.11970000  0.64810000  0.58 0.0616765435
N  N210  1  0.70330000  0.11970000  0.35190000  0.58 0.0616765435
N  N211  1  0.70330000  0.88030000  0.64810000  0.58 0.0616765435
N  N212  1  0.29670000  0.88030000  0.35190000  0.58 0.0616765435
N  N213  1  0.11970000  0.35190000  0.70330000  0.58 0.0616765435
N  N214  1  0.11970000  0.64810000  0.29670000  0.58 0.0616765435
N  N215  1  0.88030000  0.35190000  0.29670000  0.58 0.0616765435
N  N216  1  0.88030000  0.64810000  0.70330000  0.58 0.0616765435
N  N217  1  0.70330000  0.64810000  0.88030000  0.58 0.0616765435
N  N218  1  0.29670000  0.35190000  0.88030000  0.58 0.0616765435
N  N219  1  0.29670000  0.64810000  0.11970000  0.58 0.0616765435
N  N220  1  0.70330000  0.35190000  0.11970000  0.58 0.0616765435
N  N221  1  0.88030000  0.70330000  0.64810000  0.58 0.0616765435
N  N222  1  0.88030000  0.29670000  0.35190000  0.58 0.0616765435
N  N223  1  0.11970000  0.29670000  0.64810000  0.58 0.0616765435
N  N224  1  0.11970000  0.70330000  0.35190000  0.58 0.0616765435
N  N225  1  0.64810000  0.88030000  0.70330000  0.58 0.0616765435
N  N226  1  0.35190000  0.88030000  0.29670000  0.58 0.0616765435
N  N227  1  0.64810000  0.11970000  0.29670000  0.58 0.0616765435
N  N228  1  0.35190000  0.11970000  0.70330000  0.58 0.0616765435
N  N229  1  0.64810000  0.70330000  0.11970000  0.58 0.0616765435
N  N230  1  0.35190000  0.29670000  0.11970000  0.58 0.0616765435
N  N231  1  0.64810000  0.29670000  0.88030000  0.58 0.0616765435
N  N232  1  0.35190000  0.70330000  0.88030000  0.58 0.0616765435
N  N233  1  0.70330000  0.88030000  0.35190000  0.58 0.0616765435
N  N234  1  0.29670000  0.88030000  0.64810000  0.58 0.0616765435
N  N235  1  0.29670000  0.11970000  0.35190000  0.58 0.0616765435
N  N236  1  0.70330000  0.11970000  0.64810000  0.58 0.0616765435
N  N237  1  0.88030000  0.64810000  0.29670000  0.58 0.0616765435
N  N238  1  0.88030000  0.35190000  0.70330000  0.58 0.0616765435
N  N239  1  0.11970000  0.64810000  0.70330000  0.58 0.0616765435
N  N240  1  0.11970000  0.35190000  0.29670000  0.58 0.0616765435
O  O1  1  0.35810000  0.41690000  0.02760000  0.5 -0.2640368462
O  O2  1  0.64190000  0.58310000  0.02760000  0.5 -0.2640368462
O  O3  1  0.64190000  0.41690000  0.97240000  0.5 -0.2667097023
O  O4  1  0.35810000  0.58310000  0.97240000  0.5 -0.2667097023
O  O5  1  0.02760000  0.35810000  0.41690000  0.5 -0.2640368462
O  O6  1  0.02760000  0.64190000  0.58310000  0.5 -0.2640368462
O  O7  1  0.97240000  0.64190000  0.41690000  0.5 -0.2667097023
O  O8  1  0.97240000  0.35810000  0.58310000  0.5 -0.2667097023
O  O9  1  0.41690000  0.02760000  0.35810000  0.5 -0.2640368462
O  O10  1  0.58310000  0.02760000  0.64190000  0.5 -0.2640368462
O  O11  1  0.41690000  0.97240000  0.64190000  0.5 -0.2667097023
O  O12  1  0.58310000  0.97240000  0.35810000  0.5 -0.2667097023
O  O13  1  0.41690000  0.35810000  0.97240000  0.5 -0.2667097023
O  O14  1  0.58310000  0.64190000  0.97240000  0.5 -0.2667097023
O  O15  1  0.41690000  0.64190000  0.02760000  0.5 -0.2640368462
O  O16  1  0.58310000  0.35810000  0.02760000  0.5 -0.2640368462
O  O17  1  0.35810000  0.02760000  0.58310000  0.5 -0.2640368462
O  O18  1  0.64190000  0.02760000  0.41690000  0.5 -0.2640368462
O  O19  1  0.64190000  0.97240000  0.58310000  0.5 -0.2667097023
O  O20  1  0.35810000  0.97240000  0.41690000  0.5 -0.2667097023
O  O21  1  0.02760000  0.41690000  0.64190000  0.5 -0.2640368462
O  O22  1  0.02760000  0.58310000  0.35810000  0.5 -0.2640368462
O  O23  1  0.97240000  0.41690000  0.35810000  0.5 -0.2667097023
O  O24  1  0.97240000  0.58310000  0.64190000  0.5 -0.2667097023
O  O25  1  0.64190000  0.58310000  0.97240000  0.5 -0.2667097023
O  O26  1  0.35810000  0.41690000  0.97240000  0.5 -0.2667097023
O  O27  1  0.35810000  0.58310000  0.02760000  0.5 -0.2640368462
O  O28  1  0.64190000  0.41690000  0.02760000  0.5 -0.2640368462
O  O29  1  0.97240000  0.64190000  0.58310000  0.5 -0.2667097023
O  O30  1  0.97240000  0.35810000  0.41690000  0.5 -0.2667097023
O  O31  1  0.02760000  0.35810000  0.58310000  0.5 -0.2640368462
O  O32  1  0.02760000  0.64190000  0.41690000  0.5 -0.2640368462
O  O33  1  0.58310000  0.97240000  0.64190000  0.5 -0.2667097023
O  O34  1  0.41690000  0.97240000  0.35810000  0.5 -0.2667097023
O  O35  1  0.58310000  0.02760000  0.35810000  0.5 -0.2640368462
O  O36  1  0.41690000  0.02760000  0.64190000  0.5 -0.2640368462
O  O37  1  0.58310000  0.64190000  0.02760000  0.5 -0.2640368462
O  O38  1  0.41690000  0.35810000  0.02760000  0.5 -0.2640368462
O  O39  1  0.58310000  0.35810000  0.97240000  0.5 -0.2667097023
O  O40  1  0.41690000  0.64190000  0.97240000  0.5 -0.2667097023
O  O41  1  0.64190000  0.97240000  0.41690000  0.5 -0.2667097023
O  O42  1  0.35810000  0.97240000  0.58310000  0.5 -0.2667097023
O  O43  1  0.35810000  0.02760000  0.41690000  0.5 -0.2640368462
O  O44  1  0.64190000  0.02760000  0.58310000  0.5 -0.2640368462
O  O45  1  0.97240000  0.58310000  0.35810000  0.5 -0.2667097023
O  O46  1  0.97240000  0.41690000  0.64190000  0.5 -0.2667097023
O  O47  1  0.02760000  0.58310000  0.64190000  0.5 -0.2640368462
O  O48  1  0.02760000  0.41690000  0.35810000  0.5 -0.2640368462
