# DDEC6 charges by PACMAN v1.1 (https://github.com/mtap-research/PACMAN-charge/)
data_d3ce00068k2_2_FSR_pacman
_symmetry_space_group_name_H-M   'P 1'
_cell_length_a   24.28190000
_cell_length_b   24.24190000
_cell_length_c   28.60930000
_cell_angle_alpha   90.00000000
_cell_angle_beta   90.00000000
_cell_angle_gamma   90.00000000
_symmetry_Int_Tables_number   1
_chemical_formula_structural   Zn4H24C46N8O17
_chemical_formula_sum   'Zn32 H192 C368 N64 O136'
_cell_volume   16840.56094639
_cell_formula_units_Z   8
loop_
 _symmetry_equiv_pos_site_id
 _symmetry_equiv_pos_as_xyz
  1  'x, y, z'
loop_
 _atom_site_type_symbol
 _atom_site_label
 _atom_site_symmetry_multiplicity
 _atom_site_fract_x
 _atom_site_fract_y
 _atom_site_fract_z
 _atom_site_occupancy
 _atom_site_charge
Zn  Zn1  1  0.50000000  0.25000000  0.57312000  1.0 0.6992043794
Zn  Zn2  1  0.00000000  0.75000000  0.07312000  1.0 0.6992043794
Zn  Zn3  1  0.50000000  0.75000000  0.92688000  1.0 0.6992043794
Zn  Zn4  1  0.00000000  0.25000000  0.42688000  1.0 0.6992043794
Zn  Zn5  1  0.50000000  0.75000000  0.42688000  1.0 0.6992043794
Zn  Zn6  1  0.00000000  0.25000000  0.92688000  1.0 0.6992043794
Zn  Zn7  1  0.50000000  0.25000000  0.07312000  1.0 0.6992043794
Zn  Zn8  1  0.00000000  0.75000000  0.57312000  1.0 0.6992043794
Zn  Zn9  1  0.50000000  0.25000000  0.67631000  1.0 0.7642423377
Zn  Zn10  1  0.00000000  0.75000000  0.17631000  1.0 0.7642423377
Zn  Zn11  1  0.50000000  0.75000000  0.82369000  1.0 0.7642423377
Zn  Zn12  1  0.00000000  0.25000000  0.32369000  1.0 0.7642423377
Zn  Zn13  1  0.50000000  0.75000000  0.32369000  1.0 0.7642423377
Zn  Zn14  1  0.00000000  0.25000000  0.82369000  1.0 0.7642423377
Zn  Zn15  1  0.50000000  0.25000000  0.17631000  1.0 0.7642423377
Zn  Zn16  1  0.00000000  0.75000000  0.67631000  1.0 0.7642423377
Zn  Zn17  1  0.44517000  0.30475000  0.87481000  1.0 0.6237142623
Zn  Zn18  1  0.05483000  0.69525000  0.37481000  1.0 0.6237142623
Zn  Zn19  1  0.55483000  0.80475000  0.62519000  1.0 0.6237142623
Zn  Zn20  1  0.94517000  0.19525000  0.12519000  1.0 0.6237142623
Zn  Zn21  1  0.94517000  0.80475000  0.37481000  1.0 0.6237142623
Zn  Zn22  1  0.55483000  0.19525000  0.87481000  1.0 0.6237142623
Zn  Zn23  1  0.05483000  0.30475000  0.12519000  1.0 0.6237142623
Zn  Zn24  1  0.44517000  0.69525000  0.62519000  1.0 0.6237142623
Zn  Zn25  1  0.55483000  0.69525000  0.12519000  1.0 0.6237142623
Zn  Zn26  1  0.94517000  0.30475000  0.62519000  1.0 0.6237142623
Zn  Zn27  1  0.44517000  0.19525000  0.37481000  1.0 0.6237142623
Zn  Zn28  1  0.05483000  0.80475000  0.87481000  1.0 0.6237142623
Zn  Zn29  1  0.05483000  0.19525000  0.62519000  1.0 0.6237142623
Zn  Zn30  1  0.44517000  0.80475000  0.12519000  1.0 0.6237142623
Zn  Zn31  1  0.94517000  0.69525000  0.87481000  1.0 0.6237142623
Zn  Zn32  1  0.55483000  0.30475000  0.37481000  1.0 0.6237142623
H  H1  1  0.43944000  0.19650000  0.48447000  1.0 0.1287879885
H  H2  1  0.06056000  0.80350000  0.98447000  1.0 0.1287879885
H  H3  1  0.56056000  0.69650000  0.01553000  1.0 0.1287879885
H  H4  1  0.93944000  0.30350000  0.51553000  1.0 0.1287879885
H  H5  1  0.93944000  0.69650000  0.98447000  1.0 0.1287879885
H  H6  1  0.56056000  0.30350000  0.48447000  1.0 0.1287879885
H  H7  1  0.06056000  0.19650000  0.51553000  1.0 0.1287879885
H  H8  1  0.43944000  0.80350000  0.01553000  1.0 0.1287879885
H  H9  1  0.56056000  0.80350000  0.51553000  1.0 0.1287879885
H  H10  1  0.93944000  0.19650000  0.01553000  1.0 0.1287879885
H  H11  1  0.43944000  0.30350000  0.98447000  1.0 0.1287879885
H  H12  1  0.06056000  0.69650000  0.48447000  1.0 0.1287879885
H  H13  1  0.06056000  0.30350000  0.01553000  1.0 0.1287879885
H  H14  1  0.43944000  0.69650000  0.51553000  1.0 0.1287879885
H  H15  1  0.93944000  0.80350000  0.48447000  1.0 0.1287879885
H  H16  1  0.56056000  0.19650000  0.98447000  1.0 0.1287879885
H  H17  1  0.44775000  0.31217000  0.76524000  1.0 0.1287879885
H  H18  1  0.05225000  0.68783000  0.26524000  1.0 0.1287879885
H  H19  1  0.55225000  0.81217000  0.73476000  1.0 0.1287879885
H  H20  1  0.94775000  0.18783000  0.23476000  1.0 0.1287879885
H  H21  1  0.94775000  0.81217000  0.26524000  1.0 0.1287879885
H  H22  1  0.55225000  0.18783000  0.76524000  1.0 0.1287879885
H  H23  1  0.05225000  0.31217000  0.23476000  1.0 0.1287879885
H  H24  1  0.44775000  0.68783000  0.73476000  1.0 0.1287879885
H  H25  1  0.55225000  0.68783000  0.23476000  1.0 0.1287879885
H  H26  1  0.94775000  0.31217000  0.73476000  1.0 0.1287879885
H  H27  1  0.44775000  0.18783000  0.26524000  1.0 0.1287879885
H  H28  1  0.05225000  0.81217000  0.76524000  1.0 0.1287879885
H  H29  1  0.05225000  0.18783000  0.73476000  1.0 0.1287879885
H  H30  1  0.44775000  0.81217000  0.23476000  1.0 0.1287879885
H  H31  1  0.94775000  0.68783000  0.76524000  1.0 0.1287879885
H  H32  1  0.55225000  0.31217000  0.26524000  1.0 0.1287879885
H  H33  1  0.54791000  0.52857000  0.57977000  0.5 0.1081707883
H  H34  1  0.95209000  0.47143000  0.07977000  0.5 0.1081707883
H  H35  1  0.45209000  0.02857000  0.92023000  0.5 0.1081707883
H  H36  1  0.04791000  0.97143000  0.42023000  0.5 0.1081707883
H  H37  1  0.04791000  0.02857000  0.07977000  0.5 0.1081707883
H  H38  1  0.45209000  0.97143000  0.57977000  0.5 0.1081707883
H  H39  1  0.95209000  0.52857000  0.42023000  0.5 0.1081707883
H  H40  1  0.54791000  0.47143000  0.92023000  0.5 0.1081707883
H  H41  1  0.45209000  0.47143000  0.42023000  0.5 0.1081707883
H  H42  1  0.04791000  0.52857000  0.92023000  0.5 0.1081707883
H  H43  1  0.54791000  0.97143000  0.07977000  0.5 0.1081707883
H  H44  1  0.95209000  0.02857000  0.57977000  0.5 0.1081707883
H  H45  1  0.95209000  0.97143000  0.92023000  0.5 0.1081707883
H  H46  1  0.54791000  0.02857000  0.42023000  0.5 0.1081707883
H  H47  1  0.04791000  0.47143000  0.57977000  0.5 0.1081707883
H  H48  1  0.45209000  0.52857000  0.07977000  0.5 0.1081707883
H  H49  1  0.42953000  0.51947000  0.67934000  0.5 0.0991837837
H  H50  1  0.07047000  0.48053000  0.17935000  0.5 0.0991837837
H  H51  1  0.57047000  0.01947000  0.82066000  0.5 0.0991837837
H  H52  1  0.92953000  0.98053000  0.32066000  0.5 0.0991837837
H  H53  1  0.92953000  0.01947000  0.17935000  0.5 0.0991837837
H  H54  1  0.57047000  0.98053000  0.67934000  0.5 0.0991837837
H  H55  1  0.07047000  0.51947000  0.32066000  0.5 0.0991837837
H  H56  1  0.42953000  0.48053000  0.82066000  0.5 0.0991837837
H  H57  1  0.57047000  0.48053000  0.32066000  0.5 0.0991837837
H  H58  1  0.92953000  0.51947000  0.82066000  0.5 0.0991837837
H  H59  1  0.42953000  0.98053000  0.17935000  0.5 0.0991837837
H  H60  1  0.07047000  0.01947000  0.67934000  0.5 0.0991837837
H  H61  1  0.07047000  0.98053000  0.82066000  0.5 0.0991837837
H  H62  1  0.42953000  0.01947000  0.32066000  0.5 0.0991837837
H  H63  1  0.92953000  0.48053000  0.67934000  0.5 0.0991837837
H  H64  1  0.57047000  0.51947000  0.17935000  0.5 0.0991837837
H  H65  1  0.43508000  0.42312000  0.67778000  0.5 0.1081707883
H  H66  1  0.06492000  0.57688000  0.17778000  0.5 0.1081707883
H  H67  1  0.56492000  0.92312000  0.82222000  0.5 0.1081707883
H  H68  1  0.93508000  0.07688000  0.32222000  0.5 0.1081707883
H  H69  1  0.93508000  0.92312000  0.17778000  0.5 0.1081707883
H  H70  1  0.56492000  0.07688000  0.67778000  0.5 0.1081707883
H  H71  1  0.06492000  0.42312000  0.32222000  0.5 0.1081707883
H  H72  1  0.43508000  0.57688000  0.82222000  0.5 0.1081707883
H  H73  1  0.56492000  0.57688000  0.32222000  0.5 0.1081707883
H  H74  1  0.93508000  0.42312000  0.82222000  0.5 0.1081707883
H  H75  1  0.43508000  0.07688000  0.17778000  0.5 0.1081707883
H  H76  1  0.06492000  0.92312000  0.67778000  0.5 0.1081707883
H  H77  1  0.06492000  0.07688000  0.82222000  0.5 0.1081707883
H  H78  1  0.43508000  0.92312000  0.32222000  0.5 0.1081707883
H  H79  1  0.93508000  0.57688000  0.67778000  0.5 0.1081707883
H  H80  1  0.56492000  0.42312000  0.17778000  0.5 0.1081707883
H  H81  1  0.68424000  0.22778000  0.66734000  0.5 0.0991837837
H  H82  1  0.81576000  0.77222000  0.16734000  0.5 0.0991837837
H  H83  1  0.31576000  0.72778000  0.83266000  0.5 0.0991837837
H  H84  1  0.18424000  0.27222000  0.33266000  0.5 0.0991837837
H  H85  1  0.18424000  0.72778000  0.16734000  0.5 0.0991837837
H  H86  1  0.31576000  0.27222000  0.66734000  0.5 0.0991837837
H  H87  1  0.81576000  0.22778000  0.33266000  0.5 0.0991837837
H  H88  1  0.68424000  0.77222000  0.83266000  0.5 0.0991837837
H  H89  1  0.31576000  0.77222000  0.33266000  0.5 0.0991837837
H  H90  1  0.18424000  0.22778000  0.83266000  0.5 0.0991837837
H  H91  1  0.68424000  0.27222000  0.16734000  0.5 0.0991837837
H  H92  1  0.81576000  0.72778000  0.66734000  0.5 0.0991837837
H  H93  1  0.81576000  0.27222000  0.83266000  0.5 0.0991837837
H  H94  1  0.68424000  0.72778000  0.33266000  0.5 0.0991837837
H  H95  1  0.18424000  0.77222000  0.66734000  0.5 0.0991837837
H  H96  1  0.31576000  0.22778000  0.16734000  0.5 0.0991837837
H  H97  1  0.77919000  0.24280000  0.66157000  0.5 0.0991837837
H  H98  1  0.72081000  0.75720000  0.16157000  0.5 0.0991837837
H  H99  1  0.22081000  0.74280000  0.83843000  0.5 0.0991837837
H  H100  1  0.27919000  0.25720000  0.33843000  0.5 0.0991837837
H  H101  1  0.27919000  0.74280000  0.16157000  0.5 0.0991837837
H  H102  1  0.22081000  0.25720000  0.66157000  0.5 0.0991837837
H  H103  1  0.72081000  0.24280000  0.33843000  0.5 0.0991837837
H  H104  1  0.77919000  0.75720000  0.83843000  0.5 0.0991837837
H  H105  1  0.22081000  0.75720000  0.33843000  0.5 0.0991837837
H  H106  1  0.27919000  0.24280000  0.83843000  0.5 0.0991837837
H  H107  1  0.77919000  0.25720000  0.16157000  0.5 0.0991837837
H  H108  1  0.72081000  0.74280000  0.66157000  0.5 0.0991837837
H  H109  1  0.72081000  0.25720000  0.83843000  0.5 0.0991837837
H  H110  1  0.77919000  0.74280000  0.33843000  0.5 0.0991837837
H  H111  1  0.27919000  0.75720000  0.66157000  0.5 0.0991837837
H  H112  1  0.22081000  0.24280000  0.16157000  0.5 0.0991837837
H  H113  1  0.75206000  0.36429000  0.56700000  0.5 0.0991837837
H  H114  1  0.74794000  0.63571000  0.06700000  0.5 0.0991837837
H  H115  1  0.24794000  0.86429000  0.93300000  0.5 0.0991837837
H  H116  1  0.25206000  0.13571000  0.43300000  0.5 0.0991837837
H  H117  1  0.25206000  0.86429000  0.06700000  0.5 0.0991837837
H  H118  1  0.24794000  0.13571000  0.56700000  0.5 0.0991837837
H  H119  1  0.74794000  0.36429000  0.43300000  0.5 0.0991837837
H  H120  1  0.75206000  0.63571000  0.93300000  0.5 0.0991837837
H  H121  1  0.24794000  0.63571000  0.43300000  0.5 0.0991837837
H  H122  1  0.25206000  0.36429000  0.93300000  0.5 0.0991837837
H  H123  1  0.75206000  0.13571000  0.06700000  0.5 0.0991837837
H  H124  1  0.74794000  0.86429000  0.56700000  0.5 0.0991837837
H  H125  1  0.74794000  0.13571000  0.93300000  0.5 0.0991837837
H  H126  1  0.75206000  0.86429000  0.43300000  0.5 0.0991837837
H  H127  1  0.25206000  0.63571000  0.56700000  0.5 0.0991837837
H  H128  1  0.24794000  0.36429000  0.06700000  0.5 0.0991837837
H  H129  1  0.66374000  0.13185000  0.78578000  0.5 0.1081707883
H  H130  1  0.83626000  0.86815000  0.28578000  0.5 0.1081707883
H  H131  1  0.33626000  0.63185000  0.71422000  0.5 0.1081707883
H  H132  1  0.16374000  0.36815000  0.21422000  0.5 0.1081707883
H  H133  1  0.16374000  0.63185000  0.28578000  0.5 0.1081707883
H  H134  1  0.33626000  0.36815000  0.78578000  0.5 0.1081707883
H  H135  1  0.83626000  0.13185000  0.21422000  0.5 0.1081707883
H  H136  1  0.66374000  0.86815000  0.71422000  0.5 0.1081707883
H  H137  1  0.33626000  0.86815000  0.21422000  0.5 0.1081707883
H  H138  1  0.16374000  0.13185000  0.71422000  0.5 0.1081707883
H  H139  1  0.66374000  0.36815000  0.28578000  0.5 0.1081707883
H  H140  1  0.83626000  0.63185000  0.78578000  0.5 0.1081707883
H  H141  1  0.83626000  0.36815000  0.71422000  0.5 0.1081707883
H  H142  1  0.66374000  0.63185000  0.21422000  0.5 0.1081707883
H  H143  1  0.16374000  0.86815000  0.78578000  0.5 0.1081707883
H  H144  1  0.33626000  0.13185000  0.28578000  0.5 0.1081707883
H  H145  1  0.70823000  0.20208000  0.74427000  0.5 0.1204059397
H  H146  1  0.79177000  0.79792000  0.24427000  0.5 0.1204059397
H  H147  1  0.29177000  0.70208000  0.75573000  0.5 0.1204059397
H  H148  1  0.20823000  0.29792000  0.25573000  0.5 0.1204059397
H  H149  1  0.20823000  0.70208000  0.24427000  0.5 0.1204059397
H  H150  1  0.29177000  0.29792000  0.74427000  0.5 0.1204059397
H  H151  1  0.79177000  0.20208000  0.25573000  0.5 0.1204059397
H  H152  1  0.70823000  0.79792000  0.75573000  0.5 0.1204059397
H  H153  1  0.29177000  0.79792000  0.25573000  0.5 0.1204059397
H  H154  1  0.20823000  0.20208000  0.75573000  0.5 0.1204059397
H  H155  1  0.70823000  0.29792000  0.24427000  0.5 0.1204059397
H  H156  1  0.79177000  0.70208000  0.74427000  0.5 0.1204059397
H  H157  1  0.79177000  0.29792000  0.75573000  0.5 0.1204059397
H  H158  1  0.70823000  0.70208000  0.25573000  0.5 0.1204059397
H  H159  1  0.20823000  0.79792000  0.74427000  0.5 0.1204059397
H  H160  1  0.29177000  0.20208000  0.24427000  0.5 0.1204059397
H  H161  1  0.60418000  0.07139000  0.74693000  0.5 0.1204059397
H  H162  1  0.89582000  0.92861000  0.24693000  0.5 0.1204059397
H  H163  1  0.39582000  0.57139000  0.75307000  0.5 0.1204059397
H  H164  1  0.10418000  0.42861000  0.25307000  0.5 0.1204059397
H  H165  1  0.10418000  0.57139000  0.24693000  0.5 0.1204059397
H  H166  1  0.39582000  0.42861000  0.74693000  0.5 0.1204059397
H  H167  1  0.89582000  0.07139000  0.25307000  0.5 0.1204059397
H  H168  1  0.60418000  0.92861000  0.75307000  0.5 0.1204059397
H  H169  1  0.39582000  0.92861000  0.25307000  0.5 0.1204059397
H  H170  1  0.10418000  0.07139000  0.75307000  0.5 0.1204059397
H  H171  1  0.60418000  0.42861000  0.24693000  0.5 0.1204059397
H  H172  1  0.89582000  0.57139000  0.74693000  0.5 0.1204059397
H  H173  1  0.89582000  0.42861000  0.75307000  0.5 0.1204059397
H  H174  1  0.60418000  0.57139000  0.25307000  0.5 0.1204059397
H  H175  1  0.10418000  0.92861000  0.74693000  0.5 0.1204059397
H  H176  1  0.39582000  0.07139000  0.24693000  0.5 0.1204059397
H  H177  1  0.68226000  0.36112000  0.50493000  0.5 0.1081707883
H  H178  1  0.81774000  0.63888000  0.00493000  0.5 0.1081707883
H  H179  1  0.31774000  0.86112000  0.99507000  0.5 0.1081707883
H  H180  1  0.18226000  0.13888000  0.49507000  0.5 0.1081707883
H  H181  1  0.18226000  0.86112000  0.00493000  0.5 0.1081707883
H  H182  1  0.31774000  0.13888000  0.50493000  0.5 0.1081707883
H  H183  1  0.81774000  0.36112000  0.49507000  0.5 0.1081707883
H  H184  1  0.68226000  0.63888000  0.99507000  0.5 0.1081707883
H  H185  1  0.31774000  0.63888000  0.49507000  0.5 0.1081707883
H  H186  1  0.18226000  0.36112000  0.99507000  0.5 0.1081707883
H  H187  1  0.68226000  0.13888000  0.00493000  0.5 0.1081707883
H  H188  1  0.81774000  0.86112000  0.50493000  0.5 0.1081707883
H  H189  1  0.81774000  0.13888000  0.99507000  0.5 0.1081707883
H  H190  1  0.68226000  0.86112000  0.49507000  0.5 0.1081707883
H  H191  1  0.18226000  0.63888000  0.50493000  0.5 0.1081707883
H  H192  1  0.31774000  0.36112000  0.00493000  0.5 0.1081707883
H  H193  1  0.62425000  0.42595000  0.46959000  0.5 0.1204059397
H  H194  1  0.87575000  0.57405000  0.96959000  0.5 0.1204059397
H  H195  1  0.37575000  0.92595000  0.03041000  0.5 0.1204059397
H  H196  1  0.12425000  0.07405000  0.53041000  0.5 0.1204059397
H  H197  1  0.12425000  0.92595000  0.96959000  0.5 0.1204059397
H  H198  1  0.37575000  0.07405000  0.46959000  0.5 0.1204059397
H  H199  1  0.87575000  0.42595000  0.53041000  0.5 0.1204059397
H  H200  1  0.62425000  0.57405000  0.03041000  0.5 0.1204059397
H  H201  1  0.37575000  0.57405000  0.53041000  0.5 0.1204059397
H  H202  1  0.12425000  0.42595000  0.03041000  0.5 0.1204059397
H  H203  1  0.62425000  0.07405000  0.96959000  0.5 0.1204059397
H  H204  1  0.87575000  0.92595000  0.46959000  0.5 0.1204059397
H  H205  1  0.87575000  0.07405000  0.03041000  0.5 0.1204059397
H  H206  1  0.62425000  0.92595000  0.53041000  0.5 0.1204059397
H  H207  1  0.12425000  0.57405000  0.46959000  0.5 0.1204059397
H  H208  1  0.37575000  0.42595000  0.96959000  0.5 0.1204059397
H  H209  1  0.55177000  0.46503000  0.51213000  0.5 0.1204059397
H  H210  1  0.94823000  0.53497000  0.01213000  0.5 0.1204059397
H  H211  1  0.44823000  0.96503000  0.98787000  0.5 0.1204059397
H  H212  1  0.05177000  0.03497000  0.48787000  0.5 0.1204059397
H  H213  1  0.05177000  0.96503000  0.01213000  0.5 0.1204059397
H  H214  1  0.44823000  0.03497000  0.51213000  0.5 0.1204059397
H  H215  1  0.94823000  0.46503000  0.48787000  0.5 0.1204059397
H  H216  1  0.55177000  0.53497000  0.98787000  0.5 0.1204059397
H  H217  1  0.44823000  0.53497000  0.48787000  0.5 0.1204059397
H  H218  1  0.05177000  0.46503000  0.98787000  0.5 0.1204059397
H  H219  1  0.55177000  0.03497000  0.01213000  0.5 0.1204059397
H  H220  1  0.94823000  0.96503000  0.51213000  0.5 0.1204059397
H  H221  1  0.94823000  0.03497000  0.98787000  0.5 0.1204059397
H  H222  1  0.55177000  0.96503000  0.48787000  0.5 0.1204059397
H  H223  1  0.05177000  0.53497000  0.51213000  0.5 0.1204059397
H  H224  1  0.44823000  0.46503000  0.01213000  0.5 0.1204059397
H  H225  1  0.77913000  0.20507000  0.66531000  0.5 0.0991837837
H  H226  1  0.72087000  0.79493000  0.16531000  0.5 0.0991837837
H  H227  1  0.22087000  0.70507000  0.83469000  0.5 0.0991837837
H  H228  1  0.27913000  0.29493000  0.33469000  0.5 0.0991837837
H  H229  1  0.27913000  0.70507000  0.16531000  0.5 0.0991837837
H  H230  1  0.22087000  0.29493000  0.66531000  0.5 0.0991837837
H  H231  1  0.72087000  0.20507000  0.33469000  0.5 0.0991837837
H  H232  1  0.77913000  0.79493000  0.83469000  0.5 0.0991837837
H  H233  1  0.22087000  0.79493000  0.33469000  0.5 0.0991837837
H  H234  1  0.27913000  0.20507000  0.83469000  0.5 0.0991837837
H  H235  1  0.77913000  0.29493000  0.16531000  0.5 0.0991837837
H  H236  1  0.72087000  0.70507000  0.66531000  0.5 0.0991837837
H  H237  1  0.72087000  0.29493000  0.83469000  0.5 0.0991837837
H  H238  1  0.77913000  0.70507000  0.33469000  0.5 0.0991837837
H  H239  1  0.27913000  0.79493000  0.66531000  0.5 0.0991837837
H  H240  1  0.22087000  0.20507000  0.16531000  0.5 0.0991837837
H  H241  1  0.76368000  0.32787000  0.57007000  0.5 0.0991837837
H  H242  1  0.73632000  0.67213000  0.07007000  0.5 0.0991837837
H  H243  1  0.23632000  0.82787000  0.92993000  0.5 0.0991837837
H  H244  1  0.26368000  0.17213000  0.42993000  0.5 0.0991837837
H  H245  1  0.26368000  0.82787000  0.07007000  0.5 0.0991837837
H  H246  1  0.23632000  0.17213000  0.57007000  0.5 0.0991837837
H  H247  1  0.73632000  0.32787000  0.42993000  0.5 0.0991837837
H  H248  1  0.76368000  0.67213000  0.92993000  0.5 0.0991837837
H  H249  1  0.23632000  0.67213000  0.42993000  0.5 0.0991837837
H  H250  1  0.26368000  0.32787000  0.92993000  0.5 0.0991837837
H  H251  1  0.76368000  0.17213000  0.07007000  0.5 0.0991837837
H  H252  1  0.73632000  0.82787000  0.57007000  0.5 0.0991837837
H  H253  1  0.73632000  0.17213000  0.92993000  0.5 0.0991837837
H  H254  1  0.76368000  0.82787000  0.42993000  0.5 0.0991837837
H  H255  1  0.26368000  0.67213000  0.57007000  0.5 0.0991837837
H  H256  1  0.23632000  0.32787000  0.07007000  0.5 0.0991837837
H  H257  1  0.66774000  0.32058000  0.57453000  0.5 0.0991837837
H  H258  1  0.83227000  0.67942000  0.07453000  0.5 0.0991837837
H  H259  1  0.33226000  0.82058000  0.92547000  0.5 0.0991837837
H  H260  1  0.16773000  0.17942000  0.42547000  0.5 0.0991837837
H  H261  1  0.16773000  0.82058000  0.07453000  0.5 0.0991837837
H  H262  1  0.33226000  0.17942000  0.57453000  0.5 0.0991837837
H  H263  1  0.83227000  0.32058000  0.42547000  0.5 0.0991837837
H  H264  1  0.66774000  0.67942000  0.92547000  0.5 0.0991837837
H  H265  1  0.33226000  0.67942000  0.42547000  0.5 0.0991837837
H  H266  1  0.16773000  0.32058000  0.92547000  0.5 0.0991837837
H  H267  1  0.66774000  0.17942000  0.07453000  0.5 0.0991837837
H  H268  1  0.83227000  0.82058000  0.57453000  0.5 0.0991837837
H  H269  1  0.83227000  0.17942000  0.92547000  0.5 0.0991837837
H  H270  1  0.66774000  0.82058000  0.42547000  0.5 0.0991837837
H  H271  1  0.16773000  0.67942000  0.57453000  0.5 0.0991837837
H  H272  1  0.33226000  0.32058000  0.07453000  0.5 0.0991837837
H  H273  1  0.61384000  0.99715000  0.67893000  0.5 0.0991837837
H  H274  1  0.88616000  0.00285000  0.17893000  0.5 0.0991837837
H  H275  1  0.38616000  0.49715000  0.82107000  0.5 0.0991837837
H  H276  1  0.11384000  0.50285000  0.32107000  0.5 0.0991837837
H  H277  1  0.11384000  0.49715000  0.17893000  0.5 0.0991837837
H  H278  1  0.38616000  0.50285000  0.67893000  0.5 0.0991837837
H  H279  1  0.88616000  0.99715000  0.32107000  0.5 0.0991837837
H  H280  1  0.61384000  0.00285000  0.82107000  0.5 0.0991837837
H  H281  1  0.38616000  0.00285000  0.32107000  0.5 0.0991837837
H  H282  1  0.11384000  0.99715000  0.82107000  0.5 0.0991837837
H  H283  1  0.61384000  0.50285000  0.17893000  0.5 0.0991837837
H  H284  1  0.88616000  0.49715000  0.67893000  0.5 0.0991837837
H  H285  1  0.88616000  0.50285000  0.82107000  0.5 0.0991837837
H  H286  1  0.61384000  0.49715000  0.32107000  0.5 0.0991837837
H  H287  1  0.11384000  0.00285000  0.67893000  0.5 0.0991837837
H  H288  1  0.38616000  0.99715000  0.17893000  0.5 0.0991837837
H  H289  1  0.48340000  0.97061000  0.59345000  0.5 0.0991837837
H  H290  1  0.01660000  0.02939000  0.09345000  0.5 0.0991837837
H  H291  1  0.51660000  0.47061000  0.90655000  0.5 0.0991837837
H  H292  1  0.98340000  0.52939000  0.40655000  0.5 0.0991837837
H  H293  1  0.98340000  0.47061000  0.09345000  0.5 0.0991837837
H  H294  1  0.51660000  0.52939000  0.59345000  0.5 0.0991837837
H  H295  1  0.01660000  0.97061000  0.40655000  0.5 0.0991837837
H  H296  1  0.48340000  0.02939000  0.90655000  0.5 0.0991837837
H  H297  1  0.51660000  0.02939000  0.40655000  0.5 0.0991837837
H  H298  1  0.98340000  0.97061000  0.90655000  0.5 0.0991837837
H  H299  1  0.48340000  0.52939000  0.09345000  0.5 0.0991837837
H  H300  1  0.01660000  0.47061000  0.59345000  0.5 0.0991837837
H  H301  1  0.01660000  0.52939000  0.90655000  0.5 0.0991837837
H  H302  1  0.48340000  0.47061000  0.40655000  0.5 0.0991837837
H  H303  1  0.98340000  0.02939000  0.59345000  0.5 0.0991837837
H  H304  1  0.51660000  0.97061000  0.09345000  0.5 0.0991837837
H  H305  1  0.46914000  0.06585000  0.58789000  0.5 0.1081707883
H  H306  1  0.03086000  0.93415000  0.08789000  0.5 0.1081707883
H  H307  1  0.53086000  0.56585000  0.91211000  0.5 0.1081707883
H  H308  1  0.96914000  0.43415000  0.41211000  0.5 0.1081707883
H  H309  1  0.96914000  0.56585000  0.08789000  0.5 0.1081707883
H  H310  1  0.53086000  0.43415000  0.58789000  0.5 0.1081707883
H  H311  1  0.03086000  0.06585000  0.41211000  0.5 0.1081707883
H  H312  1  0.46914000  0.93415000  0.91211000  0.5 0.1081707883
H  H313  1  0.53086000  0.93415000  0.41211000  0.5 0.1081707883
H  H314  1  0.96914000  0.06585000  0.91211000  0.5 0.1081707883
H  H315  1  0.46914000  0.43415000  0.08789000  0.5 0.1081707883
H  H316  1  0.03086000  0.56585000  0.58789000  0.5 0.1081707883
H  H317  1  0.03086000  0.43415000  0.91211000  0.5 0.1081707883
H  H318  1  0.46914000  0.56585000  0.41211000  0.5 0.1081707883
H  H319  1  0.96914000  0.93415000  0.58789000  0.5 0.1081707883
H  H320  1  0.53086000  0.06585000  0.08789000  0.5 0.1081707883
H  H321  1  0.55980000  0.31265000  0.90126000  0.5 0.3791740105
H  H322  1  0.94020000  0.68735000  0.40126000  0.5 0.3791740105
H  H323  1  0.44020000  0.81265000  0.59874000  0.5 0.3791740105
H  H324  1  0.05980000  0.18735000  0.09874000  0.5 0.3791740105
H  H325  1  0.05980000  0.81265000  0.40126000  0.5 0.3791740105
H  H326  1  0.44020000  0.18735000  0.90126000  0.5 0.3791740105
H  H327  1  0.94020000  0.31265000  0.09874000  0.5 0.3791740105
H  H328  1  0.55980000  0.68735000  0.59874000  0.5 0.3791740105
H  H329  1  0.44020000  0.68735000  0.09874000  0.5 0.3791740105
H  H330  1  0.05980000  0.31265000  0.59874000  0.5 0.3791740105
H  H331  1  0.55980000  0.18735000  0.40126000  0.5 0.3791740105
H  H332  1  0.94020000  0.81265000  0.90126000  0.5 0.3791740105
H  H333  1  0.94020000  0.18735000  0.59874000  0.5 0.3791740105
H  H334  1  0.55980000  0.81265000  0.09874000  0.5 0.3791740105
H  H335  1  0.05980000  0.68735000  0.90126000  0.5 0.3791740105
H  H336  1  0.44020000  0.31265000  0.40126000  0.5 0.3791740105
H  H337  1  0.55888000  0.31170000  0.84486000  0.5 0.3791740105
H  H338  1  0.94112000  0.68830000  0.34486000  0.5 0.3791740105
H  H339  1  0.44112000  0.81170000  0.65514000  0.5 0.3791740105
H  H340  1  0.05888000  0.18830000  0.15514000  0.5 0.3791740105
H  H341  1  0.05888000  0.81170000  0.34486000  0.5 0.3791740105
H  H342  1  0.44112000  0.18830000  0.84486000  0.5 0.3791740105
H  H343  1  0.94112000  0.31170000  0.15514000  0.5 0.3791740105
H  H344  1  0.55888000  0.68830000  0.65514000  0.5 0.3791740105
H  H345  1  0.44112000  0.68830000  0.15514000  0.5 0.3791740105
H  H346  1  0.05888000  0.31170000  0.65514000  0.5 0.3791740105
H  H347  1  0.55888000  0.18830000  0.34486000  0.5 0.3791740105
H  H348  1  0.94112000  0.81170000  0.84486000  0.5 0.3791740105
H  H349  1  0.94112000  0.18830000  0.65514000  0.5 0.3791740105
H  H350  1  0.55888000  0.81170000  0.15514000  0.5 0.3791740105
H  H351  1  0.05888000  0.68830000  0.84486000  0.5 0.3791740105
H  H352  1  0.44112000  0.31170000  0.34486000  0.5 0.3791740105
C  C1  1  0.46770000  0.22110000  0.47490000  1.0 0.0794303656
C  C2  1  0.03230000  0.77890000  0.97490000  1.0 0.0794303656
C  C3  1  0.53230000  0.72110000  0.02510000  1.0 0.0794303656
C  C4  1  0.96770000  0.27890000  0.52510000  1.0 0.0794303656
C  C5  1  0.96770000  0.72110000  0.97490000  1.0 0.0794303656
C  C6  1  0.53230000  0.27890000  0.47490000  1.0 0.0794303656
C  C7  1  0.03230000  0.22110000  0.52510000  1.0 0.0794303656
C  C8  1  0.46770000  0.77890000  0.02510000  1.0 0.0794303656
C  C9  1  0.53230000  0.77890000  0.52510000  1.0 0.0794303656
C  C10  1  0.96770000  0.22110000  0.02510000  1.0 0.0794303656
C  C11  1  0.46770000  0.27890000  0.97490000  1.0 0.0794303656
C  C12  1  0.03230000  0.72110000  0.47490000  1.0 0.0794303656
C  C13  1  0.03230000  0.27890000  0.02510000  1.0 0.0794303656
C  C14  1  0.46770000  0.72110000  0.52510000  1.0 0.0794303656
C  C15  1  0.96770000  0.77890000  0.47490000  1.0 0.0794303656
C  C16  1  0.53230000  0.22110000  0.97490000  1.0 0.0794303656
C  C49  1  0.47150000  0.28320000  0.77500000  1.0 0.0794303656
C  C50  1  0.02850000  0.71680000  0.27500000  1.0 0.0794303656
C  C51  1  0.52850000  0.78320000  0.72500000  1.0 0.0794303656
C  C52  1  0.97150000  0.21680000  0.22500000  1.0 0.0794303656
C  C53  1  0.97150000  0.78320000  0.27500000  1.0 0.0794303656
C  C54  1  0.52850000  0.21680000  0.77500000  1.0 0.0794303656
C  C55  1  0.02850000  0.28320000  0.22500000  1.0 0.0794303656
C  C56  1  0.47150000  0.71680000  0.72500000  1.0 0.0794303656
C  C57  1  0.52850000  0.71680000  0.22500000  1.0 0.0794303656
C  C58  1  0.97150000  0.28320000  0.72500000  1.0 0.0794303656
C  C59  1  0.47150000  0.21680000  0.27500000  1.0 0.0794303656
C  C60  1  0.02850000  0.78320000  0.77500000  1.0 0.0794303656
C  C61  1  0.02850000  0.21680000  0.72500000  1.0 0.0794303656
C  C62  1  0.47150000  0.78320000  0.22500000  1.0 0.0794303656
C  C63  1  0.97150000  0.71680000  0.77500000  1.0 0.0794303656
C  C64  1  0.52850000  0.28320000  0.27500000  1.0 0.0794303656
C  C17  1  0.49830000  0.35730000  0.62690000  0.5 0.29989274
C  C18  1  0.00170000  0.64270000  0.12690000  0.5 0.29989274
C  C19  1  0.50170000  0.85730000  0.87310000  0.5 0.29989274
C  C20  1  0.99830000  0.14270000  0.37310000  0.5 0.29989274
C  C21  1  0.99830000  0.85730000  0.12690000  0.5 0.29989274
C  C22  1  0.50170000  0.14270000  0.62690000  0.5 0.29989274
C  C23  1  0.00170000  0.35730000  0.37310000  0.5 0.29989274
C  C24  1  0.49830000  0.64270000  0.87310000  0.5 0.29989274
C  C25  1  0.50170000  0.64270000  0.37310000  0.5 0.29989274
C  C26  1  0.99830000  0.35730000  0.87310000  0.5 0.29989274
C  C27  1  0.49830000  0.14270000  0.12690000  0.5 0.29989274
C  C28  1  0.00170000  0.85730000  0.62690000  0.5 0.29989274
C  C29  1  0.00170000  0.14270000  0.87310000  0.5 0.29989274
C  C30  1  0.49830000  0.85730000  0.37310000  0.5 0.29989274
C  C31  1  0.99830000  0.64270000  0.62690000  0.5 0.29989274
C  C32  1  0.50170000  0.35730000  0.12690000  0.5 0.29989274
C  C33  1  0.60250000  0.27200000  0.62290000  0.5 0.361853968
C  C34  1  0.89750000  0.72800000  0.12290000  0.5 0.361853968
C  C35  1  0.39750000  0.77200000  0.87710000  0.5 0.361853968
C  C36  1  0.10250000  0.22800000  0.37710000  0.5 0.361853968
C  C37  1  0.10250000  0.77200000  0.12290000  0.5 0.361853968
C  C38  1  0.39750000  0.22800000  0.62290000  0.5 0.361853968
C  C39  1  0.89750000  0.27200000  0.37710000  0.5 0.361853968
C  C40  1  0.60250000  0.72800000  0.87710000  0.5 0.361853968
C  C41  1  0.39750000  0.72800000  0.37710000  0.5 0.361853968
C  C42  1  0.10250000  0.27200000  0.87710000  0.5 0.361853968
C  C43  1  0.60250000  0.22800000  0.12290000  0.5 0.361853968
C  C44  1  0.89750000  0.77200000  0.62290000  0.5 0.361853968
C  C45  1  0.89750000  0.22800000  0.87710000  0.5 0.361853968
C  C46  1  0.60250000  0.77200000  0.37710000  0.5 0.361853968
C  C47  1  0.10250000  0.72800000  0.62290000  0.5 0.361853968
C  C48  1  0.39750000  0.27200000  0.12290000  0.5 0.361853968
C  C65  1  0.49480000  0.41860000  0.62780000  0.5 0.0203184175
C  C66  1  0.00520000  0.58140000  0.12780000  0.5 0.0203184175
C  C67  1  0.50520000  0.91860000  0.87220000  0.5 0.0203184175
C  C68  1  0.99480000  0.08140000  0.37220000  0.5 0.0203184175
C  C69  1  0.99480000  0.91860000  0.12780000  0.5 0.0203184175
C  C70  1  0.50520000  0.08140000  0.62780000  0.5 0.0203184175
C  C71  1  0.00520000  0.41860000  0.37220000  0.5 0.0203184175
C  C72  1  0.49480000  0.58140000  0.87220000  0.5 0.0203184175
C  C73  1  0.50520000  0.58140000  0.37220000  0.5 0.0203184175
C  C74  1  0.99480000  0.41860000  0.87220000  0.5 0.0203184175
C  C75  1  0.49480000  0.08140000  0.12780000  0.5 0.0203184175
C  C76  1  0.00520000  0.91860000  0.62780000  0.5 0.0203184175
C  C77  1  0.00520000  0.08140000  0.87220000  0.5 0.0203184175
C  C78  1  0.49480000  0.91860000  0.37220000  0.5 0.0203184175
C  C79  1  0.99480000  0.58140000  0.62780000  0.5 0.0203184175
C  C80  1  0.50520000  0.41860000  0.12780000  0.5 0.0203184175
C  C81  1  0.52830000  0.44990000  0.59870000  0.5 0.0109977255
C  C82  1  0.97170000  0.55010000  0.09870000  0.5 0.0109977255
C  C83  1  0.47170000  0.94990000  0.90130000  0.5 0.0109977255
C  C84  1  0.02830000  0.05010000  0.40130000  0.5 0.0109977255
C  C85  1  0.02830000  0.94990000  0.09870000  0.5 0.0109977255
C  C86  1  0.47170000  0.05010000  0.59870000  0.5 0.0109977255
C  C87  1  0.97170000  0.44990000  0.40130000  0.5 0.0109977255
C  C88  1  0.52830000  0.55010000  0.90130000  0.5 0.0109977255
C  C89  1  0.47170000  0.55010000  0.40130000  0.5 0.0109977255
C  C90  1  0.02830000  0.44990000  0.90130000  0.5 0.0109977255
C  C91  1  0.52830000  0.05010000  0.09870000  0.5 0.0109977255
C  C92  1  0.97170000  0.94990000  0.59870000  0.5 0.0109977255
C  C93  1  0.97170000  0.05010000  0.90130000  0.5 0.0109977255
C  C94  1  0.52830000  0.94990000  0.40130000  0.5 0.0109977255
C  C95  1  0.02830000  0.55010000  0.59870000  0.5 0.0109977255
C  C96  1  0.47170000  0.44990000  0.09870000  0.5 0.0109977255
C  C97  1  0.52500000  0.50720000  0.59970000  0.5 -0.0979303942
C  C98  1  0.97500000  0.49280000  0.09970000  0.5 -0.0979303942
C  C99  1  0.47500000  0.00720000  0.90030000  0.5 -0.0979303942
C  C100  1  0.02500000  0.99280000  0.40030000  0.5 -0.0979303942
C  C101  1  0.02500000  0.00720000  0.09970000  0.5 -0.0979303942
C  C102  1  0.47500000  0.99280000  0.59970000  0.5 -0.0979303942
C  C103  1  0.97500000  0.50720000  0.40030000  0.5 -0.0979303942
C  C104  1  0.52500000  0.49280000  0.90030000  0.5 -0.0979303942
C  C105  1  0.47500000  0.49280000  0.40030000  0.5 -0.0979303942
C  C106  1  0.02500000  0.50720000  0.90030000  0.5 -0.0979303942
C  C107  1  0.52500000  0.99280000  0.09970000  0.5 -0.0979303942
C  C108  1  0.97500000  0.00720000  0.59970000  0.5 -0.0979303942
C  C109  1  0.97500000  0.99280000  0.90030000  0.5 -0.0979303942
C  C110  1  0.52500000  0.00720000  0.40030000  0.5 -0.0979303942
C  C111  1  0.02500000  0.49280000  0.59970000  0.5 -0.0979303942
C  C112  1  0.47500000  0.50720000  0.09970000  0.5 -0.0979303942
C  C113  1  0.48820000  0.53310000  0.62970000  0.5 -0.0384062154
C  C114  1  0.01180000  0.46690000  0.12970000  0.5 -0.0384062154
C  C115  1  0.51180000  0.03310000  0.87030000  0.5 -0.0384062154
C  C116  1  0.98820000  0.96690000  0.37030000  0.5 -0.0384062154
C  C117  1  0.98820000  0.03310000  0.12970000  0.5 -0.0384062154
C  C118  1  0.51180000  0.96690000  0.62970000  0.5 -0.0384062154
C  C119  1  0.01180000  0.53310000  0.37030000  0.5 -0.0384062154
C  C120  1  0.48820000  0.46690000  0.87030000  0.5 -0.0384062154
C  C121  1  0.51180000  0.46690000  0.37030000  0.5 -0.0384062154
C  C122  1  0.98820000  0.53310000  0.87030000  0.5 -0.0384062154
C  C123  1  0.48820000  0.96690000  0.12970000  0.5 -0.0384062154
C  C124  1  0.01180000  0.03310000  0.62970000  0.5 -0.0384062154
C  C125  1  0.01180000  0.96690000  0.87030000  0.5 -0.0384062154
C  C126  1  0.48820000  0.03310000  0.37030000  0.5 -0.0384062154
C  C127  1  0.98820000  0.46690000  0.62970000  0.5 -0.0384062154
C  C128  1  0.51180000  0.53310000  0.12970000  0.5 -0.0384062154
C  C129  1  0.45470000  0.50180000  0.65880000  0.5 -0.0558573302
C  C130  1  0.04530000  0.49820000  0.15880000  0.5 -0.0558573302
C  C131  1  0.54530000  0.00180000  0.84120000  0.5 -0.0558573302
C  C132  1  0.95470000  0.99820000  0.34120000  0.5 -0.0558573302
C  C133  1  0.95470000  0.00180000  0.15880000  0.5 -0.0558573302
C  C134  1  0.54530000  0.99820000  0.65880000  0.5 -0.0558573302
C  C135  1  0.04530000  0.50180000  0.34120000  0.5 -0.0558573302
C  C136  1  0.45470000  0.49820000  0.84120000  0.5 -0.0558573302
C  C137  1  0.54530000  0.49820000  0.34120000  0.5 -0.0558573302
C  C138  1  0.95470000  0.50180000  0.84120000  0.5 -0.0558573302
C  C139  1  0.45470000  0.99820000  0.15880000  0.5 -0.0558573302
C  C140  1  0.04530000  0.00180000  0.65880000  0.5 -0.0558573302
C  C141  1  0.04530000  0.99820000  0.84120000  0.5 -0.0558573302
C  C142  1  0.45470000  0.00180000  0.34120000  0.5 -0.0558573302
C  C143  1  0.95470000  0.49820000  0.65880000  0.5 -0.0558573302
C  C144  1  0.54530000  0.50180000  0.15880000  0.5 -0.0558573302
C  C145  1  0.45800000  0.44450000  0.65790000  0.5 -0.0259423286
C  C146  1  0.04200000  0.55550000  0.15790000  0.5 -0.0259423286
C  C147  1  0.54200000  0.94450000  0.84210000  0.5 -0.0259423286
C  C148  1  0.95800000  0.05550000  0.34210000  0.5 -0.0259423286
C  C149  1  0.95800000  0.94450000  0.15790000  0.5 -0.0259423286
C  C150  1  0.54200000  0.05550000  0.65790000  0.5 -0.0259423286
C  C151  1  0.04200000  0.44450000  0.34210000  0.5 -0.0259423286
C  C152  1  0.45800000  0.55550000  0.84210000  0.5 -0.0259423286
C  C153  1  0.54200000  0.55550000  0.34210000  0.5 -0.0259423286
C  C154  1  0.95800000  0.44450000  0.84210000  0.5 -0.0259423286
C  C155  1  0.45800000  0.05550000  0.15790000  0.5 -0.0259423286
C  C156  1  0.04200000  0.94450000  0.65790000  0.5 -0.0259423286
C  C157  1  0.04200000  0.05550000  0.84210000  0.5 -0.0259423286
C  C158  1  0.45800000  0.94450000  0.34210000  0.5 -0.0259423286
C  C159  1  0.95800000  0.55550000  0.65790000  0.5 -0.0259423286
C  C160  1  0.54200000  0.44450000  0.15790000  0.5 -0.0259423286
C  C161  1  0.66170000  0.28710000  0.62060000  0.5 0.0333525058
C  C162  1  0.83830000  0.71290000  0.12060000  0.5 0.0333525058
C  C163  1  0.33830000  0.78710000  0.87940000  0.5 0.0333525058
C  C164  1  0.16170000  0.21290000  0.37940000  0.5 0.0333525058
C  C165  1  0.16170000  0.78710000  0.12060000  0.5 0.0333525058
C  C166  1  0.33830000  0.21290000  0.62060000  0.5 0.0333525058
C  C167  1  0.83830000  0.28710000  0.37940000  0.5 0.0333525058
C  C168  1  0.66170000  0.71290000  0.87940000  0.5 0.0333525058
C  C169  1  0.33830000  0.71290000  0.37940000  0.5 0.0333525058
C  C170  1  0.16170000  0.28710000  0.87940000  0.5 0.0333525058
C  C171  1  0.66170000  0.21290000  0.12060000  0.5 0.0333525058
C  C172  1  0.83830000  0.78710000  0.62060000  0.5 0.0333525058
C  C173  1  0.83830000  0.21290000  0.87940000  0.5 0.0333525058
C  C174  1  0.66170000  0.78710000  0.37940000  0.5 0.0333525058
C  C175  1  0.16170000  0.71290000  0.62060000  0.5 0.0333525058
C  C176  1  0.33830000  0.28710000  0.12060000  0.5 0.0333525058
C  C177  1  0.69800000  0.25550000  0.64700000  0.5 -0.0128492972
C  C178  1  0.80200000  0.74450000  0.14700000  0.5 -0.0128492972
C  C179  1  0.30200000  0.75550000  0.85300000  0.5 -0.0128492972
C  C180  1  0.19800000  0.24450000  0.35300000  0.5 -0.0128492972
C  C181  1  0.19800000  0.75550000  0.14700000  0.5 -0.0128492972
C  C182  1  0.30200000  0.24450000  0.64700000  0.5 -0.0128492972
C  C183  1  0.80200000  0.25550000  0.35300000  0.5 -0.0128492972
C  C184  1  0.69800000  0.74450000  0.85300000  0.5 -0.0128492972
C  C185  1  0.30200000  0.74450000  0.35300000  0.5 -0.0128492972
C  C186  1  0.19800000  0.25550000  0.85300000  0.5 -0.0128492972
C  C187  1  0.69800000  0.24450000  0.14700000  0.5 -0.0128492972
C  C188  1  0.80200000  0.75550000  0.64700000  0.5 -0.0128492972
C  C189  1  0.80200000  0.24450000  0.85300000  0.5 -0.0128492972
C  C190  1  0.69800000  0.75550000  0.35300000  0.5 -0.0128492972
C  C191  1  0.19800000  0.74450000  0.64700000  0.5 -0.0128492972
C  C192  1  0.30200000  0.25550000  0.14700000  0.5 -0.0128492972
C  C193  1  0.75440000  0.26440000  0.64350000  0.5 -0.0558573302
C  C194  1  0.74560000  0.73560000  0.14350000  0.5 -0.0558573302
C  C195  1  0.24560000  0.76440000  0.85650000  0.5 -0.0558573302
C  C196  1  0.25440000  0.23560000  0.35650000  0.5 -0.0558573302
C  C197  1  0.25440000  0.76440000  0.14350000  0.5 -0.0558573302
C  C198  1  0.24560000  0.23560000  0.64350000  0.5 -0.0558573302
C  C199  1  0.74560000  0.26440000  0.35650000  0.5 -0.0558573302
C  C200  1  0.75440000  0.73560000  0.85650000  0.5 -0.0558573302
C  C201  1  0.24560000  0.73560000  0.35650000  0.5 -0.0558573302
C  C202  1  0.25440000  0.26440000  0.85650000  0.5 -0.0558573302
C  C203  1  0.75440000  0.23560000  0.14350000  0.5 -0.0558573302
C  C204  1  0.74560000  0.76440000  0.64350000  0.5 -0.0558573302
C  C205  1  0.74560000  0.23560000  0.85650000  0.5 -0.0558573302
C  C206  1  0.75440000  0.76440000  0.35650000  0.5 -0.0558573302
C  C207  1  0.25440000  0.73560000  0.64350000  0.5 -0.0558573302
C  C208  1  0.24560000  0.26440000  0.14350000  0.5 -0.0558573302
C  C209  1  0.77460000  0.30500000  0.61370000  0.5 -0.0666450815
C  C210  1  0.72540000  0.69500000  0.11370000  0.5 -0.0666450815
C  C211  1  0.22540000  0.80500000  0.88630000  0.5 -0.0666450815
C  C212  1  0.27460000  0.19500000  0.38630000  0.5 -0.0666450815
C  C213  1  0.27460000  0.80500000  0.11370000  0.5 -0.0666450815
C  C214  1  0.22540000  0.19500000  0.61370000  0.5 -0.0666450815
C  C215  1  0.72540000  0.30500000  0.38630000  0.5 -0.0666450815
C  C216  1  0.77460000  0.69500000  0.88630000  0.5 -0.0666450815
C  C217  1  0.22540000  0.69500000  0.38630000  0.5 -0.0666450815
C  C218  1  0.27460000  0.30500000  0.88630000  0.5 -0.0666450815
C  C219  1  0.77460000  0.19500000  0.11370000  0.5 -0.0666450815
C  C220  1  0.72540000  0.80500000  0.61370000  0.5 -0.0666450815
C  C221  1  0.72540000  0.19500000  0.88630000  0.5 -0.0666450815
C  C222  1  0.77460000  0.80500000  0.38630000  0.5 -0.0666450815
C  C223  1  0.27460000  0.69500000  0.61370000  0.5 -0.0666450815
C  C224  1  0.22540000  0.30500000  0.11370000  0.5 -0.0666450815
C  C225  1  0.73830000  0.33660000  0.58740000  0.5 -0.0979303942
C  C226  1  0.76170000  0.66340000  0.08740000  0.5 -0.0979303942
C  C227  1  0.26170000  0.83660000  0.91260000  0.5 -0.0979303942
C  C228  1  0.23830000  0.16340000  0.41260000  0.5 -0.0979303942
C  C229  1  0.23830000  0.83660000  0.08740000  0.5 -0.0979303942
C  C230  1  0.26170000  0.16340000  0.58740000  0.5 -0.0979303942
C  C231  1  0.76170000  0.33660000  0.41260000  0.5 -0.0979303942
C  C232  1  0.73830000  0.66340000  0.91260000  0.5 -0.0979303942
C  C233  1  0.26170000  0.66340000  0.41260000  0.5 -0.0979303942
C  C234  1  0.23830000  0.33660000  0.91260000  0.5 -0.0979303942
C  C235  1  0.73830000  0.16340000  0.08740000  0.5 -0.0979303942
C  C236  1  0.76170000  0.83660000  0.58740000  0.5 -0.0979303942
C  C237  1  0.76170000  0.16340000  0.91260000  0.5 -0.0979303942
C  C238  1  0.73830000  0.83660000  0.41260000  0.5 -0.0979303942
C  C239  1  0.23830000  0.66340000  0.58740000  0.5 -0.0979303942
C  C240  1  0.26170000  0.33660000  0.08740000  0.5 -0.0979303942
C  C241  1  0.68190000  0.32770000  0.59080000  0.5 0.0019053729
C  C242  1  0.81810000  0.67230000  0.09080000  0.5 0.0019053729
C  C243  1  0.31810000  0.82770000  0.90920000  0.5 0.0019053729
C  C244  1  0.18190000  0.17230000  0.40920000  0.5 0.0019053729
C  C245  1  0.18190000  0.82770000  0.09080000  0.5 0.0019053729
C  C246  1  0.31810000  0.17230000  0.59080000  0.5 0.0019053729
C  C247  1  0.81810000  0.32770000  0.40920000  0.5 0.0019053729
C  C248  1  0.68190000  0.67230000  0.90920000  0.5 0.0019053729
C  C249  1  0.31810000  0.67230000  0.40920000  0.5 0.0019053729
C  C250  1  0.18190000  0.32770000  0.90920000  0.5 0.0019053729
C  C251  1  0.68190000  0.17230000  0.09080000  0.5 0.0019053729
C  C252  1  0.81810000  0.82770000  0.59080000  0.5 0.0019053729
C  C253  1  0.81810000  0.17230000  0.90920000  0.5 0.0019053729
C  C254  1  0.68190000  0.82770000  0.40920000  0.5 0.0019053729
C  C255  1  0.18190000  0.67230000  0.59080000  0.5 0.0019053729
C  C256  1  0.31810000  0.32770000  0.09080000  0.5 0.0019053729
C  C257  1  0.65760000  0.13580000  0.75320000  0.5 -0.1648515597
C  C258  1  0.84240000  0.86420000  0.25320000  0.5 -0.1648515597
C  C259  1  0.34240000  0.63580000  0.74680000  0.5 -0.1677988958
C  C260  1  0.15760000  0.36420000  0.24680000  0.5 -0.1648515597
C  C261  1  0.15760000  0.63580000  0.25320000  0.5 -0.1677988958
C  C262  1  0.34240000  0.36420000  0.75320000  0.5 -0.1677988958
C  C263  1  0.84240000  0.13580000  0.24680000  0.5 -0.1648515597
C  C264  1  0.65760000  0.86420000  0.74680000  0.5 -0.1648515597
C  C265  1  0.34240000  0.86420000  0.24680000  0.5 -0.1648515597
C  C266  1  0.15760000  0.13580000  0.74680000  0.5 -0.1677988958
C  C267  1  0.65760000  0.36420000  0.25320000  0.5 -0.1648515597
C  C268  1  0.84240000  0.63580000  0.75320000  0.5 -0.1648515597
C  C269  1  0.84240000  0.36420000  0.74680000  0.5 -0.1648515597
C  C270  1  0.65760000  0.63580000  0.24680000  0.5 -0.1648515597
C  C271  1  0.15760000  0.86420000  0.75320000  0.5 -0.1677988958
C  C272  1  0.34240000  0.13580000  0.25320000  0.5 -0.1648515597
C  C273  1  0.68410000  0.17750000  0.72850000  0.5 -0.2421758043
C  C274  1  0.81590000  0.82250000  0.22850000  0.5 -0.2421758043
C  C275  1  0.31590000  0.67750000  0.77150000  0.5 -0.2421758043
C  C276  1  0.18410000  0.32250000  0.27150000  0.5 -0.2421758043
C  C277  1  0.18410000  0.67750000  0.22850000  0.5 -0.2421758043
C  C278  1  0.31590000  0.32250000  0.72850000  0.5 -0.2421758043
C  C279  1  0.81590000  0.17750000  0.27150000  0.5 -0.2421758043
C  C280  1  0.68410000  0.82250000  0.77150000  0.5 -0.2421758043
C  C281  1  0.31590000  0.82250000  0.27150000  0.5 -0.2421758043
C  C282  1  0.18410000  0.17750000  0.77150000  0.5 -0.2421758043
C  C283  1  0.68410000  0.32250000  0.22850000  0.5 -0.2421758043
C  C284  1  0.81590000  0.67750000  0.72850000  0.5 -0.2421758043
C  C285  1  0.81590000  0.32250000  0.77150000  0.5 -0.2421758043
C  C286  1  0.68410000  0.67750000  0.27150000  0.5 -0.2421758043
C  C287  1  0.18410000  0.82250000  0.72850000  0.5 -0.2421758043
C  C288  1  0.31590000  0.17750000  0.22850000  0.5 -0.2421758043
C  C289  1  0.67510000  0.18330000  0.68080000  0.5 0.1081707883
C  C290  1  0.82490000  0.81670000  0.18080000  0.5 0.1081707883
C  C291  1  0.32490000  0.68330000  0.81920000  0.5 0.1081707883
C  C292  1  0.17510000  0.31670000  0.31920000  0.5 0.1081707883
C  C293  1  0.17510000  0.68330000  0.18080000  0.5 0.1081707883
C  C294  1  0.32490000  0.31670000  0.68080000  0.5 0.1081707883
C  C295  1  0.82490000  0.18330000  0.31920000  0.5 0.1081707883
C  C296  1  0.67510000  0.81670000  0.81920000  0.5 0.1081707883
C  C297  1  0.32490000  0.81670000  0.31920000  0.5 0.1081707883
C  C298  1  0.17510000  0.18330000  0.81920000  0.5 0.1081707883
C  C299  1  0.67510000  0.31670000  0.18080000  0.5 0.1081707883
C  C300  1  0.82490000  0.68330000  0.68080000  0.5 0.1081707883
C  C301  1  0.82490000  0.31670000  0.81920000  0.5 0.1081707883
C  C302  1  0.67510000  0.68330000  0.31920000  0.5 0.1081707883
C  C303  1  0.17510000  0.81670000  0.68080000  0.5 0.1081707883
C  C304  1  0.32490000  0.18330000  0.18080000  0.5 0.1081707883
C  C305  1  0.61330000  0.10570000  0.68230000  0.5 0.0991837837
C  C306  1  0.88670000  0.89430000  0.18230000  0.5 0.0991837837
C  C307  1  0.38670000  0.60570000  0.81770000  0.5 0.0991837837
C  C308  1  0.11330000  0.39430000  0.31770000  0.5 0.0991837837
C  C309  1  0.11330000  0.60570000  0.18230000  0.5 0.0991837837
C  C310  1  0.38670000  0.39430000  0.68230000  0.5 0.0991837837
C  C311  1  0.88670000  0.10570000  0.31770000  0.5 0.0991837837
C  C312  1  0.61330000  0.89430000  0.81770000  0.5 0.0991837837
C  C313  1  0.38670000  0.89430000  0.31770000  0.5 0.0991837837
C  C314  1  0.11330000  0.10570000  0.81770000  0.5 0.0991837837
C  C315  1  0.61330000  0.39430000  0.18230000  0.5 0.0991837837
C  C316  1  0.88670000  0.60570000  0.68230000  0.5 0.0991837837
C  C317  1  0.88670000  0.39430000  0.81770000  0.5 0.0991837837
C  C318  1  0.61330000  0.60570000  0.31770000  0.5 0.0991837837
C  C319  1  0.11330000  0.89430000  0.68230000  0.5 0.0991837837
C  C320  1  0.38670000  0.10570000  0.18230000  0.5 0.0991837837
C  C321  1  0.62220000  0.09990000  0.73010000  0.5 -0.2485995371
C  C322  1  0.87780000  0.90010000  0.23010000  0.5 -0.2485995371
C  C323  1  0.37780000  0.59990000  0.76990000  0.5 -0.2485995371
C  C324  1  0.12220000  0.40010000  0.26990000  0.5 -0.2485995371
C  C325  1  0.12220000  0.59990000  0.23010000  0.5 -0.2485995371
C  C326  1  0.37780000  0.40010000  0.73010000  0.5 -0.2485995371
C  C327  1  0.87780000  0.09990000  0.26990000  0.5 -0.2485995371
C  C328  1  0.62220000  0.90010000  0.76990000  0.5 -0.2485995371
C  C329  1  0.37780000  0.90010000  0.26990000  0.5 -0.2485995371
C  C330  1  0.12220000  0.09990000  0.76990000  0.5 -0.2485995371
C  C331  1  0.62220000  0.40010000  0.23010000  0.5 -0.2485995371
C  C332  1  0.87780000  0.59990000  0.73010000  0.5 -0.2485995371
C  C333  1  0.87780000  0.40010000  0.76990000  0.5 -0.2485995371
C  C334  1  0.62220000  0.59990000  0.26990000  0.5 -0.2485995371
C  C335  1  0.12220000  0.90010000  0.73010000  0.5 -0.2485995371
C  C336  1  0.37780000  0.09990000  0.23010000  0.5 -0.2485995371
C  C337  1  0.56670000  0.42340000  0.57270000  0.5 0.0583631221
C  C338  1  0.93330000  0.57660000  0.07270000  0.5 0.0583631221
C  C339  1  0.43330000  0.92340000  0.92730000  0.5 0.0583631221
C  C340  1  0.06670000  0.07660000  0.42730000  0.5 0.0583631221
C  C341  1  0.06670000  0.92340000  0.07270000  0.5 0.0583631221
C  C342  1  0.43330000  0.07660000  0.57270000  0.5 0.0583631221
C  C343  1  0.93330000  0.42340000  0.42730000  0.5 0.0583631221
C  C344  1  0.56670000  0.57660000  0.92730000  0.5 0.0583631221
C  C345  1  0.43330000  0.57660000  0.42730000  0.5 0.0583631221
C  C346  1  0.06670000  0.42340000  0.92730000  0.5 0.0583631221
C  C347  1  0.56670000  0.07660000  0.07270000  0.5 0.0583631221
C  C348  1  0.93330000  0.92340000  0.57270000  0.5 0.0583631221
C  C349  1  0.93330000  0.07660000  0.92730000  0.5 0.0583631221
C  C350  1  0.56670000  0.92340000  0.42730000  0.5 0.0583631221
C  C351  1  0.06670000  0.57660000  0.57270000  0.5 0.0583631221
C  C352  1  0.43330000  0.42340000  0.07270000  0.5 0.0583631221
C  C353  1  0.64420000  0.36170000  0.56850000  0.5 0.0794303656
C  C354  1  0.85580000  0.63830000  0.06850000  0.5 0.0794303656
C  C355  1  0.35580000  0.86170000  0.93150000  0.5 0.0794303656
C  C356  1  0.14420000  0.13830000  0.43150000  0.5 0.0794303656
C  C357  1  0.14420000  0.86170000  0.06850000  0.5 0.0794303656
C  C358  1  0.35580000  0.13830000  0.56850000  0.5 0.0794303656
C  C359  1  0.85580000  0.36170000  0.43150000  0.5 0.0794303656
C  C360  1  0.64420000  0.63830000  0.93150000  0.5 0.0794303656
C  C361  1  0.35580000  0.63830000  0.43150000  0.5 0.0794303656
C  C362  1  0.14420000  0.36170000  0.93150000  0.5 0.0794303656
C  C363  1  0.64420000  0.13830000  0.06850000  0.5 0.0794303656
C  C364  1  0.85580000  0.86170000  0.56850000  0.5 0.0794303656
C  C365  1  0.85580000  0.13830000  0.93150000  0.5 0.0794303656
C  C366  1  0.64420000  0.86170000  0.43150000  0.5 0.0794303656
C  C367  1  0.14420000  0.63830000  0.56850000  0.5 0.0794303656
C  C368  1  0.35580000  0.36170000  0.06850000  0.5 0.0794303656
C  C369  1  0.65280000  0.37700000  0.52220000  0.5 -0.2421758043
C  C370  1  0.84720000  0.62300000  0.02220000  0.5 -0.2421758043
C  C371  1  0.34720000  0.87700000  0.97780000  0.5 -0.2421758043
C  C372  1  0.15280000  0.12300000  0.47780000  0.5 -0.2421758043
C  C373  1  0.15280000  0.87700000  0.02220000  0.5 -0.2421758043
C  C374  1  0.34720000  0.12300000  0.52220000  0.5 -0.2421758043
C  C375  1  0.84720000  0.37700000  0.47780000  0.5 -0.2421758043
C  C376  1  0.65280000  0.62300000  0.97780000  0.5 -0.2421758043
C  C377  1  0.34720000  0.62300000  0.47780000  0.5 -0.2421758043
C  C378  1  0.15280000  0.37700000  0.97780000  0.5 -0.2421758043
C  C379  1  0.65280000  0.12300000  0.02220000  0.5 -0.2421758043
C  C380  1  0.84720000  0.87700000  0.52220000  0.5 -0.2421758043
C  C381  1  0.84720000  0.12300000  0.97780000  0.5 -0.2421758043
C  C382  1  0.65280000  0.87700000  0.47780000  0.5 -0.2421758043
C  C383  1  0.15280000  0.62300000  0.52220000  0.5 -0.2421758043
C  C384  1  0.34720000  0.37700000  0.02220000  0.5 -0.2421758043
C  C385  1  0.61840000  0.41550000  0.50120000  0.5 -0.1677988958
C  C386  1  0.88160000  0.58450000  0.00120000  0.5 -0.1677988958
C  C387  1  0.38160000  0.91550000  0.99880000  0.5 -0.1677988958
C  C388  1  0.11840000  0.08450000  0.49880000  0.5 -0.1677988958
C  C389  1  0.11840000  0.91550000  0.00120000  0.5 -0.1677988958
C  C390  1  0.38160000  0.08450000  0.50120000  0.5 -0.1677988958
C  C391  1  0.88160000  0.41550000  0.49880000  0.5 -0.1677988958
C  C392  1  0.61840000  0.58450000  0.99880000  0.5 -0.1677988958
C  C393  1  0.38160000  0.58450000  0.49880000  0.5 -0.1677988958
C  C394  1  0.11840000  0.41550000  0.99880000  0.5 -0.1677988958
C  C395  1  0.61840000  0.08450000  0.00120000  0.5 -0.1677988958
C  C396  1  0.88160000  0.91550000  0.50120000  0.5 -0.1677988958
C  C397  1  0.88160000  0.08450000  0.99880000  0.5 -0.1677988958
C  C398  1  0.61840000  0.91550000  0.49880000  0.5 -0.1677988958
C  C399  1  0.11840000  0.58450000  0.50120000  0.5 -0.1677988958
C  C400  1  0.38160000  0.41550000  0.00120000  0.5 -0.1677988958
C  C401  1  0.57530000  0.43870000  0.52650000  0.5 -0.2421758043
C  C402  1  0.92470000  0.56130000  0.02650000  0.5 -0.2421758043
C  C403  1  0.42470000  0.93870000  0.97350000  0.5 -0.2421758043
C  C404  1  0.07530000  0.06130000  0.47350000  0.5 -0.2421758043
C  C405  1  0.07530000  0.93870000  0.02650000  0.5 -0.2421758043
C  C406  1  0.42470000  0.06130000  0.52650000  0.5 -0.2421758043
C  C407  1  0.92470000  0.43870000  0.47350000  0.5 -0.2421758043
C  C408  1  0.57530000  0.56130000  0.97350000  0.5 -0.2421758043
C  C409  1  0.42470000  0.56130000  0.47350000  0.5 -0.2421758043
C  C410  1  0.07530000  0.43870000  0.97350000  0.5 -0.2421758043
C  C411  1  0.57530000  0.06130000  0.02650000  0.5 -0.2421758043
C  C412  1  0.92470000  0.93870000  0.52650000  0.5 -0.2421758043
C  C413  1  0.92470000  0.06130000  0.97350000  0.5 -0.2421758043
C  C414  1  0.57530000  0.93870000  0.47350000  0.5 -0.2421758043
C  C415  1  0.07530000  0.56130000  0.52650000  0.5 -0.2421758043
C  C416  1  0.42470000  0.43870000  0.02650000  0.5 -0.2421758043
C  C417  1  0.69950000  0.22420000  0.64950000  0.5 0.0109977255
C  C418  1  0.80050000  0.77580000  0.14950000  0.5 0.0109977255
C  C419  1  0.30050000  0.72420000  0.85050000  0.5 0.0109977255
C  C420  1  0.19950000  0.27580000  0.35050000  0.5 0.0109977255
C  C421  1  0.19950000  0.72420000  0.14950000  0.5 0.0109977255
C  C422  1  0.30050000  0.27580000  0.64950000  0.5 0.0109977255
C  C423  1  0.80050000  0.22420000  0.35050000  0.5 0.0109977255
C  C424  1  0.69950000  0.77580000  0.85050000  0.5 0.0109977255
C  C425  1  0.30050000  0.77580000  0.35050000  0.5 0.0109977255
C  C426  1  0.19950000  0.22420000  0.85050000  0.5 0.0109977255
C  C427  1  0.69950000  0.27580000  0.14950000  0.5 0.0109977255
C  C428  1  0.80050000  0.72420000  0.64950000  0.5 0.0109977255
C  C429  1  0.80050000  0.27580000  0.85050000  0.5 0.0109977255
C  C430  1  0.69950000  0.72420000  0.35050000  0.5 0.0109977255
C  C431  1  0.19950000  0.77580000  0.64950000  0.5 0.0109977255
C  C432  1  0.30050000  0.22420000  0.14950000  0.5 0.0109977255
C  C433  1  0.75650000  0.22850000  0.64690000  0.5 -0.0979303942
C  C434  1  0.74350000  0.77150000  0.14690000  0.5 -0.0979303942
C  C435  1  0.24350000  0.72850000  0.85310000  0.5 -0.0979303942
C  C436  1  0.25650000  0.27150000  0.35310000  0.5 -0.0979303942
C  C437  1  0.25650000  0.72850000  0.14690000  0.5 -0.0979303942
C  C438  1  0.24350000  0.27150000  0.64690000  0.5 -0.0979303942
C  C439  1  0.74350000  0.22850000  0.35310000  0.5 -0.0979303942
C  C440  1  0.75650000  0.77150000  0.85310000  0.5 -0.0979303942
C  C441  1  0.24350000  0.77150000  0.35310000  0.5 -0.0979303942
C  C442  1  0.25650000  0.22850000  0.85310000  0.5 -0.0979303942
C  C443  1  0.75650000  0.27150000  0.14690000  0.5 -0.0979303942
C  C444  1  0.74350000  0.72850000  0.64690000  0.5 -0.0979303942
C  C445  1  0.74350000  0.27150000  0.85310000  0.5 -0.0979303942
C  C446  1  0.75650000  0.72850000  0.35310000  0.5 -0.0979303942
C  C447  1  0.25650000  0.77150000  0.64690000  0.5 -0.0979303942
C  C448  1  0.24350000  0.22850000  0.14690000  0.5 -0.0979303942
C  C449  1  0.78040000  0.26720000  0.61730000  0.5 -0.04994285
C  C450  1  0.71960000  0.73280000  0.11730000  0.5 -0.04994285
C  C451  1  0.21960000  0.76720000  0.88270000  0.5 -0.04994285
C  C452  1  0.28040000  0.23280000  0.38270000  0.5 -0.04994285
C  C453  1  0.28040000  0.76720000  0.11730000  0.5 -0.04994285
C  C454  1  0.21960000  0.23280000  0.61730000  0.5 -0.04994285
C  C455  1  0.71960000  0.26720000  0.38270000  0.5 -0.04994285
C  C456  1  0.78040000  0.73280000  0.88270000  0.5 -0.04994285
C  C457  1  0.21960000  0.73280000  0.38270000  0.5 -0.04994285
C  C458  1  0.28040000  0.26720000  0.88270000  0.5 -0.04994285
C  C459  1  0.78040000  0.23280000  0.11730000  0.5 -0.04994285
C  C460  1  0.71960000  0.76720000  0.61730000  0.5 -0.04994285
C  C461  1  0.71960000  0.23280000  0.88270000  0.5 -0.04994285
C  C462  1  0.78040000  0.76720000  0.38270000  0.5 -0.04994285
C  C463  1  0.28040000  0.73280000  0.61730000  0.5 -0.04994285
C  C464  1  0.21960000  0.26720000  0.11730000  0.5 -0.04994285
C  C465  1  0.74730000  0.30150000  0.59030000  0.5 -0.04994285
C  C466  1  0.75270000  0.69850000  0.09030000  0.5 -0.04994285
C  C467  1  0.25270000  0.80150000  0.90970000  0.5 -0.04994285
C  C468  1  0.24730000  0.19850000  0.40970000  0.5 -0.04994285
C  C469  1  0.24730000  0.80150000  0.09030000  0.5 -0.04994285
C  C470  1  0.25270000  0.19850000  0.59030000  0.5 -0.04994285
C  C471  1  0.75270000  0.30150000  0.40970000  0.5 -0.04994285
C  C472  1  0.74730000  0.69850000  0.90970000  0.5 -0.04994285
C  C473  1  0.25270000  0.69850000  0.40970000  0.5 -0.04994285
C  C474  1  0.24730000  0.30150000  0.90970000  0.5 -0.04994285
C  C475  1  0.74730000  0.19850000  0.09030000  0.5 -0.04994285
C  C476  1  0.75270000  0.80150000  0.59030000  0.5 -0.04994285
C  C477  1  0.75270000  0.19850000  0.90970000  0.5 -0.04994285
C  C478  1  0.74730000  0.80150000  0.40970000  0.5 -0.04994285
C  C479  1  0.24730000  0.69850000  0.59030000  0.5 -0.04994285
C  C480  1  0.25270000  0.30150000  0.09030000  0.5 -0.04994285
C  C481  1  0.69030000  0.29710000  0.59300000  0.5 -0.0214221917
C  C482  1  0.80970000  0.70290000  0.09300000  0.5 -0.0214221917
C  C483  1  0.30970000  0.79710000  0.90700000  0.5 -0.0214221917
C  C484  1  0.19030000  0.20290000  0.40700000  0.5 -0.0259423286
C  C485  1  0.19030000  0.79710000  0.09300000  0.5 -0.0259423286
C  C486  1  0.30970000  0.20290000  0.59300000  0.5 -0.0214221917
C  C487  1  0.80970000  0.29710000  0.40700000  0.5 -0.0214221917
C  C488  1  0.69030000  0.70290000  0.90700000  0.5 -0.0214221917
C  C489  1  0.30970000  0.70290000  0.40700000  0.5 -0.0259423286
C  C490  1  0.19030000  0.29710000  0.90700000  0.5 -0.0259423286
C  C491  1  0.69030000  0.20290000  0.09300000  0.5 -0.0214221917
C  C492  1  0.80970000  0.79710000  0.59300000  0.5 -0.0214221917
C  C493  1  0.80970000  0.20290000  0.90700000  0.5 -0.0214221917
C  C494  1  0.69030000  0.79710000  0.40700000  0.5 -0.0214221917
C  C495  1  0.19030000  0.70290000  0.59300000  0.5 -0.0259423286
C  C496  1  0.30970000  0.29710000  0.09300000  0.5 -0.0214221917
C  C497  1  0.66640000  0.25850000  0.62260000  0.5 0.0370262453
C  C498  1  0.83360000  0.74150000  0.12260000  0.5 0.0370262453
C  C499  1  0.33360000  0.75850000  0.87740000  0.5 0.0370262453
C  C500  1  0.16640000  0.24150000  0.37740000  0.5 0.0370262453
C  C501  1  0.16640000  0.75850000  0.12260000  0.5 0.0370262453
C  C502  1  0.33360000  0.24150000  0.62260000  0.5 0.0370262453
C  C503  1  0.83360000  0.25850000  0.37740000  0.5 0.0370262453
C  C504  1  0.66640000  0.74150000  0.87740000  0.5 0.0370262453
C  C505  1  0.33360000  0.74150000  0.37740000  0.5 0.0370262453
C  C506  1  0.16640000  0.25850000  0.87740000  0.5 0.0370262453
C  C507  1  0.66640000  0.24150000  0.12260000  0.5 0.0370262453
C  C508  1  0.83360000  0.75850000  0.62260000  0.5 0.0370262453
C  C509  1  0.83360000  0.24150000  0.87740000  0.5 0.0370262453
C  C510  1  0.66640000  0.75850000  0.37740000  0.5 0.0370262453
C  C511  1  0.16640000  0.74150000  0.62260000  0.5 0.0370262453
C  C512  1  0.33360000  0.25850000  0.12260000  0.5 0.0370262453
C  C513  1  0.60290000  0.25350000  0.62320000  0.5 0.3715462067
C  C514  1  0.89710000  0.74650000  0.12320000  0.5 0.3715462067
C  C515  1  0.39710000  0.75350000  0.87680000  0.5 0.3715462067
C  C516  1  0.10290000  0.24650000  0.37680000  0.5 0.3715462067
C  C517  1  0.10290000  0.75350000  0.12320000  0.5 0.3715462067
C  C518  1  0.39710000  0.24650000  0.62320000  0.5 0.3715462067
C  C519  1  0.89710000  0.25350000  0.37680000  0.5 0.3715462067
C  C520  1  0.60290000  0.74650000  0.87680000  0.5 0.3715462067
C  C521  1  0.39710000  0.74650000  0.37680000  0.5 0.3715462067
C  C522  1  0.10290000  0.25350000  0.87680000  0.5 0.3715462067
C  C523  1  0.60290000  0.24650000  0.12320000  0.5 0.3715462067
C  C524  1  0.89710000  0.75350000  0.62320000  0.5 0.3715462067
C  C525  1  0.89710000  0.24650000  0.87680000  0.5 0.3715462067
C  C526  1  0.60290000  0.75350000  0.37680000  0.5 0.3715462067
C  C527  1  0.10290000  0.74650000  0.62320000  0.5 0.3715462067
C  C528  1  0.39710000  0.25350000  0.12320000  0.5 0.3715462067
C  C529  1  0.57600000  0.06770000  0.65710000  0.5 -0.0128492972
C  C530  1  0.92400000  0.93230000  0.15710000  0.5 -0.0128492972
C  C531  1  0.42400000  0.56770000  0.84290000  0.5 -0.0128492972
C  C532  1  0.07600000  0.43230000  0.34290000  0.5 -0.0214221917
C  C533  1  0.07600000  0.56770000  0.15710000  0.5 -0.0214221917
C  C534  1  0.42400000  0.43230000  0.65710000  0.5 -0.0214221917
C  C535  1  0.92400000  0.06770000  0.34290000  0.5 -0.0128492972
C  C536  1  0.57600000  0.93230000  0.84290000  0.5 -0.0128492972
C  C537  1  0.42400000  0.93230000  0.34290000  0.5 -0.0214221917
C  C538  1  0.07600000  0.06770000  0.84290000  0.5 -0.0214221917
C  C539  1  0.57600000  0.43230000  0.15710000  0.5 -0.0128492972
C  C540  1  0.92400000  0.56770000  0.65710000  0.5 -0.0128492972
C  C541  1  0.92400000  0.43230000  0.84290000  0.5 -0.0128492972
C  C542  1  0.57600000  0.56770000  0.34290000  0.5 -0.0128492972
C  C543  1  0.07600000  0.93230000  0.65710000  0.5 -0.0214221917
C  C544  1  0.42400000  0.06770000  0.15710000  0.5 -0.0214221917
C  C545  1  0.58450000  0.01110000  0.66050000  0.5 -0.0979303942
C  C546  1  0.91550000  0.98890000  0.16050000  0.5 -0.0979303942
C  C547  1  0.41550000  0.51110000  0.83950000  0.5 -0.0979303942
C  C548  1  0.08450000  0.48890000  0.33950000  0.5 -0.0979303942
C  C549  1  0.08450000  0.51110000  0.16050000  0.5 -0.0979303942
C  C550  1  0.41550000  0.48890000  0.66050000  0.5 -0.0979303942
C  C551  1  0.91550000  0.01110000  0.33950000  0.5 -0.0979303942
C  C552  1  0.58450000  0.98890000  0.83950000  0.5 -0.0979303942
C  C553  1  0.41550000  0.98890000  0.33950000  0.5 -0.0979303942
C  C554  1  0.08450000  0.01110000  0.83950000  0.5 -0.0979303942
C  C555  1  0.58450000  0.48890000  0.16050000  0.5 -0.0979303942
C  C556  1  0.91550000  0.51110000  0.66050000  0.5 -0.0979303942
C  C557  1  0.91550000  0.48890000  0.83950000  0.5 -0.0979303942
C  C558  1  0.58450000  0.51110000  0.33950000  0.5 -0.0979303942
C  C559  1  0.08450000  0.98890000  0.66050000  0.5 -0.0979303942
C  C560  1  0.41550000  0.01110000  0.16050000  0.5 -0.0979303942
C  C561  1  0.55000000  0.97490000  0.63670000  0.5 -0.0666450815
C  C562  1  0.95000000  0.02510000  0.13670000  0.5 -0.0666450815
C  C563  1  0.45000000  0.47490000  0.86330000  0.5 -0.0666450815
C  C564  1  0.05000000  0.52510000  0.36330000  0.5 -0.0666450815
C  C565  1  0.05000000  0.47490000  0.13670000  0.5 -0.0666450815
C  C566  1  0.45000000  0.52510000  0.63670000  0.5 -0.0666450815
C  C567  1  0.95000000  0.97490000  0.36330000  0.5 -0.0666450815
C  C568  1  0.55000000  0.02510000  0.86330000  0.5 -0.0666450815
C  C569  1  0.45000000  0.02510000  0.36330000  0.5 -0.0666450815
C  C570  1  0.05000000  0.97490000  0.86330000  0.5 -0.0666450815
C  C571  1  0.55000000  0.52510000  0.13670000  0.5 -0.0666450815
C  C572  1  0.95000000  0.47490000  0.63670000  0.5 -0.0666450815
C  C573  1  0.95000000  0.52510000  0.86330000  0.5 -0.0666450815
C  C574  1  0.55000000  0.47490000  0.36330000  0.5 -0.0666450815
C  C575  1  0.05000000  0.02510000  0.63670000  0.5 -0.0666450815
C  C576  1  0.45000000  0.97490000  0.13670000  0.5 -0.0666450815
C  C577  1  0.50700000  0.99530000  0.60970000  0.5 -0.0384062154
C  C578  1  0.99300000  0.00470000  0.10970000  0.5 -0.0384062154
C  C579  1  0.49300000  0.49530000  0.89030000  0.5 -0.0384062154
C  C580  1  0.00700000  0.50470000  0.39030000  0.5 -0.0384062154
C  C581  1  0.00700000  0.49530000  0.10970000  0.5 -0.0384062154
C  C582  1  0.49300000  0.50470000  0.60970000  0.5 -0.0384062154
C  C583  1  0.99300000  0.99530000  0.39030000  0.5 -0.0384062154
C  C584  1  0.50700000  0.00470000  0.89030000  0.5 -0.0384062154
C  C585  1  0.49300000  0.00470000  0.39030000  0.5 -0.0384062154
C  C586  1  0.00700000  0.99530000  0.89030000  0.5 -0.0384062154
C  C587  1  0.50700000  0.50470000  0.10970000  0.5 -0.0384062154
C  C588  1  0.99300000  0.49530000  0.60970000  0.5 -0.0384062154
C  C589  1  0.99300000  0.50470000  0.89030000  0.5 -0.0384062154
C  C590  1  0.50700000  0.49530000  0.39030000  0.5 -0.0384062154
C  C591  1  0.00700000  0.00470000  0.60970000  0.5 -0.0384062154
C  C592  1  0.49300000  0.99530000  0.10970000  0.5 -0.0384062154
C  C593  1  0.49850000  0.05190000  0.60640000  0.5 -0.0024613735
C  C594  1  0.00150000  0.94810000  0.10640000  0.5 -0.0024613735
C  C595  1  0.50150000  0.55190000  0.89360000  0.5 -0.0024613735
C  C596  1  0.99850000  0.44810000  0.39360000  0.5 -0.0024613735
C  C597  1  0.99850000  0.55190000  0.10640000  0.5 -0.0024613735
C  C598  1  0.50150000  0.44810000  0.60640000  0.5 -0.0024613735
C  C599  1  0.00150000  0.05190000  0.39360000  0.5 -0.0024613735
C  C600  1  0.49850000  0.94810000  0.89360000  0.5 -0.0024613735
C  C601  1  0.50150000  0.94810000  0.39360000  0.5 -0.0024613735
C  C602  1  0.99850000  0.05190000  0.89360000  0.5 -0.0024613735
C  C603  1  0.49850000  0.44810000  0.10640000  0.5 -0.0024613735
C  C604  1  0.00150000  0.55190000  0.60640000  0.5 -0.0024613735
C  C605  1  0.00150000  0.44810000  0.89360000  0.5 -0.0024613735
C  C606  1  0.49850000  0.55190000  0.39360000  0.5 -0.0024613735
C  C607  1  0.99850000  0.94810000  0.60640000  0.5 -0.0024613735
C  C608  1  0.50150000  0.05190000  0.10640000  0.5 -0.0024613735
C  C609  1  0.53300000  0.08810000  0.63010000  0.5 0.0203184175
C  C610  1  0.96700000  0.91190000  0.13010000  0.5 0.0203184175
C  C611  1  0.46700000  0.58810000  0.86990000  0.5 0.0203184175
C  C612  1  0.03300000  0.41190000  0.36990000  0.5 0.0203184175
C  C613  1  0.03300000  0.58810000  0.13010000  0.5 0.0203184175
C  C614  1  0.46700000  0.41190000  0.63010000  0.5 0.0203184175
C  C615  1  0.96700000  0.08810000  0.36990000  0.5 0.0203184175
C  C616  1  0.53300000  0.91190000  0.86990000  0.5 0.0203184175
C  C617  1  0.46700000  0.91190000  0.36990000  0.5 0.0203184175
C  C618  1  0.03300000  0.08810000  0.86990000  0.5 0.0203184175
C  C619  1  0.53300000  0.41190000  0.13010000  0.5 0.0203184175
C  C620  1  0.96700000  0.58810000  0.63010000  0.5 0.0203184175
C  C621  1  0.96700000  0.41190000  0.86990000  0.5 0.0203184175
C  C622  1  0.53300000  0.58810000  0.36990000  0.5 0.0203184175
C  C623  1  0.03300000  0.91190000  0.63010000  0.5 0.0203184175
C  C624  1  0.46700000  0.08810000  0.13010000  0.5 0.0203184175
C  C625  1  0.52370000  0.14830000  0.62660000  0.5 0.3114297294
C  C626  1  0.97630000  0.85170000  0.12660000  0.5 0.3114297294
C  C627  1  0.47630000  0.64830000  0.87340000  0.5 0.3114297294
C  C628  1  0.02370000  0.35170000  0.37340000  0.5 0.3114297294
C  C629  1  0.02370000  0.64830000  0.12660000  0.5 0.3114297294
C  C630  1  0.47630000  0.35170000  0.62660000  0.5 0.3114297294
C  C631  1  0.97630000  0.14830000  0.37340000  0.5 0.3114297294
C  C632  1  0.52370000  0.85170000  0.87340000  0.5 0.3114297294
C  C633  1  0.47630000  0.85170000  0.37340000  0.5 0.3114297294
C  C634  1  0.02370000  0.14830000  0.87340000  0.5 0.3114297294
C  C635  1  0.52370000  0.35170000  0.12660000  0.5 0.3114297294
C  C636  1  0.97630000  0.64830000  0.62660000  0.5 0.3114297294
C  C637  1  0.97630000  0.35170000  0.87340000  0.5 0.3114297294
C  C638  1  0.52370000  0.64830000  0.37340000  0.5 0.3114297294
C  C639  1  0.02370000  0.85170000  0.62660000  0.5 0.3114297294
C  C640  1  0.47630000  0.14830000  0.12660000  0.5 0.3114297294
C  C641  1  0.47260000  0.59610000  0.63120000  0.5 0.2752393667
C  C642  1  0.02740000  0.40390000  0.13120000  0.5 0.2752393667
C  C643  1  0.52740000  0.09610000  0.86880000  0.5 0.2752393667
C  C644  1  0.97260000  0.90390000  0.36880000  0.5 0.2752393667
C  C645  1  0.97260000  0.09610000  0.13120000  0.5 0.2752393667
C  C646  1  0.52740000  0.90390000  0.63120000  0.5 0.2752393667
C  C647  1  0.02740000  0.59610000  0.36880000  0.5 0.2752393667
C  C648  1  0.47260000  0.40390000  0.86880000  0.5 0.2752393667
C  C649  1  0.52740000  0.40390000  0.36880000  0.5 0.2752393667
C  C650  1  0.97260000  0.59610000  0.86880000  0.5 0.2752393667
C  C651  1  0.47260000  0.90390000  0.13120000  0.5 0.2752393667
C  C652  1  0.02740000  0.09610000  0.63120000  0.5 0.2752393667
C  C653  1  0.02740000  0.90390000  0.86880000  0.5 0.2752393667
C  C654  1  0.47260000  0.09610000  0.36880000  0.5 0.2752393667
C  C655  1  0.97260000  0.40390000  0.63120000  0.5 0.2752393667
C  C656  1  0.52740000  0.59610000  0.13120000  0.5 0.2752393667
C  C657  1  0.84200000  0.27650000  0.61890000  0.5 0.2619471361
C  C658  1  0.65800000  0.72350000  0.11890000  0.5 0.2619471361
C  C659  1  0.15800000  0.77650000  0.88110000  0.5 0.2619471361
C  C660  1  0.34200000  0.22350000  0.38110000  0.5 0.2619471361
C  C661  1  0.34200000  0.77650000  0.11890000  0.5 0.2619471361
C  C662  1  0.15800000  0.22350000  0.61890000  0.5 0.2619471361
C  C663  1  0.65800000  0.27650000  0.38110000  0.5 0.2619471361
C  C664  1  0.84200000  0.72350000  0.88110000  0.5 0.2619471361
C  C665  1  0.15800000  0.72350000  0.38110000  0.5 0.2619471361
C  C666  1  0.34200000  0.27650000  0.88110000  0.5 0.2619471361
C  C667  1  0.84200000  0.22350000  0.11890000  0.5 0.2619471361
C  C668  1  0.65800000  0.77650000  0.61890000  0.5 0.2619471361
C  C669  1  0.65800000  0.22350000  0.88110000  0.5 0.2619471361
C  C670  1  0.84200000  0.77650000  0.38110000  0.5 0.2619471361
C  C671  1  0.34200000  0.72350000  0.61890000  0.5 0.2619471361
C  C672  1  0.15800000  0.27650000  0.11890000  0.5 0.2619471361
C  C673  1  0.55580000  0.91450000  0.64170000  0.5 0.250235276
C  C674  1  0.94420000  0.08550000  0.14170000  0.5 0.250235276
C  C675  1  0.44420000  0.41450000  0.85830000  0.5 0.250235276
C  C676  1  0.05580000  0.58550000  0.35830000  0.5 0.250235276
C  C677  1  0.05580000  0.41450000  0.14170000  0.5 0.250235276
C  C678  1  0.44420000  0.58550000  0.64170000  0.5 0.250235276
C  C679  1  0.94420000  0.91450000  0.35830000  0.5 0.250235276
C  C680  1  0.55580000  0.08550000  0.85830000  0.5 0.250235276
C  C681  1  0.44420000  0.08550000  0.35830000  0.5 0.250235276
C  C682  1  0.05580000  0.91450000  0.85830000  0.5 0.250235276
C  C683  1  0.55580000  0.58550000  0.14170000  0.5 0.250235276
C  C684  1  0.94420000  0.41450000  0.64170000  0.5 0.250235276
C  C685  1  0.94420000  0.58550000  0.85830000  0.5 0.250235276
C  C686  1  0.55580000  0.41450000  0.35830000  0.5 0.250235276
C  C687  1  0.05580000  0.08550000  0.64170000  0.5 0.250235276
C  C688  1  0.44420000  0.91450000  0.14170000  0.5 0.250235276
C  C689  1  0.83450000  0.31280000  0.60810000  0.5 0.2619471361
C  C690  1  0.66550000  0.68720000  0.10810000  0.5 0.2619471361
C  C691  1  0.16550000  0.81280000  0.89190000  0.5 0.2619471361
C  C692  1  0.33450000  0.18720000  0.39190000  0.5 0.2619471361
C  C693  1  0.33450000  0.81280000  0.10810000  0.5 0.2619471361
C  C694  1  0.16550000  0.18720000  0.60810000  0.5 0.2619471361
C  C695  1  0.66550000  0.31280000  0.39190000  0.5 0.2619471361
C  C696  1  0.83450000  0.68720000  0.89190000  0.5 0.2619471361
C  C697  1  0.16550000  0.68720000  0.39190000  0.5 0.2619471361
C  C698  1  0.33450000  0.31280000  0.89190000  0.5 0.2619471361
C  C699  1  0.83450000  0.18720000  0.10810000  0.5 0.2619471361
C  C700  1  0.66550000  0.81280000  0.60810000  0.5 0.2619471361
C  C701  1  0.66550000  0.18720000  0.89190000  0.5 0.2619471361
C  C702  1  0.83450000  0.81280000  0.39190000  0.5 0.2619471361
C  C703  1  0.33450000  0.68720000  0.60810000  0.5 0.2619471361
C  C704  1  0.16550000  0.31280000  0.10810000  0.5 0.2619471361
N  N1  1  0.50000000  0.25000000  0.50440000  1.0 -0.3330921888
N  N2  1  0.00000000  0.75000000  0.00440000  1.0 -0.3330921888
N  N3  1  0.50000000  0.75000000  0.99560000  1.0 -0.3330921888
N  N4  1  0.00000000  0.25000000  0.49560000  1.0 -0.3330921888
N  N5  1  0.50000000  0.75000000  0.49560000  1.0 -0.3330921888
N  N6  1  0.00000000  0.25000000  0.99560000  1.0 -0.3330921888
N  N7  1  0.50000000  0.25000000  0.00440000  1.0 -0.3330921888
N  N8  1  0.00000000  0.75000000  0.50440000  1.0 -0.3330921888
N  N9  1  0.50000000  0.25000000  0.74570000  1.0 -0.312633632
N  N10  1  0.00000000  0.75000000  0.24570000  1.0 -0.312633632
N  N11  1  0.50000000  0.75000000  0.75430000  1.0 -0.312633632
N  N12  1  0.00000000  0.25000000  0.25430000  1.0 -0.312633632
N  N13  1  0.50000000  0.75000000  0.25430000  1.0 -0.312633632
N  N14  1  0.00000000  0.25000000  0.75430000  1.0 -0.312633632
N  N15  1  0.50000000  0.25000000  0.24570000  1.0 -0.312633632
N  N16  1  0.00000000  0.75000000  0.74570000  1.0 -0.312633632
N  N17  1  0.48110000  0.26970000  0.81890000  1.0 -0.1766201559
N  N18  1  0.01890000  0.73030000  0.31890000  1.0 -0.1766201559
N  N19  1  0.51890000  0.76970000  0.68110000  1.0 -0.1766201559
N  N20  1  0.98110000  0.23030000  0.18110000  1.0 -0.1766201559
N  N21  1  0.98110000  0.76970000  0.31890000  1.0 -0.1766201559
N  N22  1  0.51890000  0.23030000  0.81890000  1.0 -0.1766201559
N  N23  1  0.01890000  0.26970000  0.18110000  1.0 -0.1766201559
N  N24  1  0.48110000  0.73030000  0.68110000  1.0 -0.1766201559
N  N25  1  0.51890000  0.73030000  0.18110000  1.0 -0.1766201559
N  N26  1  0.98110000  0.26970000  0.68110000  1.0 -0.1766201559
N  N27  1  0.48110000  0.23030000  0.31890000  1.0 -0.1766201559
N  N28  1  0.01890000  0.76970000  0.81890000  1.0 -0.1766201559
N  N29  1  0.01890000  0.23030000  0.68110000  1.0 -0.1766201559
N  N30  1  0.48110000  0.76970000  0.18110000  1.0 -0.1766201559
N  N31  1  0.98110000  0.73030000  0.81890000  1.0 -0.1766201559
N  N32  1  0.51890000  0.26970000  0.31890000  1.0 -0.1766201559
N  N33  1  0.48050000  0.23160000  0.43105000  1.0 -0.1766201559
N  N34  1  0.01950000  0.76840000  0.93105000  1.0 -0.1766201559
N  N35  1  0.51950000  0.73160000  0.06895000  1.0 -0.1766201559
N  N36  1  0.98050000  0.26840000  0.56895000  1.0 -0.1766201559
N  N37  1  0.98050000  0.73160000  0.93105000  1.0 -0.1766201559
N  N38  1  0.51950000  0.26840000  0.43105000  1.0 -0.1766201559
N  N39  1  0.01950000  0.23160000  0.56895000  1.0 -0.1766201559
N  N40  1  0.48050000  0.76840000  0.06895000  1.0 -0.1766201559
N  N41  1  0.51950000  0.76840000  0.56895000  1.0 -0.1766201559
N  N42  1  0.98050000  0.23160000  0.06895000  1.0 -0.1766201559
N  N43  1  0.48050000  0.26840000  0.93105000  1.0 -0.1766201559
N  N44  1  0.01950000  0.73160000  0.43105000  1.0 -0.1766201559
N  N45  1  0.01950000  0.26840000  0.06895000  1.0 -0.1766201559
N  N46  1  0.48050000  0.73160000  0.56895000  1.0 -0.1766201559
N  N47  1  0.98050000  0.76840000  0.43105000  1.0 -0.1766201559
N  N48  1  0.51950000  0.23160000  0.93105000  1.0 -0.1766201559
N  N49  1  0.63970000  0.14740000  0.65770000  0.5 -0.2733424072
N  N50  1  0.86030000  0.85260000  0.15770000  0.5 -0.2733424072
N  N51  1  0.36030000  0.64740000  0.84230000  0.5 -0.2733424072
N  N52  1  0.13970000  0.35260000  0.34230000  0.5 -0.2733424072
N  N53  1  0.13970000  0.64740000  0.15770000  0.5 -0.2800332129
N  N54  1  0.36030000  0.35260000  0.65770000  0.5 -0.2733424072
N  N55  1  0.86030000  0.14740000  0.34230000  0.5 -0.2733424072
N  N56  1  0.63970000  0.85260000  0.84230000  0.5 -0.2733424072
N  N57  1  0.36030000  0.85260000  0.34230000  0.5 -0.2800332129
N  N58  1  0.13970000  0.14740000  0.84230000  0.5 -0.2733424072
N  N59  1  0.63970000  0.35260000  0.15770000  0.5 -0.2733424072
N  N60  1  0.86030000  0.64740000  0.65770000  0.5 -0.2733424072
N  N61  1  0.86030000  0.35260000  0.84230000  0.5 -0.2733424072
N  N62  1  0.63970000  0.64740000  0.34230000  0.5 -0.2733424072
N  N63  1  0.13970000  0.85260000  0.65770000  0.5 -0.2800332129
N  N64  1  0.36030000  0.14740000  0.15770000  0.5 -0.2733424072
N  N65  1  0.60120000  0.38490000  0.59370000  0.5 -0.2733424072
N  N66  1  0.89880000  0.61510000  0.09370000  0.5 -0.2733424072
N  N67  1  0.39880000  0.88490000  0.90630000  0.5 -0.2800332129
N  N68  1  0.10120000  0.11510000  0.40630000  0.5 -0.2733424072
N  N69  1  0.10120000  0.88490000  0.09370000  0.5 -0.2800332129
N  N70  1  0.39880000  0.11510000  0.59370000  0.5 -0.2733424072
N  N71  1  0.89880000  0.38490000  0.40630000  0.5 -0.2733424072
N  N72  1  0.60120000  0.61510000  0.90630000  0.5 -0.2733424072
N  N73  1  0.39880000  0.61510000  0.40630000  0.5 -0.2800332129
N  N74  1  0.10120000  0.38490000  0.90630000  0.5 -0.2733424072
N  N75  1  0.60120000  0.11510000  0.09370000  0.5 -0.2733424072
N  N76  1  0.89880000  0.88490000  0.59370000  0.5 -0.2733424072
N  N77  1  0.89880000  0.11510000  0.90630000  0.5 -0.2733424072
N  N78  1  0.60120000  0.88490000  0.40630000  0.5 -0.2800332129
N  N79  1  0.10120000  0.61510000  0.59370000  0.5 -0.2800332129
N  N80  1  0.39880000  0.38490000  0.09370000  0.5 -0.2733424072
O  O1  1  0.58060000  0.26430000  0.66110000  0.5 -0.4085754401
O  O2  1  0.91940000  0.73570000  0.16110000  0.5 -0.4085754401
O  O3  1  0.41940000  0.76430000  0.83890000  0.5 -0.4085754401
O  O4  1  0.08060000  0.23570000  0.33890000  0.5 -0.4085754401
O  O5  1  0.08060000  0.76430000  0.16110000  0.5 -0.4085754401
O  O6  1  0.41940000  0.23570000  0.66110000  0.5 -0.4085754401
O  O7  1  0.91940000  0.26430000  0.33890000  0.5 -0.4085754401
O  O8  1  0.58060000  0.73570000  0.83890000  0.5 -0.4085754401
O  O9  1  0.41940000  0.73570000  0.33890000  0.5 -0.4085754401
O  O10  1  0.08060000  0.26430000  0.83890000  0.5 -0.4085754401
O  O11  1  0.58060000  0.23570000  0.16110000  0.5 -0.4085754401
O  O12  1  0.91940000  0.76430000  0.66110000  0.5 -0.4085754401
O  O13  1  0.91940000  0.23570000  0.83890000  0.5 -0.4085754401
O  O14  1  0.58060000  0.76430000  0.33890000  0.5 -0.4085754401
O  O15  1  0.08060000  0.73570000  0.66110000  0.5 -0.4085754401
O  O16  1  0.41940000  0.26430000  0.16110000  0.5 -0.4085754401
O  O17  1  0.49870000  0.33550000  0.66520000  0.5 -0.2421758043
O  O18  1  0.00130000  0.66450000  0.16520000  0.5 -0.2421758043
O  O19  1  0.50130000  0.83550000  0.83480000  0.5 -0.2421758043
O  O20  1  0.99870000  0.16450000  0.33480000  0.5 -0.2421758043
O  O21  1  0.99870000  0.83550000  0.16520000  0.5 -0.2421758043
O  O22  1  0.50130000  0.16450000  0.66520000  0.5 -0.2421758043
O  O23  1  0.00130000  0.33550000  0.33480000  0.5 -0.2421758043
O  O24  1  0.49870000  0.66450000  0.83480000  0.5 -0.2421758043
O  O25  1  0.50130000  0.66450000  0.33480000  0.5 -0.2421758043
O  O26  1  0.99870000  0.33550000  0.83480000  0.5 -0.2421758043
O  O27  1  0.49870000  0.16450000  0.16520000  0.5 -0.2421758043
O  O28  1  0.00130000  0.83550000  0.66520000  0.5 -0.2421758043
O  O29  1  0.00130000  0.16450000  0.83480000  0.5 -0.2421758043
O  O30  1  0.49870000  0.83550000  0.33480000  0.5 -0.2421758043
O  O31  1  0.99870000  0.66450000  0.66520000  0.5 -0.2421758043
O  O32  1  0.50130000  0.33550000  0.16520000  0.5 -0.2421758043
O  O33  1  0.57990000  0.26860000  0.58510000  0.5 -0.2733424072
O  O34  1  0.92010000  0.73140000  0.08510000  0.5 -0.2733424072
O  O35  1  0.42010000  0.76860000  0.91490000  0.5 -0.2733424072
O  O36  1  0.07990000  0.23140000  0.41490000  0.5 -0.2733424072
O  O37  1  0.07990000  0.76860000  0.08510000  0.5 -0.2733424072
O  O38  1  0.42010000  0.23140000  0.58510000  0.5 -0.2733424072
O  O39  1  0.92010000  0.26860000  0.41490000  0.5 -0.2733424072
O  O40  1  0.57990000  0.73140000  0.91490000  0.5 -0.2733424072
O  O41  1  0.42010000  0.73140000  0.41490000  0.5 -0.2733424072
O  O42  1  0.07990000  0.26860000  0.91490000  0.5 -0.2733424072
O  O43  1  0.57990000  0.23140000  0.08510000  0.5 -0.2733424072
O  O44  1  0.92010000  0.76860000  0.58510000  0.5 -0.2733424072
O  O45  1  0.92010000  0.23140000  0.91490000  0.5 -0.2733424072
O  O46  1  0.57990000  0.76860000  0.41490000  0.5 -0.2733424072
O  O47  1  0.07990000  0.73140000  0.58510000  0.5 -0.2733424072
O  O48  1  0.42010000  0.26860000  0.08510000  0.5 -0.2733424072
O  O49  1  0.49850000  0.33690000  0.58610000  0.5 -0.2800332129
O  O50  1  0.00150000  0.66310000  0.08610000  0.5 -0.2800332129
O  O51  1  0.50150000  0.83690000  0.91390000  0.5 -0.2800332129
O  O52  1  0.99850000  0.16310000  0.41390000  0.5 -0.2800332129
O  O53  1  0.99850000  0.83690000  0.08610000  0.5 -0.2800332129
O  O54  1  0.50150000  0.16310000  0.58610000  0.5 -0.2800332129
O  O55  1  0.00150000  0.33690000  0.41390000  0.5 -0.2800332129
O  O56  1  0.49850000  0.66310000  0.91390000  0.5 -0.2800332129
O  O57  1  0.50150000  0.66310000  0.41390000  0.5 -0.2800332129
O  O58  1  0.99850000  0.33690000  0.91390000  0.5 -0.2800332129
O  O59  1  0.49850000  0.16310000  0.08610000  0.5 -0.2800332129
O  O60  1  0.00150000  0.83690000  0.58610000  0.5 -0.2800332129
O  O61  1  0.00150000  0.16310000  0.91390000  0.5 -0.2800332129
O  O62  1  0.49850000  0.83690000  0.41390000  0.5 -0.2800332129
O  O63  1  0.99850000  0.66310000  0.58610000  0.5 -0.2800332129
O  O64  1  0.50150000  0.33690000  0.08610000  0.5 -0.2800332129
O  O65  1  0.58220000  0.25260000  0.66220000  0.5 -0.4294682204
O  O66  1  0.91780000  0.74740000  0.16220000  0.5 -0.4294682204
O  O67  1  0.41780000  0.75260000  0.83780000  0.5 -0.4294682204
O  O68  1  0.08220000  0.24740000  0.33780000  0.5 -0.4294682204
O  O69  1  0.08220000  0.75260000  0.16220000  0.5 -0.4294682204
O  O70  1  0.41780000  0.24740000  0.66220000  0.5 -0.4294682204
O  O71  1  0.91780000  0.25260000  0.33780000  0.5 -0.4294682204
O  O72  1  0.58220000  0.74740000  0.83780000  0.5 -0.4294682204
O  O73  1  0.41780000  0.74740000  0.33780000  0.5 -0.4294682204
O  O74  1  0.08220000  0.25260000  0.83780000  0.5 -0.4294682204
O  O75  1  0.58220000  0.24740000  0.16220000  0.5 -0.4294682204
O  O76  1  0.91780000  0.75260000  0.66220000  0.5 -0.4294682204
O  O77  1  0.91780000  0.24740000  0.83780000  0.5 -0.4294682204
O  O78  1  0.58220000  0.75260000  0.33780000  0.5 -0.4294682204
O  O79  1  0.08220000  0.74740000  0.66220000  0.5 -0.4294682204
O  O80  1  0.41780000  0.25260000  0.16220000  0.5 -0.4294682204
O  O81  1  0.58210000  0.25100000  0.58460000  0.5 -0.2800332129
O  O82  1  0.91790000  0.74900000  0.08460000  0.5 -0.2800332129
O  O83  1  0.41790000  0.75100000  0.91540000  0.5 -0.2800332129
O  O84  1  0.08210000  0.24900000  0.41540000  0.5 -0.2800332129
O  O85  1  0.08210000  0.75100000  0.08460000  0.5 -0.2800332129
O  O86  1  0.41790000  0.24900000  0.58460000  0.5 -0.2800332129
O  O87  1  0.91790000  0.25100000  0.41540000  0.5 -0.2800332129
O  O88  1  0.58210000  0.74900000  0.91540000  0.5 -0.2800332129
O  O89  1  0.41790000  0.74900000  0.41540000  0.5 -0.2800332129
O  O90  1  0.08210000  0.25100000  0.91540000  0.5 -0.2800332129
O  O91  1  0.58210000  0.24900000  0.08460000  0.5 -0.2800332129
O  O92  1  0.91790000  0.75100000  0.58460000  0.5 -0.2800332129
O  O93  1  0.91790000  0.24900000  0.91540000  0.5 -0.2800332129
O  O94  1  0.58210000  0.75100000  0.41540000  0.5 -0.2800332129
O  O95  1  0.08210000  0.74900000  0.58460000  0.5 -0.2800332129
O  O96  1  0.41790000  0.25100000  0.08460000  0.5 -0.2800332129
O  O97  1  0.51830000  0.17120000  0.66470000  0.5 -0.2569727621
O  O98  1  0.98170000  0.82880000  0.16470000  0.5 -0.2569727621
O  O99  1  0.48170000  0.67120000  0.83530000  0.5 -0.2569727621
O  O100  1  0.01830000  0.32880000  0.33530000  0.5 -0.2569727621
O  O101  1  0.01830000  0.67120000  0.16470000  0.5 -0.2569727621
O  O102  1  0.48170000  0.32880000  0.66470000  0.5 -0.2569727621
O  O103  1  0.98170000  0.17120000  0.33530000  0.5 -0.2569727621
O  O104  1  0.51830000  0.82880000  0.83530000  0.5 -0.2569727621
O  O105  1  0.48170000  0.82880000  0.33530000  0.5 -0.2569727621
O  O106  1  0.01830000  0.17120000  0.83530000  0.5 -0.2569727621
O  O107  1  0.51830000  0.32880000  0.16470000  0.5 -0.2569727621
O  O108  1  0.98170000  0.67120000  0.66470000  0.5 -0.2569727621
O  O109  1  0.98170000  0.32880000  0.83530000  0.5 -0.2569727621
O  O110  1  0.51830000  0.67120000  0.33530000  0.5 -0.2569727621
O  O111  1  0.01830000  0.82880000  0.66470000  0.5 -0.2569727621
O  O112  1  0.48170000  0.17120000  0.16470000  0.5 -0.2569727621
O  O113  1  0.51680000  0.17150000  0.58890000  0.5 -0.2733424072
O  O114  1  0.98320000  0.82850000  0.08890000  0.5 -0.2733424072
O  O115  1  0.48320000  0.67150000  0.91110000  0.5 -0.2733424072
O  O116  1  0.01680000  0.32850000  0.41110000  0.5 -0.2733424072
O  O117  1  0.01680000  0.67150000  0.08890000  0.5 -0.2733424072
O  O118  1  0.48320000  0.32850000  0.58890000  0.5 -0.2733424072
O  O119  1  0.98320000  0.17150000  0.41110000  0.5 -0.2733424072
O  O120  1  0.51680000  0.82850000  0.91110000  0.5 -0.2733424072
O  O121  1  0.48320000  0.82850000  0.41110000  0.5 -0.2733424072
O  O122  1  0.01680000  0.17150000  0.91110000  0.5 -0.2733424072
O  O123  1  0.51680000  0.32850000  0.08890000  0.5 -0.2733424072
O  O124  1  0.98320000  0.67150000  0.58890000  0.5 -0.2733424072
O  O125  1  0.98320000  0.32850000  0.91110000  0.5 -0.2733424072
O  O126  1  0.51680000  0.67150000  0.41110000  0.5 -0.2733424072
O  O127  1  0.01680000  0.82850000  0.58890000  0.5 -0.2733424072
O  O128  1  0.48320000  0.17150000  0.08890000  0.5 -0.2733424072
O  O129  1  0.54300000  0.29510000  0.87340000  0.5 -0.711505527
O  O130  1  0.95700000  0.70490000  0.37340000  0.5 -0.711505527
O  O131  1  0.45700000  0.79510000  0.62660000  0.5 -0.711505527
O  O132  1  0.04300000  0.20490000  0.12660000  0.5 -0.711505527
O  O133  1  0.04300000  0.79510000  0.37340000  0.5 -0.711505527
O  O134  1  0.45700000  0.20490000  0.87340000  0.5 -0.711505527
O  O135  1  0.95700000  0.29510000  0.12660000  0.5 -0.711505527
O  O136  1  0.54300000  0.70490000  0.62660000  0.5 -0.711505527
O  O137  1  0.45700000  0.70490000  0.12660000  0.5 -0.711505527
O  O138  1  0.04300000  0.29510000  0.62660000  0.5 -0.711505527
O  O139  1  0.54300000  0.20490000  0.37340000  0.5 -0.711505527
O  O140  1  0.95700000  0.79510000  0.87340000  0.5 -0.711505527
O  O141  1  0.95700000  0.20490000  0.62660000  0.5 -0.711505527
O  O142  1  0.54300000  0.79510000  0.12660000  0.5 -0.711505527
O  O143  1  0.04300000  0.70490000  0.87340000  0.5 -0.711505527
O  O144  1  0.45700000  0.29510000  0.37340000  0.5 -0.711505527
O  O145  1  0.87120000  0.25570000  0.64780000  0.5 -0.196846424
O  O146  1  0.62880000  0.74430000  0.14780000  0.5 -0.196846424
O  O147  1  0.12880000  0.75570000  0.85220000  0.5 -0.196846424
O  O148  1  0.37120000  0.24430000  0.35220000  0.5 -0.196846424
O  O149  1  0.37120000  0.75570000  0.14780000  0.5 -0.196846424
O  O150  1  0.12880000  0.24430000  0.64780000  0.5 -0.196846424
O  O151  1  0.62880000  0.25570000  0.35220000  0.5 -0.196846424
O  O152  1  0.87120000  0.74430000  0.85220000  0.5 -0.196846424
O  O153  1  0.12880000  0.74430000  0.35220000  0.5 -0.196846424
O  O154  1  0.37120000  0.25570000  0.85220000  0.5 -0.196846424
O  O155  1  0.87120000  0.24430000  0.14780000  0.5 -0.196846424
O  O156  1  0.62880000  0.75570000  0.64780000  0.5 -0.196846424
O  O157  1  0.62880000  0.24430000  0.85220000  0.5 -0.196846424
O  O158  1  0.87120000  0.75570000  0.35220000  0.5 -0.196846424
O  O159  1  0.37120000  0.74430000  0.64780000  0.5 -0.196846424
O  O160  1  0.12880000  0.25570000  0.14780000  0.5 -0.196846424
O  O161  1  0.53640000  0.87970000  0.61710000  0.5 0.0333525058
O  O162  1  0.96360000  0.12030000  0.11710000  0.5 0.0333525058
O  O163  1  0.46360000  0.37970000  0.88290000  0.5 0.0333525058
O  O164  1  0.03640000  0.62030000  0.38290000  0.5 0.0333525058
O  O165  1  0.03640000  0.37970000  0.11710000  0.5 0.0333525058
O  O166  1  0.46360000  0.62030000  0.61710000  0.5 0.0333525058
O  O167  1  0.96360000  0.87970000  0.38290000  0.5 0.0333525058
O  O168  1  0.53640000  0.12030000  0.88290000  0.5 0.0333525058
O  O169  1  0.46360000  0.12030000  0.38290000  0.5 0.0333525058
O  O170  1  0.03640000  0.87970000  0.88290000  0.5 0.0333525058
O  O171  1  0.53640000  0.62030000  0.11710000  0.5 0.0333525058
O  O172  1  0.96360000  0.37970000  0.61710000  0.5 0.0333525058
O  O173  1  0.96360000  0.62030000  0.88290000  0.5 0.0333525058
O  O174  1  0.53640000  0.37970000  0.38290000  0.5 0.0333525058
O  O175  1  0.03640000  0.12030000  0.61710000  0.5 0.0333525058
O  O176  1  0.46360000  0.87970000  0.11710000  0.5 0.0333525058
O  O177  1  0.58310000  0.89900000  0.67430000  0.5 -0.2128819212
O  O178  1  0.91690000  0.10100000  0.17430000  0.5 -0.2128819212
O  O179  1  0.41690000  0.39900000  0.82570000  0.5 -0.2128819212
O  O180  1  0.08310000  0.60100000  0.32570000  0.5 -0.2128819212
O  O181  1  0.08310000  0.39900000  0.17430000  0.5 -0.2128819212
O  O182  1  0.41690000  0.60100000  0.67430000  0.5 -0.2128819212
O  O183  1  0.91690000  0.89900000  0.32570000  0.5 -0.2128819212
O  O184  1  0.58310000  0.10100000  0.82570000  0.5 -0.2128819212
O  O185  1  0.41690000  0.10100000  0.32570000  0.5 -0.2128819212
O  O186  1  0.08310000  0.89900000  0.82570000  0.5 -0.2128819212
O  O187  1  0.58310000  0.60100000  0.17430000  0.5 -0.2128819212
O  O188  1  0.91690000  0.39900000  0.67430000  0.5 -0.2128819212
O  O189  1  0.91690000  0.60100000  0.82570000  0.5 -0.2128819212
O  O190  1  0.58310000  0.39900000  0.32570000  0.5 -0.2128819212
O  O191  1  0.08310000  0.10100000  0.67430000  0.5 -0.2128819212
O  O192  1  0.41690000  0.89900000  0.17430000  0.5 -0.2128819212
O  O193  1  0.86260000  0.30640000  0.58980000  0.5 0.0203184175
O  O194  1  0.63740000  0.69360000  0.08980000  0.5 0.0203184175
O  O195  1  0.13740000  0.80640000  0.91020000  0.5 0.0203184175
O  O196  1  0.36260000  0.19360000  0.41020000  0.5 0.0203184175
O  O197  1  0.36260000  0.80640000  0.08980000  0.5 0.0203184175
O  O198  1  0.13740000  0.19360000  0.58980000  0.5 0.0203184175
O  O199  1  0.63740000  0.30640000  0.41020000  0.5 0.0203184175
O  O200  1  0.86260000  0.69360000  0.91020000  0.5 0.0203184175
O  O201  1  0.13740000  0.69360000  0.41020000  0.5 0.0203184175
O  O202  1  0.36260000  0.30640000  0.91020000  0.5 0.0203184175
O  O203  1  0.86260000  0.19360000  0.08980000  0.5 0.0203184175
O  O204  1  0.63740000  0.80640000  0.58980000  0.5 0.0203184175
O  O205  1  0.63740000  0.19360000  0.91020000  0.5 0.0203184175
O  O206  1  0.86260000  0.80640000  0.41020000  0.5 0.0203184175
O  O207  1  0.36260000  0.69360000  0.58980000  0.5 0.0203184175
O  O208  1  0.13740000  0.30640000  0.08980000  0.5 0.0203184175
O  O209  1  0.86730000  0.29090000  0.63240000  0.5 0.0203184175
O  O210  1  0.63270000  0.70910000  0.13240000  0.5 0.0203184175
O  O211  1  0.13270000  0.79090000  0.86760000  0.5 0.0203184175
O  O212  1  0.36730000  0.20910000  0.36760000  0.5 0.0203184175
O  O213  1  0.36730000  0.79090000  0.13240000  0.5 0.0203184175
O  O214  1  0.13270000  0.20910000  0.63240000  0.5 0.0203184175
O  O215  1  0.63270000  0.29090000  0.36760000  0.5 0.0203184175
O  O216  1  0.86730000  0.70910000  0.86760000  0.5 0.0203184175
O  O217  1  0.13270000  0.70910000  0.36760000  0.5 0.0203184175
O  O218  1  0.36730000  0.29090000  0.86760000  0.5 0.0203184175
O  O219  1  0.86730000  0.20910000  0.13240000  0.5 0.0203184175
O  O220  1  0.63270000  0.79090000  0.63240000  0.5 0.0203184175
O  O221  1  0.63270000  0.20910000  0.86760000  0.5 0.0203184175
O  O222  1  0.86730000  0.79090000  0.36760000  0.5 0.0203184175
O  O223  1  0.36730000  0.70910000  0.63240000  0.5 0.0203184175
O  O224  1  0.13270000  0.29090000  0.13240000  0.5 0.0203184175
O  O225  1  0.85010000  0.34320000  0.57700000  0.5 -0.2325431093
O  O226  1  0.64990000  0.65680000  0.07700000  0.5 -0.2325431093
O  O227  1  0.14990000  0.84320000  0.92300000  0.5 -0.2325431093
O  O228  1  0.35010000  0.15680000  0.42300000  0.5 -0.2325431093
O  O229  1  0.35010000  0.84320000  0.07700000  0.5 -0.2325431093
O  O230  1  0.14990000  0.15680000  0.57700000  0.5 -0.2325431093
O  O231  1  0.64990000  0.34320000  0.42300000  0.5 -0.2325431093
O  O232  1  0.85010000  0.65680000  0.92300000  0.5 -0.2325431093
O  O233  1  0.14990000  0.65680000  0.42300000  0.5 -0.2325431093
O  O234  1  0.35010000  0.34320000  0.92300000  0.5 -0.2325431093
O  O235  1  0.85010000  0.15680000  0.07700000  0.5 -0.2325431093
O  O236  1  0.64990000  0.84320000  0.57700000  0.5 -0.2325431093
O  O237  1  0.64990000  0.15680000  0.92300000  0.5 -0.2325431093
O  O238  1  0.85010000  0.84320000  0.42300000  0.5 -0.2325431093
O  O239  1  0.35010000  0.65680000  0.57700000  0.5 -0.2325431093
O  O240  1  0.14990000  0.34320000  0.07700000  0.5 -0.2325431093
O  O241  1  0.50270000  0.61890000  0.60420000  0.5 -0.1871533508
O  O242  1  0.99730000  0.38110000  0.10420000  0.5 -0.1871533508
O  O243  1  0.49730000  0.11890000  0.89580000  0.5 -0.1871533508
O  O244  1  0.00270000  0.88110000  0.39580000  0.5 -0.1871533508
O  O245  1  0.00270000  0.11890000  0.10420000  0.5 -0.1871533508
O  O246  1  0.49730000  0.88110000  0.60420000  0.5 -0.1871533508
O  O247  1  0.99730000  0.61890000  0.39580000  0.5 -0.1871533508
O  O248  1  0.50270000  0.38110000  0.89580000  0.5 -0.1871533508
O  O249  1  0.49730000  0.38110000  0.39580000  0.5 -0.1871533508
O  O250  1  0.00270000  0.61890000  0.89580000  0.5 -0.1871533508
O  O251  1  0.50270000  0.88110000  0.10420000  0.5 -0.1871533508
O  O252  1  0.99730000  0.11890000  0.60420000  0.5 -0.1871533508
O  O253  1  0.99730000  0.88110000  0.89580000  0.5 -0.1871533508
O  O254  1  0.50270000  0.11890000  0.39580000  0.5 -0.1871533508
O  O255  1  0.00270000  0.38110000  0.60420000  0.5 -0.1871533508
O  O256  1  0.49730000  0.61890000  0.10420000  0.5 -0.1871533508
O  O257  1  0.43930000  0.62390000  0.65230000  0.5 0.0203184175
O  O258  1  0.06070000  0.37610000  0.15230000  0.5 0.0203184175
O  O259  1  0.56070000  0.12390000  0.84770000  0.5 0.0203184175
O  O260  1  0.93930000  0.87610000  0.34770000  0.5 0.0203184175
O  O261  1  0.93930000  0.12390000  0.15230000  0.5 0.0203184175
O  O262  1  0.56070000  0.87610000  0.65230000  0.5 0.0203184175
O  O263  1  0.06070000  0.62390000  0.34770000  0.5 0.0203184175
O  O264  1  0.43930000  0.37610000  0.84770000  0.5 0.0203184175
O  O265  1  0.56070000  0.37610000  0.34770000  0.5 0.0203184175
O  O266  1  0.93930000  0.62390000  0.84770000  0.5 0.0203184175
O  O267  1  0.43930000  0.87610000  0.15230000  0.5 0.0203184175
O  O268  1  0.06070000  0.12390000  0.65230000  0.5 0.0203184175
O  O269  1  0.06070000  0.87610000  0.84770000  0.5 0.0203184175
O  O270  1  0.43930000  0.12390000  0.34770000  0.5 0.0203184175
O  O271  1  0.93930000  0.37610000  0.65230000  0.5 0.0203184175
O  O272  1  0.56070000  0.62390000  0.15230000  0.5 0.0203184175
