# DDEC6 charges by PACMAN v1.1 (https://github.com/mtap-research/PACMAN-charge/)
data_ja9b10501_si_005_ASR_pacman
_symmetry_space_group_name_H-M   'P 1'
_cell_length_a   18.91550000
_cell_length_b   18.91550000
_cell_length_c   36.69510000
_cell_angle_alpha   90.00000000
_cell_angle_beta   90.00000000
_cell_angle_gamma   90.00000000
_symmetry_Int_Tables_number   1
_chemical_formula_structural   Al16H149.28C229.28N15.84O69.44
_chemical_formula_sum   'Al16 H149.28 C229.28 N15.84 O69.44'
_cell_volume   13129.36514609
_cell_formula_units_Z   1
loop_
 _symmetry_equiv_pos_site_id
 _symmetry_equiv_pos_as_xyz
  1  'x, y, z'
loop_
 _atom_site_type_symbol
 _atom_site_label
 _atom_site_symmetry_multiplicity
 _atom_site_fract_x
 _atom_site_fract_y
 _atom_site_fract_z
 _atom_site_occupancy
 _atom_site_charge
Al  Al1  1  0.10046000  0.87306000  0.91998000  1.0 1.4064203037
Al  Al2  1  0.89954000  0.12694000  0.91998000  1.0 1.4064203037
Al  Al3  1  0.62694000  0.60046000  0.41998000  1.0 1.4064203037
Al  Al4  1  0.37306000  0.39954000  0.41998000  1.0 1.4064203037
Al  Al5  1  0.39954000  0.37306000  0.58002000  1.0 1.4064203037
Al  Al6  1  0.60046000  0.62694000  0.58002000  1.0 1.4064203037
Al  Al7  1  0.87306000  0.10046000  0.08002000  1.0 1.4064203037
Al  Al8  1  0.12694000  0.89954000  0.08002000  1.0 1.4064203037
Al  Al9  1  0.00000000  0.00000000  0.88776000  1.0 1.6371072961
Al  Al10  1  0.50000000  0.50000000  0.38776000  1.0 1.6371072961
Al  Al11  1  0.50000000  0.50000000  0.61224000  1.0 1.6371072961
Al  Al12  1  0.00000000  0.00000000  0.11224000  1.0 1.6371072961
Al  Al13  1  0.16486000  0.83514000  0.00000000  1.0 1.2474610044
Al  Al14  1  0.83514000  0.16486000  0.00000000  1.0 1.2474610044
Al  Al15  1  0.66486000  0.66486000  0.50000000  1.0 1.2474610044
Al  Al16  1  0.33514000  0.33514000  0.50000000  1.0 1.2474610044
H  H1  1  0.99568000  0.93017000  0.94296000  1.0 0.411156757
H  H2  1  0.13387000  0.94725000  0.97131000  1.0 0.4253084121
H  H3  1  0.36752000  0.78793000  0.95578000  1.0 0.127376433
H  H4  1  0.25327000  0.79936000  0.86273000  1.0 0.118714881
H  H5  1  0.71131000  0.02307000  0.89152000  1.0 0.118714881
H  H6  1  0.49449000  0.58214000  0.71564000  1.0 0.118714881
H  H7  1  0.35660000  0.79184000  0.82863000  1.0 0.1014008967
H  H8  1  0.47171000  0.78434000  0.92180000  1.0 0.1014008967
H  H9  1  0.84334000  0.86976000  0.85479000  1.0 0.127376433
H  H10  1  0.60590000  0.74791000  0.67399000  1.0 0.127376433
H  H11  1  0.49650000  0.63669000  0.77279000  1.0 0.1052922294
H  H12  1  0.74650000  0.80596000  0.83429000  1.0 0.1052922294
H  H13  1  0.61479000  0.95752000  0.87215000  1.0 0.1014008967
H  H14  1  0.60927000  0.79875000  0.73068000  1.0 0.1014008967
H  H15  1  0.45189000  0.72840000  0.80803000  1.0 0.1014008967
H  H16  1  0.54668000  0.85269000  0.88295000  1.0 0.1052922294
H  H17  1  0.65119000  0.79906000  0.79119000  1.0 0.1014008967
H  H18  1  0.00432000  0.06983000  0.94296000  1.0 0.411156757
H  H19  1  0.86613000  0.05275000  0.97131000  1.0 0.4253084121
H  H20  1  0.63248000  0.21207000  0.95578000  1.0 0.127376433
H  H21  1  0.74673000  0.20064000  0.86273000  1.0 0.118714881
H  H22  1  0.28869000  0.97693000  0.89152000  1.0 0.118714881
H  H23  1  0.50551000  0.41786000  0.71564000  1.0 0.118714881
H  H24  1  0.64340000  0.20816000  0.82863000  1.0 0.1014008967
H  H25  1  0.52829000  0.21566000  0.92180000  1.0 0.1052922294
H  H26  1  0.15666000  0.13024000  0.85479000  1.0 0.127376433
H  H27  1  0.39410000  0.25209000  0.67399000  1.0 0.127376433
H  H28  1  0.50350000  0.36331000  0.77279000  1.0 0.1052922294
H  H29  1  0.25350000  0.19404000  0.83429000  1.0 0.1052922294
H  H30  1  0.38521000  0.04248000  0.87215000  1.0 0.1014008967
H  H31  1  0.39073000  0.20125000  0.73068000  1.0 0.1014008967
H  H32  1  0.54811000  0.27160000  0.80803000  1.0 0.1014008967
H  H33  1  0.45332000  0.14731000  0.88295000  1.0 0.1052922294
H  H34  1  0.34881000  0.20094000  0.79119000  1.0 0.1014008967
H  H35  1  0.56983000  0.49568000  0.44296000  1.0 0.411156757
H  H36  1  0.55275000  0.63387000  0.47131000  1.0 0.4253084121
H  H37  1  0.71207000  0.86752000  0.45578000  1.0 0.127376433
H  H38  1  0.70064000  0.75327000  0.36273000  1.0 0.118714881
H  H39  1  0.47693000  0.21131000  0.39152000  1.0 0.118714881
H  H40  1  0.91786000  0.99449000  0.21564000  1.0 0.118714881
H  H41  1  0.70816000  0.85660000  0.32863000  1.0 0.1014008967
H  H42  1  0.71566000  0.97171000  0.42180000  1.0 0.1014008967
H  H43  1  0.63024000  0.34334000  0.35479000  1.0 0.127376433
H  H44  1  0.75209000  0.10590000  0.17399000  1.0 0.127376433
H  H45  1  0.86331000  0.99650000  0.27279000  1.0 0.1052922294
H  H46  1  0.69404000  0.24650000  0.33429000  1.0 0.1052922294
H  H47  1  0.54248000  0.11479000  0.37215000  1.0 0.1014008967
H  H48  1  0.70125000  0.10927000  0.23068000  1.0 0.1014008967
H  H49  1  0.77160000  0.95189000  0.30803000  1.0 0.1014008967
H  H50  1  0.64731000  0.04668000  0.38295000  1.0 0.1052922294
H  H51  1  0.70094000  0.15119000  0.29119000  1.0 0.1014008967
H  H52  1  0.43017000  0.50432000  0.44296000  1.0 0.411156757
H  H53  1  0.44725000  0.36613000  0.47131000  1.0 0.4253084121
H  H54  1  0.28793000  0.13248000  0.45578000  1.0 0.127376433
H  H55  1  0.29936000  0.24673000  0.36273000  1.0 0.118714881
H  H56  1  0.52307000  0.78869000  0.39152000  1.0 0.118714881
H  H57  1  0.08214000  0.00551000  0.21564000  1.0 0.118714881
H  H58  1  0.29184000  0.14340000  0.32863000  1.0 0.1014008967
H  H59  1  0.28434000  0.02829000  0.42180000  1.0 0.1052922294
H  H60  1  0.36976000  0.65666000  0.35479000  1.0 0.127376433
H  H61  1  0.24791000  0.89410000  0.17399000  1.0 0.127376433
H  H62  1  0.13669000  0.00350000  0.27279000  1.0 0.1052922294
H  H63  1  0.30596000  0.75350000  0.33429000  1.0 0.1052922294
H  H64  1  0.45752000  0.88521000  0.37215000  1.0 0.1014008967
H  H65  1  0.29875000  0.89073000  0.23068000  1.0 0.1014008967
H  H66  1  0.22840000  0.04811000  0.30803000  1.0 0.1014008967
H  H67  1  0.35269000  0.95332000  0.38295000  1.0 0.1052922294
H  H68  1  0.29906000  0.84881000  0.29119000  1.0 0.1014008967
H  H69  1  0.50432000  0.43017000  0.55704000  1.0 0.411156757
H  H70  1  0.36613000  0.44725000  0.52869000  1.0 0.4253084121
H  H71  1  0.13248000  0.28793000  0.54422000  1.0 0.127376433
H  H72  1  0.24673000  0.29936000  0.63727000  1.0 0.118714881
H  H73  1  0.78869000  0.52307000  0.60848000  1.0 0.118714881
H  H74  1  0.00551000  0.08214000  0.78436000  1.0 0.118714881
H  H75  1  0.14340000  0.29184000  0.67137000  1.0 0.1014008967
H  H76  1  0.02829000  0.28434000  0.57820000  1.0 0.1052922294
H  H77  1  0.65666000  0.36976000  0.64521000  1.0 0.127376433
H  H78  1  0.89410000  0.24791000  0.82601000  1.0 0.127376433
H  H79  1  0.00350000  0.13669000  0.72721000  1.0 0.1052922294
H  H80  1  0.75350000  0.30596000  0.66571000  1.0 0.1052922294
H  H81  1  0.88521000  0.45752000  0.62785000  1.0 0.1014008967
H  H82  1  0.89073000  0.29875000  0.76932000  1.0 0.1014008967
H  H83  1  0.04811000  0.22840000  0.69197000  1.0 0.1014008967
H  H84  1  0.95332000  0.35269000  0.61705000  1.0 0.1052922294
H  H85  1  0.84881000  0.29906000  0.70881000  1.0 0.1014008967
H  H86  1  0.49568000  0.56983000  0.55704000  1.0 0.411156757
H  H87  1  0.63387000  0.55275000  0.52869000  1.0 0.4253084121
H  H88  1  0.86752000  0.71207000  0.54422000  1.0 0.127376433
H  H89  1  0.75327000  0.70064000  0.63727000  1.0 0.118714881
H  H90  1  0.21131000  0.47693000  0.60848000  1.0 0.118714881
H  H91  1  0.99449000  0.91786000  0.78436000  1.0 0.118714881
H  H92  1  0.85660000  0.70816000  0.67137000  1.0 0.1014008967
H  H93  1  0.97171000  0.71566000  0.57820000  1.0 0.1014008967
H  H94  1  0.34334000  0.63024000  0.64521000  1.0 0.127376433
H  H95  1  0.10590000  0.75209000  0.82601000  1.0 0.127376433
H  H96  1  0.99650000  0.86331000  0.72721000  1.0 0.1052922294
H  H97  1  0.24650000  0.69404000  0.66571000  1.0 0.1052922294
H  H98  1  0.11479000  0.54248000  0.62785000  1.0 0.1014008967
H  H99  1  0.10927000  0.70125000  0.76932000  1.0 0.1014008967
H  H100  1  0.95189000  0.77160000  0.69197000  1.0 0.1014008967
H  H101  1  0.04668000  0.64731000  0.61705000  1.0 0.1052922294
H  H102  1  0.15119000  0.70094000  0.70881000  1.0 0.1014008967
H  H103  1  0.93017000  0.99568000  0.05704000  1.0 0.411156757
H  H104  1  0.94725000  0.13387000  0.02869000  1.0 0.4253084121
H  H105  1  0.78793000  0.36752000  0.04422000  1.0 0.127376433
H  H106  1  0.79936000  0.25327000  0.13727000  1.0 0.118714881
H  H107  1  0.02307000  0.71131000  0.10848000  1.0 0.118714881
H  H108  1  0.58214000  0.49449000  0.28436000  1.0 0.118714881
H  H109  1  0.79184000  0.35660000  0.17137000  1.0 0.1014008967
H  H110  1  0.78434000  0.47171000  0.07820000  1.0 0.1014008967
H  H111  1  0.86976000  0.84334000  0.14521000  1.0 0.127376433
H  H112  1  0.74791000  0.60590000  0.32601000  1.0 0.127376433
H  H113  1  0.63669000  0.49650000  0.22721000  1.0 0.1052922294
H  H114  1  0.80596000  0.74650000  0.16571000  1.0 0.1052922294
H  H115  1  0.95752000  0.61479000  0.12785000  1.0 0.1014008967
H  H116  1  0.79875000  0.60927000  0.26932000  1.0 0.1014008967
H  H117  1  0.72840000  0.45189000  0.19197000  1.0 0.1014008967
H  H118  1  0.85269000  0.54668000  0.11705000  1.0 0.1052922294
H  H119  1  0.79906000  0.65119000  0.20881000  1.0 0.1014008967
H  H120  1  0.06983000  0.00432000  0.05704000  1.0 0.411156757
H  H121  1  0.05275000  0.86613000  0.02869000  1.0 0.4253084121
H  H122  1  0.21207000  0.63248000  0.04422000  1.0 0.127376433
H  H123  1  0.20064000  0.74673000  0.13727000  1.0 0.118714881
H  H124  1  0.97693000  0.28869000  0.10848000  1.0 0.118714881
H  H125  1  0.41786000  0.50551000  0.28436000  1.0 0.118714881
H  H126  1  0.20816000  0.64340000  0.17137000  1.0 0.1014008967
H  H127  1  0.21566000  0.52829000  0.07820000  1.0 0.1014008967
H  H128  1  0.13024000  0.15666000  0.14521000  1.0 0.127376433
H  H129  1  0.25209000  0.39410000  0.32601000  1.0 0.127376433
H  H130  1  0.36331000  0.50350000  0.22721000  1.0 0.1052922294
H  H131  1  0.19404000  0.25350000  0.16571000  1.0 0.1052922294
H  H132  1  0.04248000  0.38521000  0.12785000  1.0 0.1014008967
H  H133  1  0.20125000  0.39073000  0.26932000  1.0 0.1014008967
H  H134  1  0.27160000  0.54811000  0.19197000  1.0 0.1014008967
H  H135  1  0.14731000  0.45332000  0.11705000  1.0 0.1052922294
H  H136  1  0.20094000  0.34881000  0.20881000  1.0 0.1014008967
H  H137  1  0.97884000  0.74881000  0.91707000  0.03 0.1830405241
H  H138  1  0.02116000  0.25119000  0.91707000  0.03 0.1830405241
H  H139  1  0.75119000  0.47884000  0.41707000  0.03 0.1830405241
H  H140  1  0.24881000  0.52116000  0.41707000  0.03 0.1830405241
H  H141  1  0.52116000  0.24881000  0.58293000  0.03 0.1830405241
H  H142  1  0.47884000  0.75119000  0.58293000  0.03 0.1830405241
H  H143  1  0.74881000  0.97884000  0.08293000  0.03 0.1830405241
H  H144  1  0.25119000  0.02116000  0.08293000  0.03 0.1830405241
H  H145  1  0.02250000  0.71586000  0.96869000  0.34 0.1642908177
H  H146  1  0.97750000  0.28414000  0.96869000  0.34 0.1642908177
H  H147  1  0.78414000  0.52250000  0.46869000  0.34 0.1642908177
H  H148  1  0.21586000  0.47750000  0.46869000  0.34 0.1642908177
H  H149  1  0.47750000  0.21586000  0.53131000  0.34 0.1642908177
H  H150  1  0.52250000  0.78414000  0.53131000  0.34 0.1642908177
H  H151  1  0.71586000  0.02250000  0.03131000  0.34 0.1642908177
H  H152  1  0.28414000  0.97750000  0.03131000  0.34 0.1642908177
H  H153  1  0.07239000  0.68623000  0.01050000  0.63 0.127376433
H  H154  1  0.92761000  0.31377000  0.01050000  0.63 0.127376433
H  H155  1  0.81377000  0.57239000  0.51050000  0.63 0.127376433
H  H156  1  0.18623000  0.42761000  0.51050000  0.63 0.127376433
H  H157  1  0.42761000  0.18623000  0.48950000  0.63 0.127376433
H  H158  1  0.57239000  0.81377000  0.48950000  0.63 0.127376433
H  H159  1  0.68623000  0.07239000  0.98950000  0.63 0.127376433
H  H160  1  0.31377000  0.92761000  0.98950000  0.63 0.127376433
H  H161  1  0.97950000  0.65447000  0.96634000  0.66 0.1014008967
H  H162  1  0.02050000  0.34553000  0.96634000  0.66 0.1014008967
H  H163  1  0.84553000  0.47950000  0.46634000  0.66 0.1014008967
H  H164  1  0.15447000  0.52050000  0.46634000  0.66 0.1014008967
H  H165  1  0.52050000  0.15447000  0.53366000  0.66 0.1014008967
H  H166  1  0.47950000  0.84553000  0.53366000  0.66 0.1014008967
H  H167  1  0.65447000  0.97950000  0.03366000  0.66 0.1014008967
H  H168  1  0.34553000  0.02050000  0.03366000  0.66 0.1014008967
C  C1  1  0.23415000  0.80345000  0.93299000  1.0 0.5593917204
C  C2  1  0.30035000  0.79259000  0.91210000  1.0 -0.0281692108
C  C3  1  0.54845000  0.62491000  0.65262000  1.0 0.6043589694
C  C4  1  0.36559000  0.78884000  0.92991000  1.0 -0.1202290554
C  C5  1  0.84889000  0.99500000  0.88630000  1.0 0.6102122797
C  C6  1  0.29758000  0.79510000  0.87472000  1.0 -0.1002560275
C  C7  1  0.71854000  0.97878000  0.87989000  1.0 -0.1202290554
C  C8  1  0.78649000  0.95391000  0.87458000  1.0 -0.0430711822
C  C9  1  0.54894000  0.65967000  0.68857000  1.0 -0.0510834574
C  C10  1  0.51718000  0.62658000  0.71855000  1.0 -0.1096385712
C  C11  1  0.35918000  0.79143000  0.85448000  1.0 -0.1588275108
C  C12  1  0.42477000  0.78714000  0.87140000  1.0 0.0613653035
C  C13  1  0.42734000  0.78646000  0.90972000  1.0 -0.151019906
C  C14  1  0.79692000  0.88793000  0.85793000  1.0 -0.1096385712
C  C15  1  0.58366000  0.72495000  0.69396000  1.0 -0.1096385712
C  C16  1  0.51894000  0.65905000  0.75269000  1.0 -0.1588275108
C  C17  1  0.73954000  0.84998000  0.84623000  1.0 -0.1588275108
C  C18  1  0.66114000  0.93962000  0.86840000  1.0 -0.151019906
C  C19  1  0.55242000  0.72259000  0.75781000  1.0 0.0613653035
C  C20  1  0.66972000  0.87567000  0.85174000  1.0 0.0613653035
C  C21  1  0.55237000  0.75929000  0.79336000  1.0 0.0717735168
C  C22  1  0.58540000  0.75500000  0.72747000  1.0 -0.151019906
C  C23  1  0.49170000  0.75494000  0.81590000  1.0 -0.2155632202
C  C24  1  0.60936000  0.83094000  0.83932000  1.0 0.0750434084
C  C25  1  0.54824000  0.82778000  0.86048000  1.0 -0.2155632202
C  C26  1  0.60990000  0.79666000  0.80587000  1.0 -0.2155632202
C  C27  1  0.48987000  0.78928000  0.84956000  1.0 0.0717735168
C  C28  1  0.76585000  0.19655000  0.93299000  1.0 0.5593917204
C  C29  1  0.69965000  0.20741000  0.91210000  1.0 -0.0281692108
C  C30  1  0.45155000  0.37509000  0.65262000  1.0 0.6043589694
C  C31  1  0.63441000  0.21116000  0.92991000  1.0 -0.1202290554
C  C32  1  0.15111000  0.00500000  0.88630000  1.0 0.6102122797
C  C33  1  0.70242000  0.20490000  0.87472000  1.0 -0.1002560275
C  C34  1  0.28146000  0.02122000  0.87989000  1.0 -0.1202290554
C  C35  1  0.21351000  0.04609000  0.87458000  1.0 -0.0430711822
C  C36  1  0.45106000  0.34033000  0.68857000  1.0 -0.0510834574
C  C37  1  0.48282000  0.37342000  0.71855000  1.0 -0.1096385712
C  C38  1  0.64082000  0.20857000  0.85448000  1.0 -0.1588275108
C  C39  1  0.57523000  0.21286000  0.87140000  1.0 0.0613653035
C  C40  1  0.57266000  0.21354000  0.90972000  1.0 -0.151019906
C  C41  1  0.20308000  0.11207000  0.85793000  1.0 -0.1096385712
C  C42  1  0.41634000  0.27505000  0.69396000  1.0 -0.1096385712
C  C43  1  0.48106000  0.34095000  0.75269000  1.0 -0.1588275108
C  C44  1  0.26046000  0.15002000  0.84623000  1.0 -0.1588275108
C  C45  1  0.33886000  0.06038000  0.86840000  1.0 -0.151019906
C  C46  1  0.44758000  0.27741000  0.75781000  1.0 0.0613653035
C  C47  1  0.33028000  0.12433000  0.85174000  1.0 0.0613653035
C  C48  1  0.44763000  0.24071000  0.79336000  1.0 0.0717735168
C  C49  1  0.41460000  0.24500000  0.72747000  1.0 -0.151019906
C  C50  1  0.50830000  0.24506000  0.81590000  1.0 -0.2155632202
C  C51  1  0.39064000  0.16906000  0.83932000  1.0 0.0750434084
C  C52  1  0.45176000  0.17222000  0.86048000  1.0 -0.2155632202
C  C53  1  0.39010000  0.20334000  0.80587000  1.0 -0.2155632202
C  C54  1  0.51013000  0.21072000  0.84956000  1.0 0.0717735168
C  C55  1  0.69655000  0.73415000  0.43299000  1.0 0.5593917204
C  C56  1  0.70741000  0.80035000  0.41210000  1.0 -0.0281692108
C  C57  1  0.87509000  0.04845000  0.15262000  1.0 0.6043589694
C  C58  1  0.71116000  0.86559000  0.42991000  1.0 -0.1202290554
C  C59  1  0.50500000  0.34889000  0.38630000  1.0 0.6102122797
C  C60  1  0.70490000  0.79758000  0.37472000  1.0 -0.1002560275
C  C61  1  0.52122000  0.21854000  0.37989000  1.0 -0.1202290554
C  C62  1  0.54609000  0.28649000  0.37458000  1.0 -0.0430711822
C  C63  1  0.84033000  0.04894000  0.18857000  1.0 -0.0510834574
C  C64  1  0.87342000  0.01718000  0.21855000  1.0 -0.1096385712
C  C65  1  0.70857000  0.85918000  0.35448000  1.0 -0.1588275108
C  C66  1  0.71286000  0.92477000  0.37140000  1.0 0.0613653035
C  C67  1  0.71354000  0.92734000  0.40972000  1.0 -0.151019906
C  C68  1  0.61207000  0.29692000  0.35793000  1.0 -0.1096385712
C  C69  1  0.77505000  0.08366000  0.19396000  1.0 -0.1096385712
C  C70  1  0.84095000  0.01894000  0.25269000  1.0 -0.1588275108
C  C71  1  0.65002000  0.23954000  0.34623000  1.0 -0.1588275108
C  C72  1  0.56038000  0.16114000  0.36840000  1.0 -0.151019906
C  C73  1  0.77741000  0.05242000  0.25781000  1.0 0.0613653035
C  C74  1  0.62433000  0.16972000  0.35174000  1.0 0.0613653035
C  C75  1  0.74071000  0.05237000  0.29336000  1.0 0.0717735168
C  C76  1  0.74500000  0.08540000  0.22747000  1.0 -0.151019906
C  C77  1  0.74506000  0.99170000  0.31590000  1.0 -0.2155632202
C  C78  1  0.66906000  0.10936000  0.33932000  1.0 0.0750434084
C  C79  1  0.67222000  0.04824000  0.36048000  1.0 -0.2155632202
C  C80  1  0.70334000  0.10990000  0.30587000  1.0 -0.2144227194
C  C81  1  0.71072000  0.98987000  0.34956000  1.0 0.0717735168
C  C82  1  0.30345000  0.26585000  0.43299000  1.0 0.5593917204
C  C83  1  0.29259000  0.19965000  0.41210000  1.0 -0.0281692108
C  C84  1  0.12491000  0.95155000  0.15262000  1.0 0.6043589694
C  C85  1  0.28884000  0.13441000  0.42991000  1.0 -0.1202290554
C  C86  1  0.49500000  0.65111000  0.38630000  1.0 0.6102122797
C  C87  1  0.29510000  0.20242000  0.37472000  1.0 -0.1002560275
C  C88  1  0.47878000  0.78146000  0.37989000  1.0 -0.1202290554
C  C89  1  0.45391000  0.71351000  0.37458000  1.0 -0.0430711822
C  C90  1  0.15967000  0.95106000  0.18857000  1.0 -0.0510834574
C  C91  1  0.12658000  0.98282000  0.21855000  1.0 -0.1096385712
C  C92  1  0.29143000  0.14082000  0.35448000  1.0 -0.1588275108
C  C93  1  0.28714000  0.07523000  0.37140000  1.0 0.0613653035
C  C94  1  0.28646000  0.07266000  0.40972000  1.0 -0.151019906
C  C95  1  0.38793000  0.70308000  0.35793000  1.0 -0.1096385712
C  C96  1  0.22495000  0.91634000  0.19396000  1.0 -0.1096385712
C  C97  1  0.15905000  0.98106000  0.25269000  1.0 -0.1588275108
C  C98  1  0.34998000  0.76046000  0.34623000  1.0 -0.1588275108
C  C99  1  0.43962000  0.83886000  0.36840000  1.0 -0.151019906
C  C100  1  0.22259000  0.94758000  0.25781000  1.0 0.0613653035
C  C101  1  0.37567000  0.83028000  0.35174000  1.0 0.0613653035
C  C102  1  0.25929000  0.94763000  0.29336000  1.0 0.0717735168
C  C103  1  0.25500000  0.91460000  0.22747000  1.0 -0.151019906
C  C104  1  0.25494000  0.00830000  0.31590000  1.0 -0.2155632202
C  C105  1  0.33094000  0.89064000  0.33932000  1.0 0.0750434084
C  C106  1  0.32778000  0.95176000  0.36048000  1.0 -0.2155632202
C  C107  1  0.29666000  0.89010000  0.30587000  1.0 -0.2155632202
C  C108  1  0.28928000  0.01013000  0.34956000  1.0 0.0717735168
C  C109  1  0.26585000  0.30345000  0.56701000  1.0 0.5593917204
C  C110  1  0.19965000  0.29259000  0.58790000  1.0 -0.0281692108
C  C111  1  0.95155000  0.12491000  0.84738000  1.0 0.6043589694
C  C112  1  0.13441000  0.28884000  0.57009000  1.0 -0.1202290554
C  C113  1  0.65111000  0.49500000  0.61370000  1.0 0.6102122797
C  C114  1  0.20242000  0.29510000  0.62528000  1.0 -0.1002560275
C  C115  1  0.78146000  0.47878000  0.62011000  1.0 -0.1202290554
C  C116  1  0.71351000  0.45391000  0.62542000  1.0 -0.0430711822
C  C117  1  0.95106000  0.15967000  0.81143000  1.0 -0.0510834574
C  C118  1  0.98282000  0.12658000  0.78145000  1.0 -0.1096385712
C  C119  1  0.14082000  0.29143000  0.64552000  1.0 -0.1588275108
C  C120  1  0.07523000  0.28714000  0.62860000  1.0 0.0613653035
C  C121  1  0.07266000  0.28646000  0.59028000  1.0 -0.151019906
C  C122  1  0.70308000  0.38793000  0.64207000  1.0 -0.1096385712
C  C123  1  0.91634000  0.22495000  0.80604000  1.0 -0.1096385712
C  C124  1  0.98106000  0.15905000  0.74731000  1.0 -0.1588275108
C  C125  1  0.76046000  0.34998000  0.65377000  1.0 -0.1588275108
C  C126  1  0.83886000  0.43962000  0.63160000  1.0 -0.151019906
C  C127  1  0.94758000  0.22259000  0.74219000  1.0 0.0613653035
C  C128  1  0.83028000  0.37567000  0.64826000  1.0 0.0613653035
C  C129  1  0.94763000  0.25929000  0.70664000  1.0 0.0717735168
C  C130  1  0.91460000  0.25500000  0.77253000  1.0 -0.151019906
C  C131  1  0.00830000  0.25494000  0.68410000  1.0 -0.2155632202
C  C132  1  0.89064000  0.33094000  0.66068000  1.0 0.0750434084
C  C133  1  0.95176000  0.32778000  0.63952000  1.0 -0.2155632202
C  C134  1  0.89010000  0.29666000  0.69413000  1.0 -0.2155632202
C  C135  1  0.01013000  0.28928000  0.65044000  1.0 0.0717735168
C  C136  1  0.73415000  0.69655000  0.56701000  1.0 0.5593917204
C  C137  1  0.80035000  0.70741000  0.58790000  1.0 -0.0281692108
C  C138  1  0.04845000  0.87509000  0.84738000  1.0 0.6043589694
C  C139  1  0.86559000  0.71116000  0.57009000  1.0 -0.1202290554
C  C140  1  0.34889000  0.50500000  0.61370000  1.0 0.6102122797
C  C141  1  0.79758000  0.70490000  0.62528000  1.0 -0.1002560275
C  C142  1  0.21854000  0.52122000  0.62011000  1.0 -0.1202290554
C  C143  1  0.28649000  0.54609000  0.62542000  1.0 -0.0430711822
C  C144  1  0.04894000  0.84033000  0.81143000  1.0 -0.0510834574
C  C145  1  0.01718000  0.87342000  0.78145000  1.0 -0.1096385712
C  C146  1  0.85918000  0.70857000  0.64552000  1.0 -0.1588275108
C  C147  1  0.92477000  0.71286000  0.62860000  1.0 0.0613653035
C  C148  1  0.92734000  0.71354000  0.59028000  1.0 -0.151019906
C  C149  1  0.29692000  0.61207000  0.64207000  1.0 -0.1096385712
C  C150  1  0.08366000  0.77505000  0.80604000  1.0 -0.1096385712
C  C151  1  0.01894000  0.84095000  0.74731000  1.0 -0.1588275108
C  C152  1  0.23954000  0.65002000  0.65377000  1.0 -0.1588275108
C  C153  1  0.16114000  0.56038000  0.63160000  1.0 -0.151019906
C  C154  1  0.05242000  0.77741000  0.74219000  1.0 0.0613653035
C  C155  1  0.16972000  0.62433000  0.64826000  1.0 0.0613653035
C  C156  1  0.05237000  0.74071000  0.70664000  1.0 0.0717735168
C  C157  1  0.08540000  0.74500000  0.77253000  1.0 -0.151019906
C  C158  1  0.99170000  0.74506000  0.68410000  1.0 -0.2155632202
C  C159  1  0.10936000  0.66906000  0.66068000  1.0 0.0750434084
C  C160  1  0.04824000  0.67222000  0.63952000  1.0 -0.2155632202
C  C161  1  0.10990000  0.70334000  0.69413000  1.0 -0.2155632202
C  C162  1  0.98987000  0.71072000  0.65044000  1.0 0.0717735168
C  C163  1  0.80345000  0.23415000  0.06701000  1.0 0.5593917204
C  C164  1  0.79259000  0.30035000  0.08790000  1.0 -0.0281692108
C  C165  1  0.62491000  0.54845000  0.34738000  1.0 0.6043589694
C  C166  1  0.78884000  0.36559000  0.07009000  1.0 -0.1202290554
C  C167  1  0.99500000  0.84889000  0.11370000  1.0 0.6102122797
C  C168  1  0.79510000  0.29758000  0.12528000  1.0 -0.1002560275
C  C169  1  0.97878000  0.71854000  0.12011000  1.0 -0.1202290554
C  C170  1  0.95391000  0.78649000  0.12542000  1.0 -0.0430711822
C  C171  1  0.65967000  0.54894000  0.31143000  1.0 -0.0510834574
C  C172  1  0.62658000  0.51718000  0.28145000  1.0 -0.1096385712
C  C173  1  0.79143000  0.35918000  0.14552000  1.0 -0.1588275108
C  C174  1  0.78714000  0.42477000  0.12860000  1.0 0.0613653035
C  C175  1  0.78646000  0.42734000  0.09028000  1.0 -0.151019906
C  C176  1  0.88793000  0.79692000  0.14207000  1.0 -0.1096385712
C  C177  1  0.72495000  0.58366000  0.30604000  1.0 -0.1096385712
C  C178  1  0.65905000  0.51894000  0.24731000  1.0 -0.1588275108
C  C179  1  0.84998000  0.73954000  0.15377000  1.0 -0.1588275108
C  C180  1  0.93962000  0.66114000  0.13160000  1.0 -0.151019906
C  C181  1  0.72259000  0.55242000  0.24219000  1.0 0.0613653035
C  C182  1  0.87567000  0.66972000  0.14826000  1.0 0.0613653035
C  C183  1  0.75929000  0.55237000  0.20664000  1.0 0.0717735168
C  C184  1  0.75500000  0.58540000  0.27253000  1.0 -0.151019906
C  C185  1  0.75494000  0.49170000  0.18410000  1.0 -0.2155632202
C  C186  1  0.83094000  0.60936000  0.16068000  1.0 0.0750434084
C  C187  1  0.82778000  0.54824000  0.13952000  1.0 -0.2155632202
C  C188  1  0.79666000  0.60990000  0.19413000  1.0 -0.2144227194
C  C189  1  0.78928000  0.48987000  0.15044000  1.0 0.0717735168
C  C190  1  0.19655000  0.76585000  0.06701000  1.0 0.5593917204
C  C191  1  0.20741000  0.69965000  0.08790000  1.0 -0.0281692108
C  C192  1  0.37509000  0.45155000  0.34738000  1.0 0.6043589694
C  C193  1  0.21116000  0.63441000  0.07009000  1.0 -0.1202290554
C  C194  1  0.00500000  0.15111000  0.11370000  1.0 0.6102122797
C  C195  1  0.20490000  0.70242000  0.12528000  1.0 -0.1002560275
C  C196  1  0.02122000  0.28146000  0.12011000  1.0 -0.1202290554
C  C197  1  0.04609000  0.21351000  0.12542000  1.0 -0.0430711822
C  C198  1  0.34033000  0.45106000  0.31143000  1.0 -0.0510834574
C  C199  1  0.37342000  0.48282000  0.28145000  1.0 -0.1096385712
C  C200  1  0.20857000  0.64082000  0.14552000  1.0 -0.1588275108
C  C201  1  0.21286000  0.57523000  0.12860000  1.0 0.0613653035
C  C202  1  0.21354000  0.57266000  0.09028000  1.0 -0.151019906
C  C203  1  0.11207000  0.20308000  0.14207000  1.0 -0.1096385712
C  C204  1  0.27505000  0.41634000  0.30604000  1.0 -0.1096385712
C  C205  1  0.34095000  0.48106000  0.24731000  1.0 -0.1588275108
C  C206  1  0.15002000  0.26046000  0.15377000  1.0 -0.1588275108
C  C207  1  0.06038000  0.33886000  0.13160000  1.0 -0.151019906
C  C208  1  0.27741000  0.44758000  0.24219000  1.0 0.0613653035
C  C209  1  0.12433000  0.33028000  0.14826000  1.0 0.0613653035
C  C210  1  0.24071000  0.44763000  0.20664000  1.0 0.0717735168
C  C211  1  0.24500000  0.41460000  0.27253000  1.0 -0.151019906
C  C212  1  0.24506000  0.50830000  0.18410000  1.0 -0.2155632202
C  C213  1  0.16906000  0.39064000  0.16068000  1.0 0.0717735168
C  C214  1  0.17222000  0.45176000  0.13952000  1.0 -0.2155632202
C  C215  1  0.20334000  0.39010000  0.19413000  1.0 -0.2144227194
C  C216  1  0.21072000  0.51013000  0.15044000  1.0 0.0717735168
C  C217  1  0.05510000  0.75290000  0.96390000  0.34 0.127376433
C  C218  1  0.94490000  0.24710000  0.96390000  0.34 0.1351697458
C  C219  1  0.74710000  0.55510000  0.46390000  0.34 0.1351697458
C  C220  1  0.25290000  0.44490000  0.46390000  0.34 0.127376433
C  C221  1  0.44490000  0.25290000  0.53610000  0.34 0.127376433
C  C222  1  0.55510000  0.74710000  0.53610000  0.34 0.1351697458
C  C223  1  0.75290000  0.05510000  0.03610000  0.34 0.1351697458
C  C224  1  0.24710000  0.94490000  0.03610000  0.34 0.1351697458
C  C225  1  0.00940000  0.69475000  0.96513000  0.66 -0.1202290554
C  C226  1  0.06052000  0.71259000  0.98933000  0.66 -0.0430711822
C  C227  1  0.99060000  0.30525000  0.96513000  0.66 -0.1259189786
C  C228  1  0.93948000  0.28741000  0.98933000  0.66 -0.0430711822
C  C229  1  0.80525000  0.50940000  0.46513000  0.66 -0.1259189786
C  C230  1  0.78741000  0.56052000  0.48933000  0.66 -0.0430711822
C  C231  1  0.19475000  0.49060000  0.46513000  0.66 -0.1202290554
C  C232  1  0.21259000  0.43948000  0.48933000  0.66 -0.0430711822
C  C233  1  0.49060000  0.19475000  0.53487000  0.66 -0.1259189786
C  C234  1  0.43948000  0.21259000  0.51067000  0.66 -0.0430711822
C  C235  1  0.50940000  0.80525000  0.53487000  0.66 -0.1202290554
C  C236  1  0.56052000  0.78741000  0.51067000  0.66 -0.0430711822
C  C237  1  0.69475000  0.00940000  0.03487000  0.66 -0.1202290554
C  C238  1  0.71259000  0.06052000  0.01067000  0.66 -0.0430711822
C  C239  1  0.30525000  0.99060000  0.03487000  0.66 -0.1202290554
C  C240  1  0.28741000  0.93948000  0.01067000  0.66 -0.0430711822
N  N1  1  0.05742000  0.79320000  0.94629000  0.66 -0.0126837549
N  N2  1  0.00893000  0.74728000  0.93779000  0.66 -0.1771888516
N  N3  1  0.09160000  0.77230000  0.97910000  0.66 -0.0510834574
N  N4  1  0.94258000  0.20680000  0.94629000  0.66 -0.0126837549
N  N5  1  0.99107000  0.25272000  0.93779000  0.66 -0.1747338639
N  N6  1  0.90840000  0.22770000  0.97910000  0.66 -0.0510834574
N  N7  1  0.70680000  0.55742000  0.44629000  0.66 -0.0126837549
N  N8  1  0.75272000  0.50893000  0.43779000  0.66 -0.1771888516
N  N9  1  0.72770000  0.59160000  0.47910000  0.66 -0.0510834574
N  N10  1  0.29320000  0.44258000  0.44629000  0.66 -0.0126837549
N  N11  1  0.24728000  0.49107000  0.43779000  0.66 -0.1771888516
N  N12  1  0.27230000  0.40840000  0.47910000  0.66 -0.0510834574
N  N13  1  0.44258000  0.29320000  0.55371000  0.66 -0.0126837549
N  N14  1  0.49107000  0.24728000  0.56221000  0.66 -0.1771888516
N  N15  1  0.40840000  0.27230000  0.52090000  0.66 -0.0510834574
N  N16  1  0.55742000  0.70680000  0.55371000  0.66 -0.0126837549
N  N17  1  0.50893000  0.75272000  0.56221000  0.66 -0.1771888516
N  N18  1  0.59160000  0.72770000  0.52090000  0.66 -0.0510834574
N  N19  1  0.79320000  0.05742000  0.05371000  0.66 -0.0126837549
N  N20  1  0.74728000  0.00893000  0.06221000  0.66 -0.1771888516
N  N21  1  0.77230000  0.09160000  0.02090000  0.66 -0.0510834574
N  N22  1  0.20680000  0.94258000  0.05371000  0.66 -0.0126837549
N  N23  1  0.25272000  0.99107000  0.06221000  0.66 -0.1771888516
N  N24  1  0.22770000  0.90840000  0.02090000  0.66 -0.0510834574
O  O1  1  0.10470000  0.75400000  0.98450000  0.34 -0.151019906
O  O2  1  0.03590000  0.79600000  0.93412000  0.34 -0.0430711822
O  O3  1  0.89530000  0.24600000  0.98450000  0.34 -0.151019906
O  O4  1  0.96410000  0.20400000  0.93412000  0.34 -0.0430711822
O  O5  1  0.74600000  0.60470000  0.48450000  0.34 -0.151019906
O  O6  1  0.70400000  0.53590000  0.43412000  0.34 -0.0430711822
O  O7  1  0.25400000  0.39530000  0.48450000  0.34 -0.151019906
O  O8  1  0.29600000  0.46410000  0.43412000  0.34 -0.0430711822
O  O9  1  0.39530000  0.25400000  0.51550000  0.34 -0.151019906
O  O10  1  0.46410000  0.29600000  0.56588000  0.34 -0.0430711822
O  O11  1  0.60470000  0.74600000  0.51550000  0.34 -0.151019906
O  O12  1  0.53590000  0.70400000  0.56588000  0.34 -0.0430711822
O  O13  1  0.75400000  0.10470000  0.01550000  0.34 -0.151019906
O  O14  1  0.79600000  0.03590000  0.06588000  0.34 -0.0430711822
O  O15  1  0.24600000  0.89530000  0.01550000  0.34 -0.151019906
O  O16  1  0.20400000  0.96410000  0.06588000  0.34 -0.0430711822
O  O17  1  0.02502000  0.93348000  0.92202000  1.0 -0.9342904629
O  O18  1  0.13320000  0.89839000  0.96533000  1.0 -0.8603382723
O  O19  1  0.17888000  0.81139000  0.91444000  1.0 -0.5595054717
O  O20  1  0.23663000  0.80384000  0.96774000  1.0 -0.5698624493
O  O21  1  0.84020000  0.05748000  0.89717000  1.0 -0.5790640281
O  O22  1  0.90783000  0.96309000  0.88498000  1.0 -0.5918622593
O  O23  1  0.57366000  0.66052000  0.62617000  1.0 -0.5918622593
O  O24  1  0.52399000  0.56369000  0.65063000  1.0 -0.5790640281
O  O25  1  0.97498000  0.06652000  0.92202000  1.0 -0.9342904629
O  O26  1  0.86680000  0.10161000  0.96533000  1.0 -0.8603382723
O  O27  1  0.82112000  0.18861000  0.91444000  1.0 -0.5595054717
O  O28  1  0.76337000  0.19616000  0.96774000  1.0 -0.5698624493
O  O29  1  0.15980000  0.94252000  0.89717000  1.0 -0.5790640281
O  O30  1  0.09217000  0.03691000  0.88498000  1.0 -0.5918622593
O  O31  1  0.42634000  0.33948000  0.62617000  1.0 -0.5918622593
O  O32  1  0.47601000  0.43631000  0.65063000  1.0 -0.5790640281
O  O33  1  0.56652000  0.52502000  0.42202000  1.0 -0.9342904629
O  O34  1  0.60161000  0.63320000  0.46533000  1.0 -0.8603382723
O  O35  1  0.68861000  0.67888000  0.41444000  1.0 -0.5595054717
O  O36  1  0.69616000  0.73663000  0.46774000  1.0 -0.5698624493
O  O37  1  0.44252000  0.34020000  0.39717000  1.0 -0.5790640281
O  O38  1  0.53691000  0.40783000  0.38498000  1.0 -0.5918622593
O  O39  1  0.83948000  0.07366000  0.12617000  1.0 -0.5918622593
O  O40  1  0.93631000  0.02399000  0.15063000  1.0 -0.5790640281
O  O41  1  0.43348000  0.47498000  0.42202000  1.0 -0.9342904629
O  O42  1  0.39839000  0.36680000  0.46533000  1.0 -0.8603382723
O  O43  1  0.31139000  0.32112000  0.41444000  1.0 -0.5595054717
O  O44  1  0.30384000  0.26337000  0.46774000  1.0 -0.5698624493
O  O45  1  0.55748000  0.65980000  0.39717000  1.0 -0.5790640281
O  O46  1  0.46309000  0.59217000  0.38498000  1.0 -0.5918622593
O  O47  1  0.16052000  0.92634000  0.12617000  1.0 -0.5918622593
O  O48  1  0.06369000  0.97601000  0.15063000  1.0 -0.5790640281
O  O49  1  0.47498000  0.43348000  0.57798000  1.0 -0.9342904629
O  O50  1  0.36680000  0.39839000  0.53467000  1.0 -0.8603382723
O  O51  1  0.32112000  0.31139000  0.58556000  1.0 -0.5595054717
O  O52  1  0.26337000  0.30384000  0.53226000  1.0 -0.5698624493
O  O53  1  0.65980000  0.55748000  0.60283000  1.0 -0.5790640281
O  O54  1  0.59217000  0.46309000  0.61502000  1.0 -0.5918622593
O  O55  1  0.92634000  0.16052000  0.87383000  1.0 -0.5918622593
O  O56  1  0.97601000  0.06369000  0.84937000  1.0 -0.5790640281
O  O57  1  0.52502000  0.56652000  0.57798000  1.0 -0.9342904629
O  O58  1  0.63320000  0.60161000  0.53467000  1.0 -0.8603382723
O  O59  1  0.67888000  0.68861000  0.58556000  1.0 -0.5595054717
O  O60  1  0.73663000  0.69616000  0.53226000  1.0 -0.5698624493
O  O61  1  0.34020000  0.44252000  0.60283000  1.0 -0.5790640281
O  O62  1  0.40783000  0.53691000  0.61502000  1.0 -0.5918622593
O  O63  1  0.07366000  0.83948000  0.87383000  1.0 -0.5918622593
O  O64  1  0.02399000  0.93631000  0.84937000  1.0 -0.5790640281
O  O65  1  0.93348000  0.02502000  0.07798000  1.0 -0.9342904629
O  O66  1  0.89839000  0.13320000  0.03467000  1.0 -0.8603382723
O  O67  1  0.81139000  0.17888000  0.08556000  1.0 -0.5595054717
O  O68  1  0.80384000  0.23663000  0.03226000  1.0 -0.5698624493
O  O69  1  0.05748000  0.84020000  0.10283000  1.0 -0.5790640281
O  O70  1  0.96309000  0.90783000  0.11502000  1.0 -0.5918622593
O  O71  1  0.66052000  0.57366000  0.37383000  1.0 -0.5918622593
O  O72  1  0.56369000  0.52399000  0.34937000  1.0 -0.5790640281
O  O73  1  0.06652000  0.97498000  0.07798000  1.0 -0.9342904629
O  O74  1  0.10161000  0.86680000  0.03467000  1.0 -0.8603382723
O  O75  1  0.18861000  0.82112000  0.08556000  1.0 -0.5595054717
O  O76  1  0.19616000  0.76337000  0.03226000  1.0 -0.5698624493
O  O77  1  0.94252000  0.15980000  0.10283000  1.0 -0.5790640281
O  O78  1  0.03691000  0.09217000  0.11502000  1.0 -0.5918622593
O  O79  1  0.33948000  0.42634000  0.37383000  1.0 -0.5918622593
O  O80  1  0.43631000  0.47601000  0.34937000  1.0 -0.5790640281
