# DDEC6 charges by PACMAN v1.1 (https://github.com/mtap-research/PACMAN-charge/)
data_ja7b02272_si_014_FSR_pacman
_symmetry_space_group_name_H-M   'P 1'
_cell_length_a   29.74400000
_cell_length_b   29.74400000
_cell_length_c   34.55000000
_cell_angle_alpha   90.00000000
_cell_angle_beta   90.00000000
_cell_angle_gamma   90.00000000
_symmetry_Int_Tables_number   1
_chemical_formula_structural   ZnH10(C7N2)2
_chemical_formula_sum   'Zn52 H520 C728 N208'
_cell_volume   30566.57626880
_cell_formula_units_Z   52
loop_
 _symmetry_equiv_pos_site_id
 _symmetry_equiv_pos_as_xyz
  1  'x, y, z'
loop_
 _atom_site_type_symbol
 _atom_site_label
 _atom_site_symmetry_multiplicity
 _atom_site_fract_x
 _atom_site_fract_y
 _atom_site_fract_z
 _atom_site_occupancy
 _atom_site_charge
Zn  Zn1  1  0.20180000  0.84190000  0.17360000  1.0 0.6589733709
Zn  Zn2  1  0.18140000  0.96580000  0.04640000  1.0 0.6512375039
Zn  Zn3  1  0.14120000  0.77770000  0.01960000  1.0 0.6512375039
Zn  Zn4  1  0.79820000  0.15810000  0.17360000  1.0 0.6589733709
Zn  Zn5  1  0.81860000  0.03420000  0.04640000  1.0 0.6512375039
Zn  Zn6  1  0.85880000  0.22230000  0.01960000  1.0 0.6512375039
Zn  Zn7  1  0.65810000  0.70180000  0.67360000  1.0 0.6589733709
Zn  Zn8  1  0.53420000  0.68140000  0.54640000  1.0 0.6512375039
Zn  Zn9  1  0.72230000  0.64120000  0.51960000  1.0 0.6512375039
Zn  Zn10  1  0.34190000  0.29820000  0.67360000  1.0 0.6589733709
Zn  Zn11  1  0.46580000  0.31860000  0.54640000  1.0 0.6512375039
Zn  Zn12  1  0.27770000  0.35880000  0.51960000  1.0 0.6512375039
Zn  Zn13  1  0.29820000  0.34190000  0.82640000  1.0 0.6589733709
Zn  Zn14  1  0.31860000  0.46580000  0.95360000  1.0 0.6512375039
Zn  Zn15  1  0.35880000  0.27770000  0.98040000  1.0 0.6512375039
Zn  Zn16  1  0.70180000  0.65810000  0.82640000  1.0 0.6589733709
Zn  Zn17  1  0.68140000  0.53420000  0.95360000  1.0 0.6512375039
Zn  Zn18  1  0.64120000  0.72230000  0.98040000  1.0 0.6512375039
Zn  Zn19  1  0.84190000  0.20180000  0.32640000  1.0 0.6589733709
Zn  Zn20  1  0.96580000  0.18140000  0.45360000  1.0 0.6512375039
Zn  Zn21  1  0.77770000  0.14120000  0.48040000  1.0 0.6512375039
Zn  Zn22  1  0.15810000  0.79820000  0.32640000  1.0 0.6589733709
Zn  Zn23  1  0.03420000  0.81860000  0.45360000  1.0 0.6512375039
Zn  Zn24  1  0.22230000  0.85880000  0.48040000  1.0 0.6512375039
Zn  Zn25  1  0.29820000  0.65810000  0.32640000  1.0 0.6589733709
Zn  Zn26  1  0.31860000  0.53420000  0.45360000  1.0 0.6512375039
Zn  Zn27  1  0.35880000  0.72230000  0.48040000  1.0 0.6512375039
Zn  Zn28  1  0.70180000  0.34190000  0.32640000  1.0 0.6589733709
Zn  Zn29  1  0.68140000  0.46580000  0.45360000  1.0 0.6512375039
Zn  Zn30  1  0.64120000  0.27770000  0.48040000  1.0 0.6512375039
Zn  Zn31  1  0.84190000  0.79820000  0.82640000  1.0 0.6589733709
Zn  Zn32  1  0.96580000  0.81860000  0.95360000  1.0 0.6512375039
Zn  Zn33  1  0.77770000  0.85880000  0.98040000  1.0 0.6512375039
Zn  Zn34  1  0.15810000  0.20180000  0.82640000  1.0 0.6589733709
Zn  Zn35  1  0.03420000  0.18140000  0.95360000  1.0 0.6512375039
Zn  Zn36  1  0.22230000  0.14120000  0.98040000  1.0 0.6512375039
Zn  Zn37  1  0.20180000  0.15810000  0.67360000  1.0 0.6589733709
Zn  Zn38  1  0.18140000  0.03420000  0.54640000  1.0 0.6512375039
Zn  Zn39  1  0.14120000  0.22230000  0.51960000  1.0 0.6512375039
Zn  Zn40  1  0.79820000  0.84190000  0.67360000  1.0 0.6589733709
Zn  Zn41  1  0.81860000  0.96580000  0.54640000  1.0 0.6512375039
Zn  Zn42  1  0.85880000  0.77770000  0.51960000  1.0 0.6512375039
Zn  Zn43  1  0.65810000  0.29820000  0.17360000  1.0 0.6589733709
Zn  Zn44  1  0.53420000  0.31860000  0.04640000  1.0 0.6512375039
Zn  Zn45  1  0.72230000  0.35880000  0.01960000  1.0 0.6512375039
Zn  Zn46  1  0.34190000  0.70180000  0.17360000  1.0 0.6589733709
Zn  Zn47  1  0.46580000  0.68140000  0.04640000  1.0 0.6512375039
Zn  Zn48  1  0.27770000  0.64120000  0.01960000  1.0 0.6512375039
Zn  Zn49  1  0.00000000  0.00000000  0.00000000  1.0 0.6777509798
Zn  Zn50  1  0.50000000  0.50000000  0.50000000  1.0 0.6777509798
Zn  Zn51  1  0.50000000  0.50000000  0.00000000  1.0 0.6777509798
Zn  Zn52  1  0.00000000  0.00000000  0.50000000  1.0 0.6777509798
H  H1  1  0.00290000  0.07010000  0.06590000  1.0 0.1398423679
H  H2  1  0.03870000  0.11960000  0.10780000  1.0 0.1192597713
H  H3  1  0.11230000  0.11170000  0.12440000  1.0 0.1192597713
H  H4  1  0.15450000  0.05270000  0.09810000  1.0 0.1294948197
H  H5  1  0.08690000  0.94700000  0.00600000  1.0 0.112352821
H  H6  1  0.21450000  0.87770000  0.08660000  1.0 0.092285109
H  H7  1  0.23260000  0.92930000  0.21580000  1.0 0.1192597713
H  H8  1  0.23330000  0.00760000  0.22870000  1.0 0.1192597713
H  H9  1  0.22540000  0.05970000  0.17780000  1.0 0.1192597713
H  H10  1  0.21680000  0.03440000  0.11310000  1.0 0.1192597713
H  H11  1  0.12890000  0.87440000  0.04320000  1.0 0.112352821
H  H12  1  0.21550000  0.80020000  0.94140000  1.0 0.1398423679
H  H13  1  0.27200000  0.83880000  0.90920000  1.0 0.1192597713
H  H14  1  0.28750000  0.91210000  0.92170000  1.0 0.1192597713
H  H15  1  0.24650000  0.95050000  0.96890000  1.0 0.1294948197
H  H16  1  0.21490000  0.80430000  0.08680000  1.0 0.112352821
H  H17  1  0.06350000  0.73360000  0.07330000  1.0 0.1294948197
H  H18  1  0.01180000  0.73580000  0.12490000  1.0 0.1192597713
H  H19  1  0.02950000  0.76740000  0.18410000  1.0 0.1192597713
H  H20  1  0.10120000  0.80040000  0.19360000  1.0 0.1294948197
H  H21  1  0.05410000  0.83020000  0.99990000  1.0 0.1031575612
H  H22  1  0.95170000  0.71100000  0.97360000  1.0 0.1294948197
H  H23  1  0.97860000  0.63600000  0.96910000  1.0 0.112352821
H  H24  1  0.05570000  0.62050000  0.97660000  1.0 0.112352821
H  H25  1  0.10730000  0.67950000  0.98970000  1.0 0.1294948197
H  H26  1  0.13390000  0.74610000  0.92540000  1.0 0.1294948197
H  H27  1  0.16030000  0.71610000  0.86640000  1.0 0.1192597713
H  H28  1  0.12750000  0.93520000  0.19180000  1.0 0.1294948197
H  H29  1  0.06270000  0.96720000  0.22160000  1.0 0.1192597713
H  H30  1  0.26990000  0.87960000  0.24590000  1.0 0.1192597713
H  H31  1  0.32100000  0.87790000  0.29800000  1.0 0.112352821
H  H32  1  0.99710000  0.92990000  0.06590000  1.0 0.1398423679
H  H33  1  0.96130000  0.88040000  0.10780000  1.0 0.1192597713
H  H34  1  0.88770000  0.88830000  0.12440000  1.0 0.1192597713
H  H35  1  0.84550000  0.94730000  0.09810000  1.0 0.1294948197
H  H36  1  0.91310000  0.05300000  0.00600000  1.0 0.112352821
H  H37  1  0.78550000  0.12230000  0.08660000  1.0 0.092285109
H  H38  1  0.76740000  0.07070000  0.21580000  1.0 0.1192597713
H  H39  1  0.76670000  0.99240000  0.22870000  1.0 0.1192597713
H  H40  1  0.77460000  0.94030000  0.17780000  1.0 0.1192597713
H  H41  1  0.78320000  0.96560000  0.11310000  1.0 0.1192597713
H  H42  1  0.87110000  0.12560000  0.04320000  1.0 0.112352821
H  H43  1  0.78450000  0.19980000  0.94140000  1.0 0.1398423679
H  H44  1  0.72800000  0.16120000  0.90920000  1.0 0.1192597713
H  H45  1  0.71250000  0.08790000  0.92170000  1.0 0.1192597713
H  H46  1  0.75350000  0.04950000  0.96890000  1.0 0.1294948197
H  H47  1  0.78510000  0.19570000  0.08680000  1.0 0.112352821
H  H48  1  0.93650000  0.26640000  0.07330000  1.0 0.1294948197
H  H49  1  0.98820000  0.26420000  0.12490000  1.0 0.1192597713
H  H50  1  0.97050000  0.23260000  0.18410000  1.0 0.1192597713
H  H51  1  0.89880000  0.19960000  0.19360000  1.0 0.1294948197
H  H52  1  0.94590000  0.16980000  0.99990000  1.0 0.1031575612
H  H53  1  0.04830000  0.28900000  0.97360000  1.0 0.1294948197
H  H54  1  0.02140000  0.36400000  0.96910000  1.0 0.112352821
H  H55  1  0.94430000  0.37950000  0.97660000  1.0 0.112352821
H  H56  1  0.89270000  0.32050000  0.98970000  1.0 0.1294948197
H  H57  1  0.86610000  0.25390000  0.92540000  1.0 0.1294948197
H  H58  1  0.83970000  0.28390000  0.86640000  1.0 0.1192597713
H  H59  1  0.87250000  0.06480000  0.19180000  1.0 0.1294948197
H  H60  1  0.93730000  0.03280000  0.22160000  1.0 0.1192597713
H  H61  1  0.73010000  0.12040000  0.24590000  1.0 0.1192597713
H  H62  1  0.67900000  0.12210000  0.29800000  1.0 0.112352821
H  H63  1  0.42990000  0.50290000  0.56590000  1.0 0.1398423679
H  H64  1  0.38040000  0.53870000  0.60780000  1.0 0.1192597713
H  H65  1  0.38830000  0.61230000  0.62440000  1.0 0.1192597713
H  H66  1  0.44730000  0.65450000  0.59810000  1.0 0.1294948197
H  H67  1  0.55300000  0.58690000  0.50600000  1.0 0.112352821
H  H68  1  0.62230000  0.71450000  0.58660000  1.0 0.092285109
H  H69  1  0.57070000  0.73260000  0.71580000  1.0 0.1192597713
H  H70  1  0.49240000  0.73330000  0.72870000  1.0 0.1192597713
H  H71  1  0.44030000  0.72540000  0.67780000  1.0 0.112352821
H  H72  1  0.46560000  0.71680000  0.61310000  1.0 0.1192597713
H  H73  1  0.62560000  0.62890000  0.54320000  1.0 0.112352821
H  H74  1  0.69980000  0.71550000  0.44140000  1.0 0.1398423679
H  H75  1  0.66120000  0.77200000  0.40920000  1.0 0.1192597713
H  H76  1  0.58790000  0.78750000  0.42170000  1.0 0.1192597713
H  H77  1  0.54950000  0.74650000  0.46890000  1.0 0.1294948197
H  H78  1  0.69570000  0.71490000  0.58680000  1.0 0.112352821
H  H79  1  0.76640000  0.56350000  0.57330000  1.0 0.1294948197
H  H80  1  0.76420000  0.51180000  0.62490000  1.0 0.1192597713
H  H81  1  0.73260000  0.52950000  0.68410000  1.0 0.1192597713
H  H82  1  0.69960000  0.60120000  0.69360000  1.0 0.1294948197
H  H83  1  0.66980000  0.55410000  0.49990000  1.0 0.1031575612
H  H84  1  0.78900000  0.45170000  0.47360000  1.0 0.1294948197
H  H85  1  0.86400000  0.47860000  0.46910000  1.0 0.112352821
H  H86  1  0.87950000  0.55570000  0.47660000  1.0 0.112352821
H  H87  1  0.82050000  0.60730000  0.48970000  1.0 0.1294948197
H  H88  1  0.75390000  0.63390000  0.42540000  1.0 0.1294948197
H  H89  1  0.78390000  0.66030000  0.36640000  1.0 0.1192597713
H  H90  1  0.56480000  0.62750000  0.69180000  1.0 0.1294948197
H  H91  1  0.53280000  0.56270000  0.72160000  1.0 0.1192597713
H  H92  1  0.62040000  0.76990000  0.74590000  1.0 0.1192597713
H  H93  1  0.62210000  0.82100000  0.79800000  1.0 0.112352821
H  H94  1  0.57010000  0.49710000  0.56590000  1.0 0.1398423679
H  H95  1  0.61960000  0.46130000  0.60780000  1.0 0.1192597713
H  H96  1  0.61170000  0.38770000  0.62440000  1.0 0.1192597713
H  H97  1  0.55270000  0.34550000  0.59810000  1.0 0.1294948197
H  H98  1  0.44700000  0.41310000  0.50600000  1.0 0.112352821
H  H99  1  0.37770000  0.28550000  0.58660000  1.0 0.092285109
H  H100  1  0.42930000  0.26740000  0.71580000  1.0 0.1192597713
H  H101  1  0.50760000  0.26670000  0.72870000  1.0 0.1192597713
H  H102  1  0.55970000  0.27460000  0.67780000  1.0 0.112352821
H  H103  1  0.53440000  0.28320000  0.61310000  1.0 0.1192597713
H  H104  1  0.37440000  0.37110000  0.54320000  1.0 0.112352821
H  H105  1  0.30020000  0.28450000  0.44140000  1.0 0.1398423679
H  H106  1  0.33880000  0.22800000  0.40920000  1.0 0.1192597713
H  H107  1  0.41210000  0.21250000  0.42170000  1.0 0.1192597713
H  H108  1  0.45050000  0.25350000  0.46890000  1.0 0.1294948197
H  H109  1  0.30430000  0.28510000  0.58680000  1.0 0.112352821
H  H110  1  0.23360000  0.43650000  0.57330000  1.0 0.1294948197
H  H111  1  0.23580000  0.48820000  0.62490000  1.0 0.1192597713
H  H112  1  0.26740000  0.47050000  0.68410000  1.0 0.1192597713
H  H113  1  0.30040000  0.39880000  0.69360000  1.0 0.1294948197
H  H114  1  0.33020000  0.44590000  0.49990000  1.0 0.1031575612
H  H115  1  0.21100000  0.54830000  0.47360000  1.0 0.1294948197
H  H116  1  0.13600000  0.52140000  0.46910000  1.0 0.112352821
H  H117  1  0.12050000  0.44430000  0.47660000  1.0 0.112352821
H  H118  1  0.17950000  0.39270000  0.48970000  1.0 0.1294948197
H  H119  1  0.24610000  0.36610000  0.42540000  1.0 0.1294948197
H  H120  1  0.21610000  0.33970000  0.36640000  1.0 0.1192597713
H  H121  1  0.43520000  0.37250000  0.69180000  1.0 0.1294948197
H  H122  1  0.46720000  0.43730000  0.72160000  1.0 0.1192597713
H  H123  1  0.37960000  0.23010000  0.74590000  1.0 0.1192597713
H  H124  1  0.37790000  0.17900000  0.79800000  1.0 0.112352821
H  H125  1  0.49710000  0.57010000  0.93410000  1.0 0.1398423679
H  H126  1  0.46130000  0.61960000  0.89220000  1.0 0.1192597713
H  H127  1  0.38770000  0.61170000  0.87560000  1.0 0.1192597713
H  H128  1  0.34550000  0.55270000  0.90190000  1.0 0.1294948197
H  H129  1  0.41310000  0.44700000  0.99400000  1.0 0.112352821
H  H130  1  0.28550000  0.37770000  0.91340000  1.0 0.092285109
H  H131  1  0.26740000  0.42930000  0.78420000  1.0 0.1192597713
H  H132  1  0.26670000  0.50760000  0.77130000  1.0 0.1192597713
H  H133  1  0.27460000  0.55970000  0.82220000  1.0 0.112352821
H  H134  1  0.28320000  0.53440000  0.88690000  1.0 0.1192597713
H  H135  1  0.37110000  0.37440000  0.95680000  1.0 0.112352821
H  H136  1  0.28450000  0.30020000  0.05860000  1.0 0.1398423679
H  H137  1  0.22800000  0.33880000  0.09080000  1.0 0.1192597713
H  H138  1  0.21250000  0.41210000  0.07830000  1.0 0.1192597713
H  H139  1  0.25350000  0.45050000  0.03110000  1.0 0.1294948197
H  H140  1  0.28510000  0.30430000  0.91320000  1.0 0.112352821
H  H141  1  0.43650000  0.23360000  0.92670000  1.0 0.1294948197
H  H142  1  0.48820000  0.23580000  0.87510000  1.0 0.1192597713
H  H143  1  0.47050000  0.26740000  0.81590000  1.0 0.1192597713
H  H144  1  0.39880000  0.30040000  0.80640000  1.0 0.1294948197
H  H145  1  0.44590000  0.33020000  0.00010000  1.0 0.1031575612
H  H146  1  0.54830000  0.21100000  0.02640000  1.0 0.1294948197
H  H147  1  0.52140000  0.13600000  0.03090000  1.0 0.112352821
H  H148  1  0.44430000  0.12050000  0.02340000  1.0 0.112352821
H  H149  1  0.39270000  0.17950000  0.01030000  1.0 0.1294948197
H  H150  1  0.36610000  0.24610000  0.07460000  1.0 0.1294948197
H  H151  1  0.33970000  0.21610000  0.13360000  1.0 0.1192597713
H  H152  1  0.37250000  0.43520000  0.80820000  1.0 0.1294948197
H  H153  1  0.43730000  0.46720000  0.77840000  1.0 0.1192597713
H  H154  1  0.23010000  0.37960000  0.75410000  1.0 0.1192597713
H  H155  1  0.17900000  0.37790000  0.70200000  1.0 0.112352821
H  H156  1  0.50290000  0.42990000  0.93410000  1.0 0.1398423679
H  H157  1  0.53870000  0.38040000  0.89220000  1.0 0.1192597713
H  H158  1  0.61230000  0.38830000  0.87560000  1.0 0.1192597713
H  H159  1  0.65450000  0.44730000  0.90190000  1.0 0.1294948197
H  H160  1  0.58690000  0.55300000  0.99400000  1.0 0.112352821
H  H161  1  0.71450000  0.62230000  0.91340000  1.0 0.092285109
H  H162  1  0.73260000  0.57070000  0.78420000  1.0 0.1192597713
H  H163  1  0.73330000  0.49240000  0.77130000  1.0 0.1192597713
H  H164  1  0.72540000  0.44030000  0.82220000  1.0 0.112352821
H  H165  1  0.71680000  0.46560000  0.88690000  1.0 0.1192597713
H  H166  1  0.62890000  0.62560000  0.95680000  1.0 0.112352821
H  H167  1  0.71550000  0.69980000  0.05860000  1.0 0.1398423679
H  H168  1  0.77200000  0.66120000  0.09080000  1.0 0.1192597713
H  H169  1  0.78750000  0.58790000  0.07830000  1.0 0.1192597713
H  H170  1  0.74650000  0.54950000  0.03110000  1.0 0.1294948197
H  H171  1  0.71490000  0.69570000  0.91320000  1.0 0.112352821
H  H172  1  0.56350000  0.76640000  0.92670000  1.0 0.1294948197
H  H173  1  0.51180000  0.76420000  0.87510000  1.0 0.1192597713
H  H174  1  0.52950000  0.73260000  0.81590000  1.0 0.1192597713
H  H175  1  0.60120000  0.69960000  0.80640000  1.0 0.1294948197
H  H176  1  0.55410000  0.66980000  0.00010000  1.0 0.1031575612
H  H177  1  0.45170000  0.78900000  0.02640000  1.0 0.1294948197
H  H178  1  0.47860000  0.86400000  0.03090000  1.0 0.112352821
H  H179  1  0.55570000  0.87950000  0.02340000  1.0 0.112352821
H  H180  1  0.60730000  0.82050000  0.01030000  1.0 0.1294948197
H  H181  1  0.63390000  0.75390000  0.07460000  1.0 0.1294948197
H  H182  1  0.66030000  0.78390000  0.13360000  1.0 0.1192597713
H  H183  1  0.62750000  0.56480000  0.80820000  1.0 0.1294948197
H  H184  1  0.56270000  0.53280000  0.77840000  1.0 0.1192597713
H  H185  1  0.76990000  0.62040000  0.75410000  1.0 0.1192597713
H  H186  1  0.82100000  0.62210000  0.70200000  1.0 0.112352821
H  H187  1  0.07010000  0.00290000  0.43410000  1.0 0.1398423679
H  H188  1  0.11960000  0.03870000  0.39220000  1.0 0.1192597713
H  H189  1  0.11170000  0.11230000  0.37560000  1.0 0.1192597713
H  H190  1  0.05270000  0.15450000  0.40190000  1.0 0.1294948197
H  H191  1  0.94700000  0.08690000  0.49400000  1.0 0.112352821
H  H192  1  0.87770000  0.21450000  0.41340000  1.0 0.092285109
H  H193  1  0.92930000  0.23260000  0.28420000  1.0 0.1192597713
H  H194  1  0.00760000  0.23330000  0.27130000  1.0 0.1192597713
H  H195  1  0.05970000  0.22540000  0.32220000  1.0 0.1192597713
H  H196  1  0.03440000  0.21680000  0.38690000  1.0 0.1192597713
H  H197  1  0.87440000  0.12890000  0.45680000  1.0 0.112352821
H  H198  1  0.80020000  0.21550000  0.55860000  1.0 0.1398423679
H  H199  1  0.83880000  0.27200000  0.59080000  1.0 0.1192597713
H  H200  1  0.91210000  0.28750000  0.57830000  1.0 0.1192597713
H  H201  1  0.95050000  0.24650000  0.53110000  1.0 0.1294948197
H  H202  1  0.80430000  0.21490000  0.41320000  1.0 0.112352821
H  H203  1  0.73360000  0.06350000  0.42670000  1.0 0.1294948197
H  H204  1  0.73580000  0.01180000  0.37510000  1.0 0.1192597713
H  H205  1  0.76740000  0.02950000  0.31590000  1.0 0.1192597713
H  H206  1  0.80040000  0.10120000  0.30640000  1.0 0.1294948197
H  H207  1  0.83020000  0.05410000  0.50010000  1.0 0.1031575612
H  H208  1  0.71100000  0.95170000  0.52640000  1.0 0.1294948197
H  H209  1  0.63600000  0.97860000  0.53090000  1.0 0.112352821
H  H210  1  0.62050000  0.05570000  0.52340000  1.0 0.112352821
H  H211  1  0.67950000  0.10730000  0.51030000  1.0 0.1294948197
H  H212  1  0.74610000  0.13390000  0.57460000  1.0 0.1294948197
H  H213  1  0.71610000  0.16030000  0.63360000  1.0 0.1192597713
H  H214  1  0.93520000  0.12750000  0.30820000  1.0 0.1294948197
H  H215  1  0.96720000  0.06270000  0.27840000  1.0 0.1192597713
H  H216  1  0.87960000  0.26990000  0.25410000  1.0 0.1192597713
H  H217  1  0.87790000  0.32100000  0.20200000  1.0 0.112352821
H  H218  1  0.92990000  0.99710000  0.43410000  1.0 0.1398423679
H  H219  1  0.88040000  0.96130000  0.39220000  1.0 0.1192597713
H  H220  1  0.88830000  0.88770000  0.37560000  1.0 0.1192597713
H  H221  1  0.94730000  0.84550000  0.40190000  1.0 0.1294948197
H  H222  1  0.05300000  0.91310000  0.49400000  1.0 0.112352821
H  H223  1  0.12230000  0.78550000  0.41340000  1.0 0.092285109
H  H224  1  0.07070000  0.76740000  0.28420000  1.0 0.1192597713
H  H225  1  0.99240000  0.76670000  0.27130000  1.0 0.1192597713
H  H226  1  0.94030000  0.77460000  0.32220000  1.0 0.112352821
H  H227  1  0.96560000  0.78320000  0.38690000  1.0 0.1192597713
H  H228  1  0.12560000  0.87110000  0.45680000  1.0 0.112352821
H  H229  1  0.19980000  0.78450000  0.55860000  1.0 0.1398423679
H  H230  1  0.16120000  0.72800000  0.59080000  1.0 0.1192597713
H  H231  1  0.08790000  0.71250000  0.57830000  1.0 0.1192597713
H  H232  1  0.04950000  0.75350000  0.53110000  1.0 0.1294948197
H  H233  1  0.19570000  0.78510000  0.41320000  1.0 0.112352821
H  H234  1  0.26640000  0.93650000  0.42670000  1.0 0.1294948197
H  H235  1  0.26420000  0.98820000  0.37510000  1.0 0.1192597713
H  H236  1  0.23260000  0.97050000  0.31590000  1.0 0.1192597713
H  H237  1  0.19960000  0.89880000  0.30640000  1.0 0.1294948197
H  H238  1  0.16980000  0.94590000  0.50010000  1.0 0.1031575612
H  H239  1  0.28900000  0.04830000  0.52640000  1.0 0.1294948197
H  H240  1  0.36400000  0.02140000  0.53090000  1.0 0.112352821
H  H241  1  0.37950000  0.94430000  0.52340000  1.0 0.112352821
H  H242  1  0.32050000  0.89270000  0.51030000  1.0 0.1294948197
H  H243  1  0.25390000  0.86610000  0.57460000  1.0 0.1294948197
H  H244  1  0.28390000  0.83970000  0.63360000  1.0 0.1192597713
H  H245  1  0.06480000  0.87250000  0.30820000  1.0 0.1294948197
H  H246  1  0.03280000  0.93730000  0.27840000  1.0 0.1192597713
H  H247  1  0.12040000  0.73010000  0.25410000  1.0 0.1192597713
H  H248  1  0.12210000  0.67900000  0.20200000  1.0 0.112352821
H  H249  1  0.49710000  0.42990000  0.43410000  1.0 0.1398423679
H  H250  1  0.46130000  0.38040000  0.39220000  1.0 0.1192597713
H  H251  1  0.38770000  0.38830000  0.37560000  1.0 0.1192597713
H  H252  1  0.34550000  0.44730000  0.40190000  1.0 0.1294948197
H  H253  1  0.41310000  0.55300000  0.49400000  1.0 0.112352821
H  H254  1  0.28550000  0.62230000  0.41340000  1.0 0.092285109
H  H255  1  0.26740000  0.57070000  0.28420000  1.0 0.1192597713
H  H256  1  0.26670000  0.49240000  0.27130000  1.0 0.1192597713
H  H257  1  0.27460000  0.44030000  0.32220000  1.0 0.112352821
H  H258  1  0.28320000  0.46560000  0.38690000  1.0 0.1192597713
H  H259  1  0.37110000  0.62560000  0.45680000  1.0 0.112352821
H  H260  1  0.28450000  0.69980000  0.55860000  1.0 0.1398423679
H  H261  1  0.22800000  0.66120000  0.59080000  1.0 0.1192597713
H  H262  1  0.21250000  0.58790000  0.57830000  1.0 0.1192597713
H  H263  1  0.25350000  0.54950000  0.53110000  1.0 0.1294948197
H  H264  1  0.28510000  0.69570000  0.41320000  1.0 0.112352821
H  H265  1  0.43650000  0.76640000  0.42670000  1.0 0.1294948197
H  H266  1  0.48820000  0.76420000  0.37510000  1.0 0.1192597713
H  H267  1  0.47050000  0.73260000  0.31590000  1.0 0.1192597713
H  H268  1  0.39880000  0.69960000  0.30640000  1.0 0.1294948197
H  H269  1  0.44590000  0.66980000  0.50010000  1.0 0.1031575612
H  H270  1  0.54830000  0.78900000  0.52640000  1.0 0.1294948197
H  H271  1  0.52140000  0.86400000  0.53090000  1.0 0.112352821
H  H272  1  0.44430000  0.87950000  0.52340000  1.0 0.112352821
H  H273  1  0.39270000  0.82050000  0.51030000  1.0 0.1294948197
H  H274  1  0.36610000  0.75390000  0.57460000  1.0 0.1294948197
H  H275  1  0.33970000  0.78390000  0.63360000  1.0 0.1192597713
H  H276  1  0.37250000  0.56480000  0.30820000  1.0 0.1294948197
H  H277  1  0.43730000  0.53280000  0.27840000  1.0 0.1192597713
H  H278  1  0.23010000  0.62040000  0.25410000  1.0 0.1192597713
H  H279  1  0.17900000  0.62210000  0.20200000  1.0 0.112352821
H  H280  1  0.50290000  0.57010000  0.43410000  1.0 0.1398423679
H  H281  1  0.53870000  0.61960000  0.39220000  1.0 0.1192597713
H  H282  1  0.61230000  0.61170000  0.37560000  1.0 0.1192597713
H  H283  1  0.65450000  0.55270000  0.40190000  1.0 0.1294948197
H  H284  1  0.58690000  0.44700000  0.49400000  1.0 0.112352821
H  H285  1  0.71450000  0.37770000  0.41340000  1.0 0.092285109
H  H286  1  0.73260000  0.42930000  0.28420000  1.0 0.1192597713
H  H287  1  0.73330000  0.50760000  0.27130000  1.0 0.1192597713
H  H288  1  0.72540000  0.55970000  0.32220000  1.0 0.112352821
H  H289  1  0.71680000  0.53440000  0.38690000  1.0 0.1192597713
H  H290  1  0.62890000  0.37440000  0.45680000  1.0 0.112352821
H  H291  1  0.71550000  0.30020000  0.55860000  1.0 0.1398423679
H  H292  1  0.77200000  0.33880000  0.59080000  1.0 0.1192597713
H  H293  1  0.78750000  0.41210000  0.57830000  1.0 0.1192597713
H  H294  1  0.74650000  0.45050000  0.53110000  1.0 0.1294948197
H  H295  1  0.71490000  0.30430000  0.41320000  1.0 0.112352821
H  H296  1  0.56350000  0.23360000  0.42670000  1.0 0.1294948197
H  H297  1  0.51180000  0.23580000  0.37510000  1.0 0.1192597713
H  H298  1  0.52950000  0.26740000  0.31590000  1.0 0.1192597713
H  H299  1  0.60120000  0.30040000  0.30640000  1.0 0.1294948197
H  H300  1  0.55410000  0.33020000  0.50010000  1.0 0.1031575612
H  H301  1  0.45170000  0.21100000  0.52640000  1.0 0.1294948197
H  H302  1  0.47860000  0.13600000  0.53090000  1.0 0.112352821
H  H303  1  0.55570000  0.12050000  0.52340000  1.0 0.112352821
H  H304  1  0.60730000  0.17950000  0.51030000  1.0 0.1294948197
H  H305  1  0.63390000  0.24610000  0.57460000  1.0 0.1294948197
H  H306  1  0.66030000  0.21610000  0.63360000  1.0 0.1192597713
H  H307  1  0.62750000  0.43520000  0.30820000  1.0 0.1294948197
H  H308  1  0.56270000  0.46720000  0.27840000  1.0 0.1192597713
H  H309  1  0.76990000  0.37960000  0.25410000  1.0 0.1192597713
H  H310  1  0.82100000  0.37790000  0.20200000  1.0 0.112352821
H  H311  1  0.07010000  0.99710000  0.93410000  1.0 0.1398423679
H  H312  1  0.11960000  0.96130000  0.89220000  1.0 0.1192597713
H  H313  1  0.11170000  0.88770000  0.87560000  1.0 0.1192597713
H  H314  1  0.05270000  0.84550000  0.90190000  1.0 0.1294948197
H  H315  1  0.94700000  0.91310000  0.99400000  1.0 0.112352821
H  H316  1  0.87770000  0.78550000  0.91340000  1.0 0.092285109
H  H317  1  0.92930000  0.76740000  0.78420000  1.0 0.1192597713
H  H318  1  0.00760000  0.76670000  0.77130000  1.0 0.1192597713
H  H319  1  0.05970000  0.77460000  0.82220000  1.0 0.1192597713
H  H320  1  0.03440000  0.78320000  0.88690000  1.0 0.1192597713
H  H321  1  0.87440000  0.87110000  0.95680000  1.0 0.112352821
H  H322  1  0.80020000  0.78450000  0.05860000  1.0 0.1398423679
H  H323  1  0.83880000  0.72800000  0.09080000  1.0 0.1192597713
H  H324  1  0.91210000  0.71250000  0.07830000  1.0 0.1192597713
H  H325  1  0.95050000  0.75350000  0.03110000  1.0 0.1294948197
H  H326  1  0.80430000  0.78510000  0.91320000  1.0 0.112352821
H  H327  1  0.73360000  0.93650000  0.92670000  1.0 0.1294948197
H  H328  1  0.73580000  0.98820000  0.87510000  1.0 0.1192597713
H  H329  1  0.76740000  0.97050000  0.81590000  1.0 0.1192597713
H  H330  1  0.80040000  0.89880000  0.80640000  1.0 0.1294948197
H  H331  1  0.83020000  0.94590000  0.00010000  1.0 0.1031575612
H  H332  1  0.71100000  0.04830000  0.02640000  1.0 0.1294948197
H  H333  1  0.63600000  0.02140000  0.03090000  1.0 0.112352821
H  H334  1  0.62050000  0.94430000  0.02340000  1.0 0.112352821
H  H335  1  0.67950000  0.89270000  0.01030000  1.0 0.1294948197
H  H336  1  0.74610000  0.86610000  0.07460000  1.0 0.1294948197
H  H337  1  0.71610000  0.83970000  0.13360000  1.0 0.1192597713
H  H338  1  0.93520000  0.87250000  0.80820000  1.0 0.1294948197
H  H339  1  0.96720000  0.93730000  0.77840000  1.0 0.1192597713
H  H340  1  0.87960000  0.73010000  0.75410000  1.0 0.1192597713
H  H341  1  0.87790000  0.67900000  0.70200000  1.0 0.112352821
H  H342  1  0.92990000  0.00290000  0.93410000  1.0 0.1398423679
H  H343  1  0.88040000  0.03870000  0.89220000  1.0 0.1192597713
H  H344  1  0.88830000  0.11230000  0.87560000  1.0 0.1192597713
H  H345  1  0.94730000  0.15450000  0.90190000  1.0 0.1294948197
H  H346  1  0.05300000  0.08690000  0.99400000  1.0 0.112352821
H  H347  1  0.12230000  0.21450000  0.91340000  1.0 0.092285109
H  H348  1  0.07070000  0.23260000  0.78420000  1.0 0.1192597713
H  H349  1  0.99240000  0.23330000  0.77130000  1.0 0.1192597713
H  H350  1  0.94030000  0.22540000  0.82220000  1.0 0.112352821
H  H351  1  0.96560000  0.21680000  0.88690000  1.0 0.1192597713
H  H352  1  0.12560000  0.12890000  0.95680000  1.0 0.112352821
H  H353  1  0.19980000  0.21550000  0.05860000  1.0 0.1398423679
H  H354  1  0.16120000  0.27200000  0.09080000  1.0 0.1192597713
H  H355  1  0.08790000  0.28750000  0.07830000  1.0 0.1192597713
H  H356  1  0.04950000  0.24650000  0.03110000  1.0 0.1294948197
H  H357  1  0.19570000  0.21490000  0.91320000  1.0 0.112352821
H  H358  1  0.26640000  0.06350000  0.92670000  1.0 0.1294948197
H  H359  1  0.26420000  0.01180000  0.87510000  1.0 0.1192597713
H  H360  1  0.23260000  0.02950000  0.81590000  1.0 0.1192597713
H  H361  1  0.19960000  0.10120000  0.80640000  1.0 0.1294948197
H  H362  1  0.16980000  0.05410000  0.00010000  1.0 0.1031575612
H  H363  1  0.28900000  0.95170000  0.02640000  1.0 0.1294948197
H  H364  1  0.36400000  0.97860000  0.03090000  1.0 0.112352821
H  H365  1  0.37950000  0.05570000  0.02340000  1.0 0.112352821
H  H366  1  0.32050000  0.10730000  0.01030000  1.0 0.1294948197
H  H367  1  0.25390000  0.13390000  0.07460000  1.0 0.1294948197
H  H368  1  0.28390000  0.16030000  0.13360000  1.0 0.1192597713
H  H369  1  0.06480000  0.12750000  0.80820000  1.0 0.1294948197
H  H370  1  0.03280000  0.06270000  0.77840000  1.0 0.1192597713
H  H371  1  0.12040000  0.26990000  0.75410000  1.0 0.1192597713
H  H372  1  0.12210000  0.32100000  0.70200000  1.0 0.112352821
H  H373  1  0.00290000  0.92990000  0.56590000  1.0 0.1398423679
H  H374  1  0.03870000  0.88040000  0.60780000  1.0 0.1192597713
H  H375  1  0.11230000  0.88830000  0.62440000  1.0 0.1192597713
H  H376  1  0.15450000  0.94730000  0.59810000  1.0 0.1294948197
H  H377  1  0.08690000  0.05300000  0.50600000  1.0 0.112352821
H  H378  1  0.21450000  0.12230000  0.58660000  1.0 0.092285109
H  H379  1  0.23260000  0.07070000  0.71580000  1.0 0.1192597713
H  H380  1  0.23330000  0.99240000  0.72870000  1.0 0.1192597713
H  H381  1  0.22540000  0.94030000  0.67780000  1.0 0.112352821
H  H382  1  0.21680000  0.96560000  0.61310000  1.0 0.1192597713
H  H383  1  0.12890000  0.12560000  0.54320000  1.0 0.112352821
H  H384  1  0.21550000  0.19980000  0.44140000  1.0 0.1398423679
H  H385  1  0.27200000  0.16120000  0.40920000  1.0 0.1192597713
H  H386  1  0.28750000  0.08790000  0.42170000  1.0 0.1192597713
H  H387  1  0.24650000  0.04950000  0.46890000  1.0 0.1294948197
H  H388  1  0.21490000  0.19570000  0.58680000  1.0 0.112352821
H  H389  1  0.06350000  0.26640000  0.57330000  1.0 0.1294948197
H  H390  1  0.01180000  0.26420000  0.62490000  1.0 0.1192597713
H  H391  1  0.02950000  0.23260000  0.68410000  1.0 0.1192597713
H  H392  1  0.10120000  0.19960000  0.69360000  1.0 0.1294948197
H  H393  1  0.05410000  0.16980000  0.49990000  1.0 0.1031575612
H  H394  1  0.95170000  0.28900000  0.47360000  1.0 0.1294948197
H  H395  1  0.97860000  0.36400000  0.46910000  1.0 0.112352821
H  H396  1  0.05570000  0.37950000  0.47660000  1.0 0.112352821
H  H397  1  0.10730000  0.32050000  0.48970000  1.0 0.1294948197
H  H398  1  0.13390000  0.25390000  0.42540000  1.0 0.1294948197
H  H399  1  0.16030000  0.28390000  0.36640000  1.0 0.1192597713
H  H400  1  0.12750000  0.06480000  0.69180000  1.0 0.1294948197
H  H401  1  0.06270000  0.03280000  0.72160000  1.0 0.1192597713
H  H402  1  0.26990000  0.12040000  0.74590000  1.0 0.1192597713
H  H403  1  0.32100000  0.12210000  0.79800000  1.0 0.112352821
H  H404  1  0.99710000  0.07010000  0.56590000  1.0 0.1398423679
H  H405  1  0.96130000  0.11960000  0.60780000  1.0 0.1192597713
H  H406  1  0.88770000  0.11170000  0.62440000  1.0 0.1192597713
H  H407  1  0.84550000  0.05270000  0.59810000  1.0 0.1294948197
H  H408  1  0.91310000  0.94700000  0.50600000  1.0 0.112352821
H  H409  1  0.78550000  0.87770000  0.58660000  1.0 0.092285109
H  H410  1  0.76740000  0.92930000  0.71580000  1.0 0.1192597713
H  H411  1  0.76670000  0.00760000  0.72870000  1.0 0.1192597713
H  H412  1  0.77460000  0.05970000  0.67780000  1.0 0.1192597713
H  H413  1  0.78320000  0.03440000  0.61310000  1.0 0.1192597713
H  H414  1  0.87110000  0.87440000  0.54320000  1.0 0.112352821
H  H415  1  0.78450000  0.80020000  0.44140000  1.0 0.1398423679
H  H416  1  0.72800000  0.83880000  0.40920000  1.0 0.1192597713
H  H417  1  0.71250000  0.91210000  0.42170000  1.0 0.1192597713
H  H418  1  0.75350000  0.95050000  0.46890000  1.0 0.1294948197
H  H419  1  0.78510000  0.80430000  0.58680000  1.0 0.112352821
H  H420  1  0.93650000  0.73360000  0.57330000  1.0 0.1294948197
H  H421  1  0.98820000  0.73580000  0.62490000  1.0 0.1192597713
H  H422  1  0.97050000  0.76740000  0.68410000  1.0 0.1192597713
H  H423  1  0.89880000  0.80040000  0.69360000  1.0 0.1294948197
H  H424  1  0.94590000  0.83020000  0.49990000  1.0 0.1031575612
H  H425  1  0.04830000  0.71100000  0.47360000  1.0 0.1294948197
H  H426  1  0.02140000  0.63600000  0.46910000  1.0 0.112352821
H  H427  1  0.94430000  0.62050000  0.47660000  1.0 0.112352821
H  H428  1  0.89270000  0.67950000  0.48970000  1.0 0.1294948197
H  H429  1  0.86610000  0.74610000  0.42540000  1.0 0.1294948197
H  H430  1  0.83970000  0.71610000  0.36640000  1.0 0.1192597713
H  H431  1  0.87250000  0.93520000  0.69180000  1.0 0.1294948197
H  H432  1  0.93730000  0.96720000  0.72160000  1.0 0.1192597713
H  H433  1  0.73010000  0.87960000  0.74590000  1.0 0.1192597713
H  H434  1  0.67900000  0.87790000  0.79800000  1.0 0.112352821
H  H435  1  0.42990000  0.49710000  0.06590000  1.0 0.1398423679
H  H436  1  0.38040000  0.46130000  0.10780000  1.0 0.1192597713
H  H437  1  0.38830000  0.38770000  0.12440000  1.0 0.1192597713
H  H438  1  0.44730000  0.34550000  0.09810000  1.0 0.1294948197
H  H439  1  0.55300000  0.41310000  0.00600000  1.0 0.112352821
H  H440  1  0.62230000  0.28550000  0.08660000  1.0 0.092285109
H  H441  1  0.57070000  0.26740000  0.21580000  1.0 0.1192597713
H  H442  1  0.49240000  0.26670000  0.22870000  1.0 0.1192597713
H  H443  1  0.44030000  0.27460000  0.17780000  1.0 0.112352821
H  H444  1  0.46560000  0.28320000  0.11310000  1.0 0.1192597713
H  H445  1  0.62560000  0.37110000  0.04320000  1.0 0.112352821
H  H446  1  0.69980000  0.28450000  0.94140000  1.0 0.1398423679
H  H447  1  0.66120000  0.22800000  0.90920000  1.0 0.1192597713
H  H448  1  0.58790000  0.21250000  0.92170000  1.0 0.1192597713
H  H449  1  0.54950000  0.25350000  0.96890000  1.0 0.1294948197
H  H450  1  0.69570000  0.28510000  0.08680000  1.0 0.112352821
H  H451  1  0.76640000  0.43650000  0.07330000  1.0 0.1294948197
H  H452  1  0.76420000  0.48820000  0.12490000  1.0 0.1192597713
H  H453  1  0.73260000  0.47050000  0.18410000  1.0 0.1192597713
H  H454  1  0.69960000  0.39880000  0.19360000  1.0 0.1294948197
H  H455  1  0.66980000  0.44590000  0.99990000  1.0 0.1031575612
H  H456  1  0.78900000  0.54830000  0.97360000  1.0 0.1294948197
H  H457  1  0.86400000  0.52140000  0.96910000  1.0 0.112352821
H  H458  1  0.87950000  0.44430000  0.97660000  1.0 0.112352821
H  H459  1  0.82050000  0.39270000  0.98970000  1.0 0.1294948197
H  H460  1  0.75390000  0.36610000  0.92540000  1.0 0.1294948197
H  H461  1  0.78390000  0.33970000  0.86640000  1.0 0.1192597713
H  H462  1  0.56480000  0.37250000  0.19180000  1.0 0.1294948197
H  H463  1  0.53280000  0.43730000  0.22160000  1.0 0.1192597713
H  H464  1  0.62040000  0.23010000  0.24590000  1.0 0.1192597713
H  H465  1  0.62210000  0.17900000  0.29800000  1.0 0.112352821
H  H466  1  0.57010000  0.50290000  0.06590000  1.0 0.1398423679
H  H467  1  0.61960000  0.53870000  0.10780000  1.0 0.1192597713
H  H468  1  0.61170000  0.61230000  0.12440000  1.0 0.1192597713
H  H469  1  0.55270000  0.65450000  0.09810000  1.0 0.1294948197
H  H470  1  0.44700000  0.58690000  0.00600000  1.0 0.112352821
H  H471  1  0.37770000  0.71450000  0.08660000  1.0 0.092285109
H  H472  1  0.42930000  0.73260000  0.21580000  1.0 0.1192597713
H  H473  1  0.50760000  0.73330000  0.22870000  1.0 0.1192597713
H  H474  1  0.55970000  0.72540000  0.17780000  1.0 0.112352821
H  H475  1  0.53440000  0.71680000  0.11310000  1.0 0.1192597713
H  H476  1  0.37440000  0.62890000  0.04320000  1.0 0.112352821
H  H477  1  0.30020000  0.71550000  0.94140000  1.0 0.1398423679
H  H478  1  0.33880000  0.77200000  0.90920000  1.0 0.1192597713
H  H479  1  0.41210000  0.78750000  0.92170000  1.0 0.1192597713
H  H480  1  0.45050000  0.74650000  0.96890000  1.0 0.1294948197
H  H481  1  0.30430000  0.71490000  0.08680000  1.0 0.112352821
H  H482  1  0.23360000  0.56350000  0.07330000  1.0 0.1294948197
H  H483  1  0.23580000  0.51180000  0.12490000  1.0 0.1192597713
H  H484  1  0.26740000  0.52950000  0.18410000  1.0 0.1192597713
H  H485  1  0.30040000  0.60120000  0.19360000  1.0 0.1294948197
H  H486  1  0.33020000  0.55410000  0.99990000  1.0 0.1031575612
H  H487  1  0.21100000  0.45170000  0.97360000  1.0 0.1294948197
H  H488  1  0.13600000  0.47860000  0.96910000  1.0 0.112352821
H  H489  1  0.12050000  0.55570000  0.97660000  1.0 0.112352821
H  H490  1  0.17950000  0.60730000  0.98970000  1.0 0.1294948197
H  H491  1  0.24610000  0.63390000  0.92540000  1.0 0.1294948197
H  H492  1  0.21610000  0.66030000  0.86640000  1.0 0.1192597713
H  H493  1  0.43520000  0.62750000  0.19180000  1.0 0.1294948197
H  H494  1  0.46720000  0.56270000  0.22160000  1.0 0.1192597713
H  H495  1  0.37960000  0.76990000  0.24590000  1.0 0.1192597713
H  H496  1  0.37790000  0.82100000  0.29800000  1.0 0.112352821
H  H497  1  0.19490000  0.69490000  0.05390000  1.0 0.1192597713
H  H498  1  0.26820000  0.76820000  0.13890000  1.0 0.1031575612
H  H499  1  0.80510000  0.30510000  0.05390000  1.0 0.1192597713
H  H500  1  0.73180000  0.23180000  0.13890000  1.0 0.1031575612
H  H501  1  0.80510000  0.69490000  0.55390000  1.0 0.1192597713
H  H502  1  0.73180000  0.76820000  0.63890000  1.0 0.1031575612
H  H503  1  0.19490000  0.30510000  0.55390000  1.0 0.1192597713
H  H504  1  0.26820000  0.23180000  0.63890000  1.0 0.1031575612
H  H505  1  0.30510000  0.19490000  0.94610000  1.0 0.1192597713
H  H506  1  0.23180000  0.26820000  0.86110000  1.0 0.1031575612
H  H507  1  0.69490000  0.80510000  0.94610000  1.0 0.1192597713
H  H508  1  0.76820000  0.73180000  0.86110000  1.0 0.1031575612
H  H509  1  0.69490000  0.19490000  0.44610000  1.0 0.1192597713
H  H510  1  0.76820000  0.26820000  0.36110000  1.0 0.1031575612
H  H511  1  0.30510000  0.80510000  0.44610000  1.0 0.1192597713
H  H512  1  0.23180000  0.73180000  0.36110000  1.0 0.1031575612
H  H513  1  0.20010000  0.79990000  0.25000000  1.0 0.112352821
H  H514  1  0.79990000  0.20010000  0.25000000  1.0 0.112352821
H  H515  1  0.70010000  0.70010000  0.75000000  1.0 0.112352821
H  H516  1  0.29990000  0.29990000  0.75000000  1.0 0.112352821
H  H517  1  0.29990000  0.70010000  0.25000000  1.0 0.112352821
H  H518  1  0.70010000  0.29990000  0.25000000  1.0 0.112352821
H  H519  1  0.79990000  0.79990000  0.75000000  1.0 0.112352821
H  H520  1  0.20010000  0.20010000  0.75000000  1.0 0.112352821
C  C1  1  0.10360000  0.02850000  0.06620000  1.0 0.1398423679
C  C2  1  0.05870000  0.03240000  0.05610000  1.0 0.1294948197
C  C3  1  0.03390000  0.06650000  0.07200000  1.0 -0.1901344456
C  C4  1  0.05540000  0.09540000  0.09700000  1.0 -0.0893992956
C  C5  1  0.09890000  0.09110000  0.10680000  1.0 -0.0992614301
C  C6  1  0.12380000  0.05660000  0.09130000  1.0 -0.1727764763
C  C7  1  0.08500000  0.97270000  0.02230000  1.0 0.0309059458
C  C8  1  0.21700000  0.90170000  0.10450000  1.0 0.1398423679
C  C9  1  0.21980000  0.96750000  0.12750000  1.0 0.1398423679
C  C10  1  0.22420000  0.93700000  0.15720000  1.0 0.1487391576
C  C11  1  0.22940000  0.95060000  0.19540000  1.0 -0.1901344456
C  C12  1  0.23000000  0.99710000  0.20290000  1.0 -0.0992614301
C  C13  1  0.22510000  0.02840000  0.17230000  1.0 -0.1089038222
C  C14  1  0.22000000  0.01370000  0.13380000  1.0 -0.2015794185
C  C15  1  0.15190000  0.87410000  0.02410000  1.0 0.0101023266
C  C16  1  0.20870000  0.89740000  0.98310000  1.0 0.1487391576
C  C17  1  0.19830000  0.85290000  0.97550000  1.0 0.1487391576
C  C18  1  0.22180000  0.83070000  0.94750000  1.0 -0.1804257809
C  C19  1  0.25500000  0.85400000  0.92840000  1.0 -0.1089038222
C  C20  1  0.26440000  0.89720000  0.93570000  1.0 -0.0992614301
C  C21  1  0.24060000  0.91980000  0.96360000  1.0 -0.1629497089
C  C22  1  0.18600000  0.79670000  0.09650000  1.0 0.0364396008
C  C23  1  0.12350000  0.78750000  0.13900000  1.0 0.1818842601
C  C24  1  0.11350000  0.76770000  0.10250000  1.0 0.1602317777
C  C25  1  0.07120000  0.74750000  0.09710000  1.0 -0.1901344456
C  C26  1  0.04070000  0.74870000  0.12840000  1.0 -0.1089038222
C  C27  1  0.05090000  0.76770000  0.16370000  1.0 -0.1089038222
C  C28  1  0.09340000  0.78740000  0.16940000  1.0 -0.1901344456
C  C29  1  0.04850000  0.79910000  0.99570000  1.0 0.1192597713
C  C30  1  0.01400000  0.73780000  0.98440000  1.0 0.1294948197
C  C31  1  0.05890000  0.72890000  0.98900000  1.0 0.1398423679
C  C32  1  0.98270000  0.70430000  0.97680000  1.0 -0.1901344456
C  C33  1  0.99900000  0.65990000  0.97410000  1.0 -0.1089038222
C  C34  1  0.04530000  0.65060000  0.97870000  1.0 -0.0992614301
C  C35  1  0.07610000  0.68540000  0.98640000  1.0 -0.1901344456
C  C36  1  0.17480000  0.70810000  0.96100000  1.0 0.1487391576
C  C37  1  0.15660000  0.72360000  0.92540000  1.0 -0.1804257809
C  C38  1  0.17230000  0.70560000  0.89020000  1.0 -0.1193605403
C  C39  1  0.13400000  0.88430000  0.23300000  1.0 0.1602317777
C  C40  1  0.29310000  0.82620000  0.21470000  1.0 0.1602317777
C  C41  1  0.11510000  0.92280000  0.21480000  1.0 -0.1804257809
C  C42  1  0.07660000  0.94160000  0.23290000  1.0 -0.1193605403
C  C43  1  0.29250000  0.85690000  0.24600000  1.0 -0.1901344456
C  C44  1  0.32300000  0.85650000  0.27770000  1.0 -0.1089038222
C  C45  1  0.89640000  0.97150000  0.06620000  1.0 0.1398423679
C  C46  1  0.94130000  0.96760000  0.05610000  1.0 0.1294948197
C  C47  1  0.96610000  0.93350000  0.07200000  1.0 -0.1901344456
C  C48  1  0.94460000  0.90460000  0.09700000  1.0 -0.0893992956
C  C49  1  0.90110000  0.90890000  0.10680000  1.0 -0.0992614301
C  C50  1  0.87620000  0.94340000  0.09130000  1.0 -0.1727764763
C  C51  1  0.91500000  0.02730000  0.02230000  1.0 0.0309059458
C  C52  1  0.78300000  0.09830000  0.10450000  1.0 0.1398423679
C  C53  1  0.78020000  0.03250000  0.12750000  1.0 0.1398423679
C  C54  1  0.77580000  0.06300000  0.15720000  1.0 0.1487391576
C  C55  1  0.77060000  0.04940000  0.19540000  1.0 -0.1901344456
C  C56  1  0.77000000  0.00290000  0.20290000  1.0 -0.0992614301
C  C57  1  0.77490000  0.97160000  0.17230000  1.0 -0.1089038222
C  C58  1  0.78000000  0.98630000  0.13380000  1.0 -0.2015794185
C  C59  1  0.84810000  0.12590000  0.02410000  1.0 0.0101023266
C  C60  1  0.79130000  0.10260000  0.98310000  1.0 0.1487391576
C  C61  1  0.80170000  0.14710000  0.97550000  1.0 0.1487391576
C  C62  1  0.77820000  0.16930000  0.94750000  1.0 -0.1804257809
C  C63  1  0.74500000  0.14600000  0.92840000  1.0 -0.1089038222
C  C64  1  0.73560000  0.10280000  0.93570000  1.0 -0.0992614301
C  C65  1  0.75940000  0.08020000  0.96360000  1.0 -0.1629497089
C  C66  1  0.81400000  0.20330000  0.09650000  1.0 0.0309059458
C  C67  1  0.87650000  0.21250000  0.13900000  1.0 0.1818842601
C  C68  1  0.88650000  0.23230000  0.10250000  1.0 0.1602317777
C  C69  1  0.92880000  0.25250000  0.09710000  1.0 -0.1901344456
C  C70  1  0.95930000  0.25130000  0.12840000  1.0 -0.1089038222
C  C71  1  0.94910000  0.23230000  0.16370000  1.0 -0.1089038222
C  C72  1  0.90660000  0.21260000  0.16940000  1.0 -0.1901344456
C  C73  1  0.95150000  0.20090000  0.99570000  1.0 0.1192597713
C  C74  1  0.98600000  0.26220000  0.98440000  1.0 0.1398423679
C  C75  1  0.94110000  0.27110000  0.98900000  1.0 0.1398423679
C  C76  1  0.01730000  0.29570000  0.97680000  1.0 -0.1901344456
C  C77  1  0.00100000  0.34010000  0.97410000  1.0 -0.1089038222
C  C78  1  0.95470000  0.34940000  0.97870000  1.0 -0.0992614301
C  C79  1  0.92390000  0.31460000  0.98640000  1.0 -0.1901344456
C  C80  1  0.82520000  0.29190000  0.96100000  1.0 0.1487391576
C  C81  1  0.84340000  0.27640000  0.92540000  1.0 -0.1804257809
C  C82  1  0.82770000  0.29440000  0.89020000  1.0 -0.1193605403
C  C83  1  0.86600000  0.11570000  0.23300000  1.0 0.1602317777
C  C84  1  0.70690000  0.17380000  0.21470000  1.0 0.1602317777
C  C85  1  0.88490000  0.07720000  0.21480000  1.0 -0.1804257809
C  C86  1  0.92340000  0.05840000  0.23290000  1.0 -0.1193605403
C  C87  1  0.70750000  0.14310000  0.24600000  1.0 -0.1901344456
C  C88  1  0.67700000  0.14350000  0.27770000  1.0 -0.1089038222
C  C89  1  0.47150000  0.60360000  0.56620000  1.0 0.1398423679
C  C90  1  0.46760000  0.55870000  0.55610000  1.0 0.1294948197
C  C91  1  0.43350000  0.53390000  0.57200000  1.0 -0.1901344456
C  C92  1  0.40460000  0.55540000  0.59700000  1.0 -0.0893992956
C  C93  1  0.40890000  0.59890000  0.60680000  1.0 -0.0992614301
C  C94  1  0.44340000  0.62380000  0.59130000  1.0 -0.1727764763
C  C95  1  0.52730000  0.58500000  0.52230000  1.0 0.0309059458
C  C96  1  0.59830000  0.71700000  0.60450000  1.0 0.1398423679
C  C97  1  0.53250000  0.71980000  0.62750000  1.0 0.1398423679
C  C98  1  0.56300000  0.72420000  0.65720000  1.0 0.1487391576
C  C99  1  0.54940000  0.72940000  0.69540000  1.0 -0.1901344456
C  C100  1  0.50290000  0.73000000  0.70290000  1.0 -0.0992614301
C  C101  1  0.47160000  0.72510000  0.67230000  1.0 -0.1089038222
C  C102  1  0.48630000  0.72000000  0.63380000  1.0 -0.2015794185
C  C103  1  0.62590000  0.65190000  0.52410000  1.0 0.0101023266
C  C104  1  0.60260000  0.70870000  0.48310000  1.0 0.1487391576
C  C105  1  0.64710000  0.69830000  0.47550000  1.0 0.1487391576
C  C106  1  0.66930000  0.72180000  0.44750000  1.0 -0.1804257809
C  C107  1  0.64600000  0.75500000  0.42840000  1.0 -0.1089038222
C  C108  1  0.60280000  0.76440000  0.43570000  1.0 -0.0992614301
C  C109  1  0.58020000  0.74060000  0.46360000  1.0 -0.1629497089
C  C110  1  0.70330000  0.68600000  0.59650000  1.0 0.0364396008
C  C111  1  0.71250000  0.62350000  0.63900000  1.0 0.1818842601
C  C112  1  0.73230000  0.61350000  0.60250000  1.0 0.1602317777
C  C113  1  0.75250000  0.57120000  0.59710000  1.0 -0.1901344456
C  C114  1  0.75130000  0.54070000  0.62840000  1.0 -0.1089038222
C  C115  1  0.73230000  0.55090000  0.66370000  1.0 -0.1089038222
C  C116  1  0.71260000  0.59340000  0.66940000  1.0 -0.1901344456
C  C117  1  0.70090000  0.54850000  0.49570000  1.0 0.1192597713
C  C118  1  0.76220000  0.51400000  0.48440000  1.0 0.1398423679
C  C119  1  0.77110000  0.55890000  0.48900000  1.0 0.1398423679
C  C120  1  0.79570000  0.48270000  0.47680000  1.0 -0.1901344456
C  C121  1  0.84010000  0.49900000  0.47410000  1.0 -0.1089038222
C  C122  1  0.84940000  0.54530000  0.47870000  1.0 -0.0992614301
C  C123  1  0.81460000  0.57610000  0.48640000  1.0 -0.1901344456
C  C124  1  0.79190000  0.67480000  0.46100000  1.0 0.1487391576
C  C125  1  0.77640000  0.65660000  0.42540000  1.0 -0.1804257809
C  C126  1  0.79440000  0.67230000  0.39020000  1.0 -0.1193605403
C  C127  1  0.61570000  0.63400000  0.73300000  1.0 0.1602317777
C  C128  1  0.67380000  0.79310000  0.71470000  1.0 0.1602317777
C  C129  1  0.57720000  0.61510000  0.71480000  1.0 -0.1804257809
C  C130  1  0.55840000  0.57660000  0.73290000  1.0 -0.1193605403
C  C131  1  0.64310000  0.79250000  0.74600000  1.0 -0.1901344456
C  C132  1  0.64350000  0.82300000  0.77770000  1.0 -0.1089038222
C  C133  1  0.52850000  0.39640000  0.56620000  1.0 0.1398423679
C  C134  1  0.53240000  0.44130000  0.55610000  1.0 0.1294948197
C  C135  1  0.56650000  0.46610000  0.57200000  1.0 -0.1901344456
C  C136  1  0.59540000  0.44460000  0.59700000  1.0 -0.0893992956
C  C137  1  0.59110000  0.40110000  0.60680000  1.0 -0.0992614301
C  C138  1  0.55660000  0.37620000  0.59130000  1.0 -0.1727764763
C  C139  1  0.47270000  0.41500000  0.52230000  1.0 0.0309059458
C  C140  1  0.40170000  0.28300000  0.60450000  1.0 0.1398423679
C  C141  1  0.46750000  0.28020000  0.62750000  1.0 0.1398423679
C  C142  1  0.43700000  0.27580000  0.65720000  1.0 0.1487391576
C  C143  1  0.45060000  0.27060000  0.69540000  1.0 -0.1901344456
C  C144  1  0.49710000  0.27000000  0.70290000  1.0 -0.0992614301
C  C145  1  0.52840000  0.27490000  0.67230000  1.0 -0.1089038222
C  C146  1  0.51370000  0.28000000  0.63380000  1.0 -0.2015794185
C  C147  1  0.37410000  0.34810000  0.52410000  1.0 0.0101023266
C  C148  1  0.39740000  0.29130000  0.48310000  1.0 0.1487391576
C  C149  1  0.35290000  0.30170000  0.47550000  1.0 0.1487391576
C  C150  1  0.33070000  0.27820000  0.44750000  1.0 -0.1804257809
C  C151  1  0.35400000  0.24500000  0.42840000  1.0 -0.1089038222
C  C152  1  0.39720000  0.23560000  0.43570000  1.0 -0.0992614301
C  C153  1  0.41980000  0.25940000  0.46360000  1.0 -0.1629497089
C  C154  1  0.29670000  0.31400000  0.59650000  1.0 0.0309059458
C  C155  1  0.28750000  0.37650000  0.63900000  1.0 0.1818842601
C  C156  1  0.26770000  0.38650000  0.60250000  1.0 0.1602317777
C  C157  1  0.24750000  0.42880000  0.59710000  1.0 -0.1901344456
C  C158  1  0.24870000  0.45930000  0.62840000  1.0 -0.1089038222
C  C159  1  0.26770000  0.44910000  0.66370000  1.0 -0.1089038222
C  C160  1  0.28740000  0.40660000  0.66940000  1.0 -0.1901344456
C  C161  1  0.29910000  0.45150000  0.49570000  1.0 0.1192597713
C  C162  1  0.23780000  0.48600000  0.48440000  1.0 0.1398423679
C  C163  1  0.22890000  0.44110000  0.48900000  1.0 0.1398423679
C  C164  1  0.20430000  0.51730000  0.47680000  1.0 -0.1901344456
C  C165  1  0.15990000  0.50100000  0.47410000  1.0 -0.1089038222
C  C166  1  0.15060000  0.45470000  0.47870000  1.0 -0.0992614301
C  C167  1  0.18540000  0.42390000  0.48640000  1.0 -0.1901344456
C  C168  1  0.20810000  0.32520000  0.46100000  1.0 0.1487391576
C  C169  1  0.22360000  0.34340000  0.42540000  1.0 -0.1804257809
C  C170  1  0.20560000  0.32770000  0.39020000  1.0 -0.1193605403
C  C171  1  0.38430000  0.36600000  0.73300000  1.0 0.1602317777
C  C172  1  0.32620000  0.20690000  0.71470000  1.0 0.1602317777
C  C173  1  0.42280000  0.38490000  0.71480000  1.0 -0.1804257809
C  C174  1  0.44160000  0.42340000  0.73290000  1.0 -0.1193605403
C  C175  1  0.35690000  0.20750000  0.74600000  1.0 -0.1901344456
C  C176  1  0.35650000  0.17700000  0.77770000  1.0 -0.1089038222
C  C177  1  0.39640000  0.52850000  0.93380000  1.0 0.1398423679
C  C178  1  0.44130000  0.53240000  0.94390000  1.0 0.1294948197
C  C179  1  0.46610000  0.56650000  0.92800000  1.0 -0.1901344456
C  C180  1  0.44460000  0.59540000  0.90300000  1.0 -0.0893992956
C  C181  1  0.40110000  0.59110000  0.89320000  1.0 -0.0992614301
C  C182  1  0.37620000  0.55660000  0.90870000  1.0 -0.1727764763
C  C183  1  0.41500000  0.47270000  0.97770000  1.0 0.0309059458
C  C184  1  0.28300000  0.40170000  0.89550000  1.0 0.1398423679
C  C185  1  0.28020000  0.46750000  0.87250000  1.0 0.1398423679
C  C186  1  0.27580000  0.43700000  0.84280000  1.0 0.1487391576
C  C187  1  0.27060000  0.45060000  0.80460000  1.0 -0.1901344456
C  C188  1  0.27000000  0.49710000  0.79710000  1.0 -0.0992614301
C  C189  1  0.27490000  0.52840000  0.82770000  1.0 -0.1089038222
C  C190  1  0.28000000  0.51370000  0.86620000  1.0 -0.2015794185
C  C191  1  0.34810000  0.37410000  0.97590000  1.0 0.0101023266
C  C192  1  0.29130000  0.39740000  0.01690000  1.0 0.1487391576
C  C193  1  0.30170000  0.35290000  0.02450000  1.0 0.1487391576
C  C194  1  0.27820000  0.33070000  0.05250000  1.0 -0.1804257809
C  C195  1  0.24500000  0.35400000  0.07160000  1.0 -0.1089038222
C  C196  1  0.23560000  0.39720000  0.06430000  1.0 -0.0992614301
C  C197  1  0.25940000  0.41980000  0.03640000  1.0 -0.1629497089
C  C198  1  0.31400000  0.29670000  0.90350000  1.0 0.0309059458
C  C199  1  0.37650000  0.28750000  0.86100000  1.0 0.1818842601
C  C200  1  0.38650000  0.26770000  0.89750000  1.0 0.1602317777
C  C201  1  0.42880000  0.24750000  0.90290000  1.0 -0.1901344456
C  C202  1  0.45930000  0.24870000  0.87160000  1.0 -0.1089038222
C  C203  1  0.44910000  0.26770000  0.83630000  1.0 -0.1089038222
C  C204  1  0.40660000  0.28740000  0.83060000  1.0 -0.1901344456
C  C205  1  0.45150000  0.29910000  0.00430000  1.0 0.1192597713
C  C206  1  0.48600000  0.23780000  0.01560000  1.0 0.1398423679
C  C207  1  0.44110000  0.22890000  0.01100000  1.0 0.1398423679
C  C208  1  0.51730000  0.20430000  0.02320000  1.0 -0.1901344456
C  C209  1  0.50100000  0.15990000  0.02590000  1.0 -0.1089038222
C  C210  1  0.45470000  0.15060000  0.02130000  1.0 -0.0992614301
C  C211  1  0.42390000  0.18540000  0.01360000  1.0 -0.1901344456
C  C212  1  0.32520000  0.20810000  0.03900000  1.0 0.1487391576
C  C213  1  0.34340000  0.22360000  0.07460000  1.0 -0.1804257809
C  C214  1  0.32770000  0.20560000  0.10980000  1.0 -0.1193605403
C  C215  1  0.36600000  0.38430000  0.76700000  1.0 0.1602317777
C  C216  1  0.20690000  0.32620000  0.78530000  1.0 0.1602317777
C  C217  1  0.38490000  0.42280000  0.78520000  1.0 -0.1804257809
C  C218  1  0.42340000  0.44160000  0.76710000  1.0 -0.1193605403
C  C219  1  0.20750000  0.35690000  0.75400000  1.0 -0.1901344456
C  C220  1  0.17700000  0.35650000  0.72230000  1.0 -0.1089038222
C  C221  1  0.60360000  0.47150000  0.93380000  1.0 0.1398423679
C  C222  1  0.55870000  0.46760000  0.94390000  1.0 0.1294948197
C  C223  1  0.53390000  0.43350000  0.92800000  1.0 -0.1901344456
C  C224  1  0.55540000  0.40460000  0.90300000  1.0 -0.0893992956
C  C225  1  0.59890000  0.40890000  0.89320000  1.0 -0.0992614301
C  C226  1  0.62380000  0.44340000  0.90870000  1.0 -0.1727764763
C  C227  1  0.58500000  0.52730000  0.97770000  1.0 0.0309059458
C  C228  1  0.71700000  0.59830000  0.89550000  1.0 0.1398423679
C  C229  1  0.71980000  0.53250000  0.87250000  1.0 0.1398423679
C  C230  1  0.72420000  0.56300000  0.84280000  1.0 0.1487391576
C  C231  1  0.72940000  0.54940000  0.80460000  1.0 -0.1901344456
C  C232  1  0.73000000  0.50290000  0.79710000  1.0 -0.0992614301
C  C233  1  0.72510000  0.47160000  0.82770000  1.0 -0.1089038222
C  C234  1  0.72000000  0.48630000  0.86620000  1.0 -0.2015794185
C  C235  1  0.65190000  0.62590000  0.97590000  1.0 0.0101023266
C  C236  1  0.70870000  0.60260000  0.01690000  1.0 0.1487391576
C  C237  1  0.69830000  0.64710000  0.02450000  1.0 0.1487391576
C  C238  1  0.72180000  0.66930000  0.05250000  1.0 -0.1804257809
C  C239  1  0.75500000  0.64600000  0.07160000  1.0 -0.1089038222
C  C240  1  0.76440000  0.60280000  0.06430000  1.0 -0.0992614301
C  C241  1  0.74060000  0.58020000  0.03640000  1.0 -0.1629497089
C  C242  1  0.68600000  0.70330000  0.90350000  1.0 0.0364396008
C  C243  1  0.62350000  0.71250000  0.86100000  1.0 0.1818842601
C  C244  1  0.61350000  0.73230000  0.89750000  1.0 0.1602317777
C  C245  1  0.57120000  0.75250000  0.90290000  1.0 -0.1901344456
C  C246  1  0.54070000  0.75130000  0.87160000  1.0 -0.1089038222
C  C247  1  0.55090000  0.73230000  0.83630000  1.0 -0.1089038222
C  C248  1  0.59340000  0.71260000  0.83060000  1.0 -0.1901344456
C  C249  1  0.54850000  0.70090000  0.00430000  1.0 0.1192597713
C  C250  1  0.51400000  0.76220000  0.01560000  1.0 0.1398423679
C  C251  1  0.55890000  0.77110000  0.01100000  1.0 0.1398423679
C  C252  1  0.48270000  0.79570000  0.02320000  1.0 -0.1901344456
C  C253  1  0.49900000  0.84010000  0.02590000  1.0 -0.1089038222
C  C254  1  0.54530000  0.84940000  0.02130000  1.0 -0.0992614301
C  C255  1  0.57610000  0.81460000  0.01360000  1.0 -0.1901344456
C  C256  1  0.67480000  0.79190000  0.03900000  1.0 0.1487391576
C  C257  1  0.65660000  0.77640000  0.07460000  1.0 -0.1804257809
C  C258  1  0.67230000  0.79440000  0.10980000  1.0 -0.1193605403
C  C259  1  0.63400000  0.61570000  0.76700000  1.0 0.1602317777
C  C260  1  0.79310000  0.67380000  0.78530000  1.0 0.1602317777
C  C261  1  0.61510000  0.57720000  0.78520000  1.0 -0.1804257809
C  C262  1  0.57660000  0.55840000  0.76710000  1.0 -0.1193605403
C  C263  1  0.79250000  0.64310000  0.75400000  1.0 -0.1901344456
C  C264  1  0.82300000  0.64350000  0.72230000  1.0 -0.1089038222
C  C265  1  0.02850000  0.10360000  0.43380000  1.0 0.1398423679
C  C266  1  0.03240000  0.05870000  0.44390000  1.0 0.1294948197
C  C267  1  0.06650000  0.03390000  0.42800000  1.0 -0.1901344456
C  C268  1  0.09540000  0.05540000  0.40300000  1.0 -0.0893992956
C  C269  1  0.09110000  0.09890000  0.39320000  1.0 -0.0992614301
C  C270  1  0.05660000  0.12380000  0.40870000  1.0 -0.1727764763
C  C271  1  0.97270000  0.08500000  0.47770000  1.0 0.0309059458
C  C272  1  0.90170000  0.21700000  0.39550000  1.0 0.1398423679
C  C273  1  0.96750000  0.21980000  0.37250000  1.0 0.1398423679
C  C274  1  0.93700000  0.22420000  0.34280000  1.0 0.1487391576
C  C275  1  0.95060000  0.22940000  0.30460000  1.0 -0.1901344456
C  C276  1  0.99710000  0.23000000  0.29710000  1.0 -0.0992614301
C  C277  1  0.02840000  0.22510000  0.32770000  1.0 -0.1089038222
C  C278  1  0.01370000  0.22000000  0.36620000  1.0 -0.2015794185
C  C279  1  0.87410000  0.15190000  0.47590000  1.0 0.0101023266
C  C280  1  0.89740000  0.20870000  0.51690000  1.0 0.1487391576
C  C281  1  0.85290000  0.19830000  0.52450000  1.0 0.1487391576
C  C282  1  0.83070000  0.22180000  0.55250000  1.0 -0.1804257809
C  C283  1  0.85400000  0.25500000  0.57160000  1.0 -0.1089038222
C  C284  1  0.89720000  0.26440000  0.56430000  1.0 -0.0992614301
C  C285  1  0.91980000  0.24060000  0.53640000  1.0 -0.1629497089
C  C286  1  0.79670000  0.18600000  0.40350000  1.0 0.0364396008
C  C287  1  0.78750000  0.12350000  0.36100000  1.0 0.1818842601
C  C288  1  0.76770000  0.11350000  0.39750000  1.0 0.1602317777
C  C289  1  0.74750000  0.07120000  0.40290000  1.0 -0.1901344456
C  C290  1  0.74870000  0.04070000  0.37160000  1.0 -0.1089038222
C  C291  1  0.76770000  0.05090000  0.33630000  1.0 -0.1089038222
C  C292  1  0.78740000  0.09340000  0.33060000  1.0 -0.1901344456
C  C293  1  0.79910000  0.04850000  0.50430000  1.0 0.1192597713
C  C294  1  0.73780000  0.01400000  0.51560000  1.0 0.1398423679
C  C295  1  0.72890000  0.05890000  0.51100000  1.0 0.1398423679
C  C296  1  0.70430000  0.98270000  0.52320000  1.0 -0.1901344456
C  C297  1  0.65990000  0.99900000  0.52590000  1.0 -0.1089038222
C  C298  1  0.65060000  0.04530000  0.52130000  1.0 -0.0992614301
C  C299  1  0.68540000  0.07610000  0.51360000  1.0 -0.1901344456
C  C300  1  0.70810000  0.17480000  0.53900000  1.0 0.1487391576
C  C301  1  0.72360000  0.15660000  0.57460000  1.0 -0.1804257809
C  C302  1  0.70560000  0.17230000  0.60980000  1.0 -0.1193605403
C  C303  1  0.88430000  0.13400000  0.26700000  1.0 0.1602317777
C  C304  1  0.82620000  0.29310000  0.28530000  1.0 0.1602317777
C  C305  1  0.92280000  0.11510000  0.28520000  1.0 -0.1804257809
C  C306  1  0.94160000  0.07660000  0.26710000  1.0 -0.1193605403
C  C307  1  0.85690000  0.29250000  0.25400000  1.0 -0.1901344456
C  C308  1  0.85650000  0.32300000  0.22230000  1.0 -0.1089038222
C  C309  1  0.97150000  0.89640000  0.43380000  1.0 0.1398423679
C  C310  1  0.96760000  0.94130000  0.44390000  1.0 0.1294948197
C  C311  1  0.93350000  0.96610000  0.42800000  1.0 -0.1901344456
C  C312  1  0.90460000  0.94460000  0.40300000  1.0 -0.0893992956
C  C313  1  0.90890000  0.90110000  0.39320000  1.0 -0.0992614301
C  C314  1  0.94340000  0.87620000  0.40870000  1.0 -0.1727764763
C  C315  1  0.02730000  0.91500000  0.47770000  1.0 0.0309059458
C  C316  1  0.09830000  0.78300000  0.39550000  1.0 0.1398423679
C  C317  1  0.03250000  0.78020000  0.37250000  1.0 0.1398423679
C  C318  1  0.06300000  0.77580000  0.34280000  1.0 0.1487391576
C  C319  1  0.04940000  0.77060000  0.30460000  1.0 -0.1901344456
C  C320  1  0.00290000  0.77000000  0.29710000  1.0 -0.0992614301
C  C321  1  0.97160000  0.77490000  0.32770000  1.0 -0.1089038222
C  C322  1  0.98630000  0.78000000  0.36620000  1.0 -0.2015794185
C  C323  1  0.12590000  0.84810000  0.47590000  1.0 0.0101023266
C  C324  1  0.10260000  0.79130000  0.51690000  1.0 0.1487391576
C  C325  1  0.14710000  0.80170000  0.52450000  1.0 0.1487391576
C  C326  1  0.16930000  0.77820000  0.55250000  1.0 -0.1804257809
C  C327  1  0.14600000  0.74500000  0.57160000  1.0 -0.1089038222
C  C328  1  0.10280000  0.73560000  0.56430000  1.0 -0.0992614301
C  C329  1  0.08020000  0.75940000  0.53640000  1.0 -0.1629497089
C  C330  1  0.20330000  0.81400000  0.40350000  1.0 0.0309059458
C  C331  1  0.21250000  0.87650000  0.36100000  1.0 0.1818842601
C  C332  1  0.23230000  0.88650000  0.39750000  1.0 0.1602317777
C  C333  1  0.25250000  0.92880000  0.40290000  1.0 -0.1901344456
C  C334  1  0.25130000  0.95930000  0.37160000  1.0 -0.1089038222
C  C335  1  0.23230000  0.94910000  0.33630000  1.0 -0.1089038222
C  C336  1  0.21260000  0.90660000  0.33060000  1.0 -0.1901344456
C  C337  1  0.20090000  0.95150000  0.50430000  1.0 0.1192597713
C  C338  1  0.26220000  0.98600000  0.51560000  1.0 0.1398423679
C  C339  1  0.27110000  0.94110000  0.51100000  1.0 0.1398423679
C  C340  1  0.29570000  0.01730000  0.52320000  1.0 -0.1901344456
C  C341  1  0.34010000  0.00100000  0.52590000  1.0 -0.1089038222
C  C342  1  0.34940000  0.95470000  0.52130000  1.0 -0.0992614301
C  C343  1  0.31460000  0.92390000  0.51360000  1.0 -0.1901344456
C  C344  1  0.29190000  0.82520000  0.53900000  1.0 0.1487391576
C  C345  1  0.27640000  0.84340000  0.57460000  1.0 -0.1804257809
C  C346  1  0.29440000  0.82770000  0.60980000  1.0 -0.1193605403
C  C347  1  0.11570000  0.86600000  0.26700000  1.0 0.1602317777
C  C348  1  0.17380000  0.70690000  0.28530000  1.0 0.1602317777
C  C349  1  0.07720000  0.88490000  0.28520000  1.0 -0.1804257809
C  C350  1  0.05840000  0.92340000  0.26710000  1.0 -0.1193605403
C  C351  1  0.14310000  0.70750000  0.25400000  1.0 -0.1901344456
C  C352  1  0.14350000  0.67700000  0.22230000  1.0 -0.1089038222
C  C353  1  0.39640000  0.47150000  0.43380000  1.0 0.1398423679
C  C354  1  0.44130000  0.46760000  0.44390000  1.0 0.1294948197
C  C355  1  0.46610000  0.43350000  0.42800000  1.0 -0.1901344456
C  C356  1  0.44460000  0.40460000  0.40300000  1.0 -0.0893992956
C  C357  1  0.40110000  0.40890000  0.39320000  1.0 -0.0992614301
C  C358  1  0.37620000  0.44340000  0.40870000  1.0 -0.1727764763
C  C359  1  0.41500000  0.52730000  0.47770000  1.0 0.0309059458
C  C360  1  0.28300000  0.59830000  0.39550000  1.0 0.1398423679
C  C361  1  0.28020000  0.53250000  0.37250000  1.0 0.1398423679
C  C362  1  0.27580000  0.56300000  0.34280000  1.0 0.1487391576
C  C363  1  0.27060000  0.54940000  0.30460000  1.0 -0.1901344456
C  C364  1  0.27000000  0.50290000  0.29710000  1.0 -0.0992614301
C  C365  1  0.27490000  0.47160000  0.32770000  1.0 -0.1089038222
C  C366  1  0.28000000  0.48630000  0.36620000  1.0 -0.2015794185
C  C367  1  0.34810000  0.62590000  0.47590000  1.0 0.0101023266
C  C368  1  0.29130000  0.60260000  0.51690000  1.0 0.1487391576
C  C369  1  0.30170000  0.64710000  0.52450000  1.0 0.1487391576
C  C370  1  0.27820000  0.66930000  0.55250000  1.0 -0.1804257809
C  C371  1  0.24500000  0.64600000  0.57160000  1.0 -0.1089038222
C  C372  1  0.23560000  0.60280000  0.56430000  1.0 -0.0992614301
C  C373  1  0.25940000  0.58020000  0.53640000  1.0 -0.1629497089
C  C374  1  0.31400000  0.70330000  0.40350000  1.0 0.0309059458
C  C375  1  0.37650000  0.71250000  0.36100000  1.0 0.1818842601
C  C376  1  0.38650000  0.73230000  0.39750000  1.0 0.1602317777
C  C377  1  0.42880000  0.75250000  0.40290000  1.0 -0.1901344456
C  C378  1  0.45930000  0.75130000  0.37160000  1.0 -0.1089038222
C  C379  1  0.44910000  0.73230000  0.33630000  1.0 -0.1089038222
C  C380  1  0.40660000  0.71260000  0.33060000  1.0 -0.1901344456
C  C381  1  0.45150000  0.70090000  0.50430000  1.0 0.1192597713
C  C382  1  0.48600000  0.76220000  0.51560000  1.0 0.1398423679
C  C383  1  0.44110000  0.77110000  0.51100000  1.0 0.1398423679
C  C384  1  0.51730000  0.79570000  0.52320000  1.0 -0.1901344456
C  C385  1  0.50100000  0.84010000  0.52590000  1.0 -0.1089038222
C  C386  1  0.45470000  0.84940000  0.52130000  1.0 -0.0992614301
C  C387  1  0.42390000  0.81460000  0.51360000  1.0 -0.1901344456
C  C388  1  0.32520000  0.79190000  0.53900000  1.0 0.1487391576
C  C389  1  0.34340000  0.77640000  0.57460000  1.0 -0.1804257809
C  C390  1  0.32770000  0.79440000  0.60980000  1.0 -0.1193605403
C  C391  1  0.36600000  0.61570000  0.26700000  1.0 0.1602317777
C  C392  1  0.20690000  0.67380000  0.28530000  1.0 0.1602317777
C  C393  1  0.38490000  0.57720000  0.28520000  1.0 -0.1804257809
C  C394  1  0.42340000  0.55840000  0.26710000  1.0 -0.1193605403
C  C395  1  0.20750000  0.64310000  0.25400000  1.0 -0.1901344456
C  C396  1  0.17700000  0.64350000  0.22230000  1.0 -0.1089038222
C  C397  1  0.60360000  0.52850000  0.43380000  1.0 0.1398423679
C  C398  1  0.55870000  0.53240000  0.44390000  1.0 0.1294948197
C  C399  1  0.53390000  0.56650000  0.42800000  1.0 -0.1901344456
C  C400  1  0.55540000  0.59540000  0.40300000  1.0 -0.0893992956
C  C401  1  0.59890000  0.59110000  0.39320000  1.0 -0.0992614301
C  C402  1  0.62380000  0.55660000  0.40870000  1.0 -0.1727764763
C  C403  1  0.58500000  0.47270000  0.47770000  1.0 0.0309059458
C  C404  1  0.71700000  0.40170000  0.39550000  1.0 0.1398423679
C  C405  1  0.71980000  0.46750000  0.37250000  1.0 0.1398423679
C  C406  1  0.72420000  0.43700000  0.34280000  1.0 0.1487391576
C  C407  1  0.72940000  0.45060000  0.30460000  1.0 -0.1901344456
C  C408  1  0.73000000  0.49710000  0.29710000  1.0 -0.0992614301
C  C409  1  0.72510000  0.52840000  0.32770000  1.0 -0.1089038222
C  C410  1  0.72000000  0.51370000  0.36620000  1.0 -0.2015794185
C  C411  1  0.65190000  0.37410000  0.47590000  1.0 0.0101023266
C  C412  1  0.70870000  0.39740000  0.51690000  1.0 0.1487391576
C  C413  1  0.69830000  0.35290000  0.52450000  1.0 0.1487391576
C  C414  1  0.72180000  0.33070000  0.55250000  1.0 -0.1804257809
C  C415  1  0.75500000  0.35400000  0.57160000  1.0 -0.1089038222
C  C416  1  0.76440000  0.39720000  0.56430000  1.0 -0.0992614301
C  C417  1  0.74060000  0.41980000  0.53640000  1.0 -0.1629497089
C  C418  1  0.68600000  0.29670000  0.40350000  1.0 0.0364396008
C  C419  1  0.62350000  0.28750000  0.36100000  1.0 0.1818842601
C  C420  1  0.61350000  0.26770000  0.39750000  1.0 0.1602317777
C  C421  1  0.57120000  0.24750000  0.40290000  1.0 -0.1901344456
C  C422  1  0.54070000  0.24870000  0.37160000  1.0 -0.1089038222
C  C423  1  0.55090000  0.26770000  0.33630000  1.0 -0.1089038222
C  C424  1  0.59340000  0.28740000  0.33060000  1.0 -0.1901344456
C  C425  1  0.54850000  0.29910000  0.50430000  1.0 0.1192597713
C  C426  1  0.51400000  0.23780000  0.51560000  1.0 0.1398423679
C  C427  1  0.55890000  0.22890000  0.51100000  1.0 0.1398423679
C  C428  1  0.48270000  0.20430000  0.52320000  1.0 -0.1901344456
C  C429  1  0.49900000  0.15990000  0.52590000  1.0 -0.1089038222
C  C430  1  0.54530000  0.15060000  0.52130000  1.0 -0.0992614301
C  C431  1  0.57610000  0.18540000  0.51360000  1.0 -0.1901344456
C  C432  1  0.67480000  0.20810000  0.53900000  1.0 0.1487391576
C  C433  1  0.65660000  0.22360000  0.57460000  1.0 -0.1804257809
C  C434  1  0.67230000  0.20560000  0.60980000  1.0 -0.1193605403
C  C435  1  0.63400000  0.38430000  0.26700000  1.0 0.1602317777
C  C436  1  0.79310000  0.32620000  0.28530000  1.0 0.1602317777
C  C437  1  0.61510000  0.42280000  0.28520000  1.0 -0.1804257809
C  C438  1  0.57660000  0.44160000  0.26710000  1.0 -0.1193605403
C  C439  1  0.79250000  0.35690000  0.25400000  1.0 -0.1901344456
C  C440  1  0.82300000  0.35650000  0.22230000  1.0 -0.1089038222
C  C441  1  0.02850000  0.89640000  0.93380000  1.0 0.1398423679
C  C442  1  0.03240000  0.94130000  0.94390000  1.0 0.1294948197
C  C443  1  0.06650000  0.96610000  0.92800000  1.0 -0.1901344456
C  C444  1  0.09540000  0.94460000  0.90300000  1.0 -0.0893992956
C  C445  1  0.09110000  0.90110000  0.89320000  1.0 -0.0992614301
C  C446  1  0.05660000  0.87620000  0.90870000  1.0 -0.1727764763
C  C447  1  0.97270000  0.91500000  0.97770000  1.0 0.0309059458
C  C448  1  0.90170000  0.78300000  0.89550000  1.0 0.1398423679
C  C449  1  0.96750000  0.78020000  0.87250000  1.0 0.1398423679
C  C450  1  0.93700000  0.77580000  0.84280000  1.0 0.1487391576
C  C451  1  0.95060000  0.77060000  0.80460000  1.0 -0.1901344456
C  C452  1  0.99710000  0.77000000  0.79710000  1.0 -0.0992614301
C  C453  1  0.02840000  0.77490000  0.82770000  1.0 -0.1089038222
C  C454  1  0.01370000  0.78000000  0.86620000  1.0 -0.2015794185
C  C455  1  0.87410000  0.84810000  0.97590000  1.0 0.0101023266
C  C456  1  0.89740000  0.79130000  0.01690000  1.0 0.1487391576
C  C457  1  0.85290000  0.80170000  0.02450000  1.0 0.1487391576
C  C458  1  0.83070000  0.77820000  0.05250000  1.0 -0.1804257809
C  C459  1  0.85400000  0.74500000  0.07160000  1.0 -0.1089038222
C  C460  1  0.89720000  0.73560000  0.06430000  1.0 -0.0992614301
C  C461  1  0.91980000  0.75940000  0.03640000  1.0 -0.1629497089
C  C462  1  0.79670000  0.81400000  0.90350000  1.0 0.0364396008
C  C463  1  0.78750000  0.87650000  0.86100000  1.0 0.1818842601
C  C464  1  0.76770000  0.88650000  0.89750000  1.0 0.1602317777
C  C465  1  0.74750000  0.92880000  0.90290000  1.0 -0.1901344456
C  C466  1  0.74870000  0.95930000  0.87160000  1.0 -0.1089038222
C  C467  1  0.76770000  0.94910000  0.83630000  1.0 -0.1089038222
C  C468  1  0.78740000  0.90660000  0.83060000  1.0 -0.1901344456
C  C469  1  0.79910000  0.95150000  0.00430000  1.0 0.1192597713
C  C470  1  0.73780000  0.98600000  0.01560000  1.0 0.1398423679
C  C471  1  0.72890000  0.94110000  0.01100000  1.0 0.1398423679
C  C472  1  0.70430000  0.01730000  0.02320000  1.0 -0.1901344456
C  C473  1  0.65990000  0.00100000  0.02590000  1.0 -0.1089038222
C  C474  1  0.65060000  0.95470000  0.02130000  1.0 -0.0992614301
C  C475  1  0.68540000  0.92390000  0.01360000  1.0 -0.1901344456
C  C476  1  0.70810000  0.82520000  0.03900000  1.0 0.1487391576
C  C477  1  0.72360000  0.84340000  0.07460000  1.0 -0.1804257809
C  C478  1  0.70560000  0.82770000  0.10980000  1.0 -0.1193605403
C  C479  1  0.88430000  0.86600000  0.76700000  1.0 0.1602317777
C  C480  1  0.82620000  0.70690000  0.78530000  1.0 0.1602317777
C  C481  1  0.92280000  0.88490000  0.78520000  1.0 -0.1804257809
C  C482  1  0.94160000  0.92340000  0.76710000  1.0 -0.1193605403
C  C483  1  0.85690000  0.70750000  0.75400000  1.0 -0.1901344456
C  C484  1  0.85650000  0.67700000  0.72230000  1.0 -0.1089038222
C  C485  1  0.97150000  0.10360000  0.93380000  1.0 0.1398423679
C  C486  1  0.96760000  0.05870000  0.94390000  1.0 0.1294948197
C  C487  1  0.93350000  0.03390000  0.92800000  1.0 -0.1901344456
C  C488  1  0.90460000  0.05540000  0.90300000  1.0 -0.0893992956
C  C489  1  0.90890000  0.09890000  0.89320000  1.0 -0.0992614301
C  C490  1  0.94340000  0.12380000  0.90870000  1.0 -0.1727764763
C  C491  1  0.02730000  0.08500000  0.97770000  1.0 0.0309059458
C  C492  1  0.09830000  0.21700000  0.89550000  1.0 0.1398423679
C  C493  1  0.03250000  0.21980000  0.87250000  1.0 0.1398423679
C  C494  1  0.06300000  0.22420000  0.84280000  1.0 0.1487391576
C  C495  1  0.04940000  0.22940000  0.80460000  1.0 -0.2015794185
C  C496  1  0.00290000  0.23000000  0.79710000  1.0 -0.0992614301
C  C497  1  0.97160000  0.22510000  0.82770000  1.0 -0.1089038222
C  C498  1  0.98630000  0.22000000  0.86620000  1.0 -0.2015794185
C  C499  1  0.12590000  0.15190000  0.97590000  1.0 0.0101023266
C  C500  1  0.10260000  0.20870000  0.01690000  1.0 0.1487391576
C  C501  1  0.14710000  0.19830000  0.02450000  1.0 0.1487391576
C  C502  1  0.16930000  0.22180000  0.05250000  1.0 -0.1804257809
C  C503  1  0.14600000  0.25500000  0.07160000  1.0 -0.1089038222
C  C504  1  0.10280000  0.26440000  0.06430000  1.0 -0.0992614301
C  C505  1  0.08020000  0.24060000  0.03640000  1.0 -0.1629497089
C  C506  1  0.20330000  0.18600000  0.90350000  1.0 0.0309059458
C  C507  1  0.21250000  0.12350000  0.86100000  1.0 0.1818842601
C  C508  1  0.23230000  0.11350000  0.89750000  1.0 0.1602317777
C  C509  1  0.25250000  0.07120000  0.90290000  1.0 -0.1901344456
C  C510  1  0.25130000  0.04070000  0.87160000  1.0 -0.1089038222
C  C511  1  0.23230000  0.05090000  0.83630000  1.0 -0.1089038222
C  C512  1  0.21260000  0.09340000  0.83060000  1.0 -0.1901344456
C  C513  1  0.20090000  0.04850000  0.00430000  1.0 0.1192597713
C  C514  1  0.26220000  0.01400000  0.01560000  1.0 0.1398423679
C  C515  1  0.27110000  0.05890000  0.01100000  1.0 0.1398423679
C  C516  1  0.29570000  0.98270000  0.02320000  1.0 -0.1901344456
C  C517  1  0.34010000  0.99900000  0.02590000  1.0 -0.1089038222
C  C518  1  0.34940000  0.04530000  0.02130000  1.0 -0.0992614301
C  C519  1  0.31460000  0.07610000  0.01360000  1.0 -0.1901344456
C  C520  1  0.29190000  0.17480000  0.03900000  1.0 0.1487391576
C  C521  1  0.27640000  0.15660000  0.07460000  1.0 -0.1804257809
C  C522  1  0.29440000  0.17230000  0.10980000  1.0 -0.1193605403
C  C523  1  0.11570000  0.13400000  0.76700000  1.0 0.1602317777
C  C524  1  0.17380000  0.29310000  0.78530000  1.0 0.1602317777
C  C525  1  0.07720000  0.11510000  0.78520000  1.0 -0.1804257809
C  C526  1  0.05840000  0.07660000  0.76710000  1.0 -0.1193605403
C  C527  1  0.14310000  0.29250000  0.75400000  1.0 -0.1901344456
C  C528  1  0.14350000  0.32300000  0.72230000  1.0 -0.1089038222
C  C529  1  0.10360000  0.97150000  0.56620000  1.0 0.1398423679
C  C530  1  0.05870000  0.96760000  0.55610000  1.0 0.1294948197
C  C531  1  0.03390000  0.93350000  0.57200000  1.0 -0.1901344456
C  C532  1  0.05540000  0.90460000  0.59700000  1.0 -0.0893992956
C  C533  1  0.09890000  0.90890000  0.60680000  1.0 -0.0992614301
C  C534  1  0.12380000  0.94340000  0.59130000  1.0 -0.1727764763
C  C535  1  0.08500000  0.02730000  0.52230000  1.0 0.0309059458
C  C536  1  0.21700000  0.09830000  0.60450000  1.0 0.1398423679
C  C537  1  0.21980000  0.03250000  0.62750000  1.0 0.1398423679
C  C538  1  0.22420000  0.06300000  0.65720000  1.0 0.1487391576
C  C539  1  0.22940000  0.04940000  0.69540000  1.0 -0.2015794185
C  C540  1  0.23000000  0.00290000  0.70290000  1.0 -0.0992614301
C  C541  1  0.22510000  0.97160000  0.67230000  1.0 -0.1089038222
C  C542  1  0.22000000  0.98630000  0.63380000  1.0 -0.2015794185
C  C543  1  0.15190000  0.12590000  0.52410000  1.0 0.0101023266
C  C544  1  0.20870000  0.10260000  0.48310000  1.0 0.1487391576
C  C545  1  0.19830000  0.14710000  0.47550000  1.0 0.1487391576
C  C546  1  0.22180000  0.16930000  0.44750000  1.0 -0.1804257809
C  C547  1  0.25500000  0.14600000  0.42840000  1.0 -0.1089038222
C  C548  1  0.26440000  0.10280000  0.43570000  1.0 -0.0992614301
C  C549  1  0.24060000  0.08020000  0.46360000  1.0 -0.1629497089
C  C550  1  0.18600000  0.20330000  0.59650000  1.0 0.0309059458
C  C551  1  0.12350000  0.21250000  0.63900000  1.0 0.1818842601
C  C552  1  0.11350000  0.23230000  0.60250000  1.0 0.1602317777
C  C553  1  0.07120000  0.25250000  0.59710000  1.0 -0.1901344456
C  C554  1  0.04070000  0.25130000  0.62840000  1.0 -0.1089038222
C  C555  1  0.05090000  0.23230000  0.66370000  1.0 -0.1089038222
C  C556  1  0.09340000  0.21260000  0.66940000  1.0 -0.1901344456
C  C557  1  0.04850000  0.20090000  0.49570000  1.0 0.1192597713
C  C558  1  0.01400000  0.26220000  0.48440000  1.0 0.1398423679
C  C559  1  0.05890000  0.27110000  0.48900000  1.0 0.1398423679
C  C560  1  0.98270000  0.29570000  0.47680000  1.0 -0.1901344456
C  C561  1  0.99900000  0.34010000  0.47410000  1.0 -0.1089038222
C  C562  1  0.04530000  0.34940000  0.47870000  1.0 -0.0992614301
C  C563  1  0.07610000  0.31460000  0.48640000  1.0 -0.1901344456
C  C564  1  0.17480000  0.29190000  0.46100000  1.0 0.1487391576
C  C565  1  0.15660000  0.27640000  0.42540000  1.0 -0.1804257809
C  C566  1  0.17230000  0.29440000  0.39020000  1.0 -0.1193605403
C  C567  1  0.13400000  0.11570000  0.73300000  1.0 0.1602317777
C  C568  1  0.29310000  0.17380000  0.71470000  1.0 0.1602317777
C  C569  1  0.11510000  0.07720000  0.71480000  1.0 -0.1804257809
C  C570  1  0.07660000  0.05840000  0.73290000  1.0 -0.1193605403
C  C571  1  0.29250000  0.14310000  0.74600000  1.0 -0.1901344456
C  C572  1  0.32300000  0.14350000  0.77770000  1.0 -0.1089038222
C  C573  1  0.89640000  0.02850000  0.56620000  1.0 0.1398423679
C  C574  1  0.94130000  0.03240000  0.55610000  1.0 0.1294948197
C  C575  1  0.96610000  0.06650000  0.57200000  1.0 -0.1901344456
C  C576  1  0.94460000  0.09540000  0.59700000  1.0 -0.0893992956
C  C577  1  0.90110000  0.09110000  0.60680000  1.0 -0.0992614301
C  C578  1  0.87620000  0.05660000  0.59130000  1.0 -0.1727764763
C  C579  1  0.91500000  0.97270000  0.52230000  1.0 0.0309059458
C  C580  1  0.78300000  0.90170000  0.60450000  1.0 0.1398423679
C  C581  1  0.78020000  0.96750000  0.62750000  1.0 0.1398423679
C  C582  1  0.77580000  0.93700000  0.65720000  1.0 0.1487391576
C  C583  1  0.77060000  0.95060000  0.69540000  1.0 -0.1901344456
C  C584  1  0.77000000  0.99710000  0.70290000  1.0 -0.0992614301
C  C585  1  0.77490000  0.02840000  0.67230000  1.0 -0.1089038222
C  C586  1  0.78000000  0.01370000  0.63380000  1.0 -0.2015794185
C  C587  1  0.84810000  0.87410000  0.52410000  1.0 0.0101023266
C  C588  1  0.79130000  0.89740000  0.48310000  1.0 0.1487391576
C  C589  1  0.80170000  0.85290000  0.47550000  1.0 0.1487391576
C  C590  1  0.77820000  0.83070000  0.44750000  1.0 -0.1804257809
C  C591  1  0.74500000  0.85400000  0.42840000  1.0 -0.1089038222
C  C592  1  0.73560000  0.89720000  0.43570000  1.0 -0.0992614301
C  C593  1  0.75940000  0.91980000  0.46360000  1.0 -0.1629497089
C  C594  1  0.81400000  0.79670000  0.59650000  1.0 0.0364396008
C  C595  1  0.87650000  0.78750000  0.63900000  1.0 0.1818842601
C  C596  1  0.88650000  0.76770000  0.60250000  1.0 0.1602317777
C  C597  1  0.92880000  0.74750000  0.59710000  1.0 -0.1901344456
C  C598  1  0.95930000  0.74870000  0.62840000  1.0 -0.1089038222
C  C599  1  0.94910000  0.76770000  0.66370000  1.0 -0.1089038222
C  C600  1  0.90660000  0.78740000  0.66940000  1.0 -0.1901344456
C  C601  1  0.95150000  0.79910000  0.49570000  1.0 0.1192597713
C  C602  1  0.98600000  0.73780000  0.48440000  1.0 0.1398423679
C  C603  1  0.94110000  0.72890000  0.48900000  1.0 0.1398423679
C  C604  1  0.01730000  0.70430000  0.47680000  1.0 -0.1901344456
C  C605  1  0.00100000  0.65990000  0.47410000  1.0 -0.1089038222
C  C606  1  0.95470000  0.65060000  0.47870000  1.0 -0.0992614301
C  C607  1  0.92390000  0.68540000  0.48640000  1.0 -0.1901344456
C  C608  1  0.82520000  0.70810000  0.46100000  1.0 0.1487391576
C  C609  1  0.84340000  0.72360000  0.42540000  1.0 -0.1804257809
C  C610  1  0.82770000  0.70560000  0.39020000  1.0 -0.1193605403
C  C611  1  0.86600000  0.88430000  0.73300000  1.0 0.1602317777
C  C612  1  0.70690000  0.82620000  0.71470000  1.0 0.1602317777
C  C613  1  0.88490000  0.92280000  0.71480000  1.0 -0.1804257809
C  C614  1  0.92340000  0.94160000  0.73290000  1.0 -0.1193605403
C  C615  1  0.70750000  0.85690000  0.74600000  1.0 -0.1901344456
C  C616  1  0.67700000  0.85650000  0.77770000  1.0 -0.1089038222
C  C617  1  0.47150000  0.39640000  0.06620000  1.0 0.1398423679
C  C618  1  0.46760000  0.44130000  0.05610000  1.0 0.1294948197
C  C619  1  0.43350000  0.46610000  0.07200000  1.0 -0.1901344456
C  C620  1  0.40460000  0.44460000  0.09700000  1.0 -0.0893992956
C  C621  1  0.40890000  0.40110000  0.10680000  1.0 -0.0992614301
C  C622  1  0.44340000  0.37620000  0.09130000  1.0 -0.1727764763
C  C623  1  0.52730000  0.41500000  0.02230000  1.0 0.0309059458
C  C624  1  0.59830000  0.28300000  0.10450000  1.0 0.1398423679
C  C625  1  0.53250000  0.28020000  0.12750000  1.0 0.1398423679
C  C626  1  0.56300000  0.27580000  0.15720000  1.0 0.1487391576
C  C627  1  0.54940000  0.27060000  0.19540000  1.0 -0.1901344456
C  C628  1  0.50290000  0.27000000  0.20290000  1.0 -0.0992614301
C  C629  1  0.47160000  0.27490000  0.17230000  1.0 -0.1089038222
C  C630  1  0.48630000  0.28000000  0.13380000  1.0 -0.2015794185
C  C631  1  0.62590000  0.34810000  0.02410000  1.0 0.0101023266
C  C632  1  0.60260000  0.29130000  0.98310000  1.0 0.1487391576
C  C633  1  0.64710000  0.30170000  0.97550000  1.0 0.1487391576
C  C634  1  0.66930000  0.27820000  0.94750000  1.0 -0.1804257809
C  C635  1  0.64600000  0.24500000  0.92840000  1.0 -0.1089038222
C  C636  1  0.60280000  0.23560000  0.93570000  1.0 -0.0992614301
C  C637  1  0.58020000  0.25940000  0.96360000  1.0 -0.1629497089
C  C638  1  0.70330000  0.31400000  0.09650000  1.0 0.0364396008
C  C639  1  0.71250000  0.37650000  0.13900000  1.0 0.1818842601
C  C640  1  0.73230000  0.38650000  0.10250000  1.0 0.1602317777
C  C641  1  0.75250000  0.42880000  0.09710000  1.0 -0.1901344456
C  C642  1  0.75130000  0.45930000  0.12840000  1.0 -0.1089038222
C  C643  1  0.73230000  0.44910000  0.16370000  1.0 -0.1089038222
C  C644  1  0.71260000  0.40660000  0.16940000  1.0 -0.1901344456
C  C645  1  0.70090000  0.45150000  0.99570000  1.0 0.1192597713
C  C646  1  0.76220000  0.48600000  0.98440000  1.0 0.1398423679
C  C647  1  0.77110000  0.44110000  0.98900000  1.0 0.1398423679
C  C648  1  0.79570000  0.51730000  0.97680000  1.0 -0.1901344456
C  C649  1  0.84010000  0.50100000  0.97410000  1.0 -0.1089038222
C  C650  1  0.84940000  0.45470000  0.97870000  1.0 -0.0992614301
C  C651  1  0.81460000  0.42390000  0.98640000  1.0 -0.1901344456
C  C652  1  0.79190000  0.32520000  0.96100000  1.0 0.1487391576
C  C653  1  0.77640000  0.34340000  0.92540000  1.0 -0.1804257809
C  C654  1  0.79440000  0.32770000  0.89020000  1.0 -0.1193605403
C  C655  1  0.61570000  0.36600000  0.23300000  1.0 0.1602317777
C  C656  1  0.67380000  0.20690000  0.21470000  1.0 0.1602317777
C  C657  1  0.57720000  0.38490000  0.21480000  1.0 -0.1804257809
C  C658  1  0.55840000  0.42340000  0.23290000  1.0 -0.1193605403
C  C659  1  0.64310000  0.20750000  0.24600000  1.0 -0.1901344456
C  C660  1  0.64350000  0.17700000  0.27770000  1.0 -0.1089038222
C  C661  1  0.52850000  0.60360000  0.06620000  1.0 0.1398423679
C  C662  1  0.53240000  0.55870000  0.05610000  1.0 0.1294948197
C  C663  1  0.56650000  0.53390000  0.07200000  1.0 -0.1901344456
C  C664  1  0.59540000  0.55540000  0.09700000  1.0 -0.0893992956
C  C665  1  0.59110000  0.59890000  0.10680000  1.0 -0.0992614301
C  C666  1  0.55660000  0.62380000  0.09130000  1.0 -0.1727764763
C  C667  1  0.47270000  0.58500000  0.02230000  1.0 0.0309059458
C  C668  1  0.40170000  0.71700000  0.10450000  1.0 0.1398423679
C  C669  1  0.46750000  0.71980000  0.12750000  1.0 0.1398423679
C  C670  1  0.43700000  0.72420000  0.15720000  1.0 0.1487391576
C  C671  1  0.45060000  0.72940000  0.19540000  1.0 -0.1901344456
C  C672  1  0.49710000  0.73000000  0.20290000  1.0 -0.0992614301
C  C673  1  0.52840000  0.72510000  0.17230000  1.0 -0.1089038222
C  C674  1  0.51370000  0.72000000  0.13380000  1.0 -0.2015794185
C  C675  1  0.37410000  0.65190000  0.02410000  1.0 0.0101023266
C  C676  1  0.39740000  0.70870000  0.98310000  1.0 0.1487391576
C  C677  1  0.35290000  0.69830000  0.97550000  1.0 0.1487391576
C  C678  1  0.33070000  0.72180000  0.94750000  1.0 -0.1804257809
C  C679  1  0.35400000  0.75500000  0.92840000  1.0 -0.1089038222
C  C680  1  0.39720000  0.76440000  0.93570000  1.0 -0.0992614301
C  C681  1  0.41980000  0.74060000  0.96360000  1.0 -0.1629497089
C  C682  1  0.29670000  0.68600000  0.09650000  1.0 0.0364396008
C  C683  1  0.28750000  0.62350000  0.13900000  1.0 0.1818842601
C  C684  1  0.26770000  0.61350000  0.10250000  1.0 0.1602317777
C  C685  1  0.24750000  0.57120000  0.09710000  1.0 -0.1901344456
C  C686  1  0.24870000  0.54070000  0.12840000  1.0 -0.1089038222
C  C687  1  0.26770000  0.55090000  0.16370000  1.0 -0.1089038222
C  C688  1  0.28740000  0.59340000  0.16940000  1.0 -0.1901344456
C  C689  1  0.29910000  0.54850000  0.99570000  1.0 0.1192597713
C  C690  1  0.23780000  0.51400000  0.98440000  1.0 0.1398423679
C  C691  1  0.22890000  0.55890000  0.98900000  1.0 0.1398423679
C  C692  1  0.20430000  0.48270000  0.97680000  1.0 -0.1901344456
C  C693  1  0.15990000  0.49900000  0.97410000  1.0 -0.1089038222
C  C694  1  0.15060000  0.54530000  0.97870000  1.0 -0.0992614301
C  C695  1  0.18540000  0.57610000  0.98640000  1.0 -0.1901344456
C  C696  1  0.20810000  0.67480000  0.96100000  1.0 0.1487391576
C  C697  1  0.22360000  0.65660000  0.92540000  1.0 -0.1804257809
C  C698  1  0.20560000  0.67230000  0.89020000  1.0 -0.1193605403
C  C699  1  0.38430000  0.63400000  0.23300000  1.0 0.1602317777
C  C700  1  0.32620000  0.79310000  0.21470000  1.0 0.1602317777
C  C701  1  0.42280000  0.61510000  0.21480000  1.0 -0.1804257809
C  C702  1  0.44160000  0.57660000  0.23290000  1.0 -0.1193605403
C  C703  1  0.35690000  0.79250000  0.24600000  1.0 -0.1901344456
C  C704  1  0.35650000  0.82300000  0.27770000  1.0 -0.1089038222
C  C705  1  0.19390000  0.69390000  0.02600000  1.0 0.1487391576
C  C706  1  0.28030000  0.78030000  0.16210000  1.0 0.1294948197
C  C707  1  0.80610000  0.30610000  0.02600000  1.0 0.1487391576
C  C708  1  0.71970000  0.21970000  0.16210000  1.0 0.1294948197
C  C709  1  0.80610000  0.69390000  0.52600000  1.0 0.1487391576
C  C710  1  0.71970000  0.78030000  0.66210000  1.0 0.1294948197
C  C711  1  0.19390000  0.30610000  0.52600000  1.0 0.1487391576
C  C712  1  0.28030000  0.21970000  0.66210000  1.0 0.1294948197
C  C713  1  0.30610000  0.19390000  0.97400000  1.0 0.1487391576
C  C714  1  0.21970000  0.28030000  0.83790000  1.0 0.1294948197
C  C715  1  0.69390000  0.80610000  0.97400000  1.0 0.1487391576
C  C716  1  0.78030000  0.71970000  0.83790000  1.0 0.1294948197
C  C717  1  0.69390000  0.19390000  0.47400000  1.0 0.1487391576
C  C718  1  0.78030000  0.28030000  0.33790000  1.0 0.1294948197
C  C719  1  0.30610000  0.80610000  0.47400000  1.0 0.1487391576
C  C720  1  0.21970000  0.71970000  0.33790000  1.0 0.1294948197
C  C721  1  0.17750000  0.82250000  0.25000000  1.0 0.0729812071
C  C722  1  0.82250000  0.17750000  0.25000000  1.0 0.0729812071
C  C723  1  0.67750000  0.67750000  0.75000000  1.0 0.0729812071
C  C724  1  0.32250000  0.32250000  0.75000000  1.0 0.0729812071
C  C725  1  0.32250000  0.67750000  0.25000000  1.0 0.0729812071
C  C726  1  0.67750000  0.32250000  0.25000000  1.0 0.0729812071
C  C727  1  0.82250000  0.82250000  0.75000000  1.0 0.0729812071
C  C728  1  0.17750000  0.17750000  0.75000000  1.0 0.0772887294
N  N1  1  0.04630000  0.00030000  0.02920000  1.0 -0.3315654305
N  N2  1  0.12030000  0.99210000  0.04520000  1.0 -0.3464014919
N  N3  1  0.26330000  0.81820000  0.18200000  1.0 -0.3837996151
N  N4  1  0.22260000  0.89490000  0.14330000  1.0 -0.3396333458
N  N5  1  0.21530000  0.94580000  0.09360000  1.0 -0.3396333458
N  N6  1  0.17240000  0.85780000  0.22200000  1.0 -0.3991686485
N  N7  1  0.16530000  0.83710000  0.00000000  1.0 -0.3559155266
N  N8  1  0.18060000  0.91060000  0.01320000  1.0 -0.3464014919
N  N9  1  0.14960000  0.77330000  0.07570000  1.0 -0.3909639741
N  N10  1  0.16790000  0.80600000  0.13550000  1.0 -0.3991686485
N  N11  1  0.16600000  0.71990000  0.00090000  1.0 -0.3909639741
N  N12  1  0.00680000  0.78200000  0.98850000  1.0 -0.3396333458
N  N13  1  0.08120000  0.76720000  0.99620000  1.0 -0.3315654305
N  N14  1  0.95370000  0.99970000  0.02920000  1.0 -0.3315654305
N  N15  1  0.87970000  0.00790000  0.04520000  1.0 -0.3464014919
N  N16  1  0.73670000  0.18180000  0.18200000  1.0 -0.3837996151
N  N17  1  0.77740000  0.10510000  0.14330000  1.0 -0.3396333458
N  N18  1  0.78470000  0.05420000  0.09360000  1.0 -0.3396333458
N  N19  1  0.82760000  0.14220000  0.22200000  1.0 -0.3991686485
N  N20  1  0.83470000  0.16290000  0.00000000  1.0 -0.3559155266
N  N21  1  0.81940000  0.08940000  0.01320000  1.0 -0.3464014919
N  N22  1  0.85040000  0.22670000  0.07570000  1.0 -0.3909639741
N  N23  1  0.83210000  0.19400000  0.13550000  1.0 -0.3991686485
N  N24  1  0.83400000  0.28010000  0.00090000  1.0 -0.3909639741
N  N25  1  0.99320000  0.21800000  0.98850000  1.0 -0.3396333458
N  N26  1  0.91880000  0.23280000  0.99620000  1.0 -0.3315654305
N  N27  1  0.49970000  0.54630000  0.52920000  1.0 -0.3315654305
N  N28  1  0.50790000  0.62030000  0.54520000  1.0 -0.3464014919
N  N29  1  0.68180000  0.76330000  0.68200000  1.0 -0.3837996151
N  N30  1  0.60510000  0.72260000  0.64330000  1.0 -0.3396333458
N  N31  1  0.55420000  0.71530000  0.59360000  1.0 -0.3396333458
N  N32  1  0.64220000  0.67240000  0.72200000  1.0 -0.3991686485
N  N33  1  0.66290000  0.66530000  0.50000000  1.0 -0.3559155266
N  N34  1  0.58940000  0.68060000  0.51320000  1.0 -0.3464014919
N  N35  1  0.72670000  0.64960000  0.57570000  1.0 -0.3909639741
N  N36  1  0.69400000  0.66790000  0.63550000  1.0 -0.3991686485
N  N37  1  0.78010000  0.66600000  0.50090000  1.0 -0.3909639741
N  N38  1  0.71800000  0.50680000  0.48850000  1.0 -0.3396333458
N  N39  1  0.73280000  0.58120000  0.49620000  1.0 -0.3315654305
N  N40  1  0.50030000  0.45370000  0.52920000  1.0 -0.3315654305
N  N41  1  0.49210000  0.37970000  0.54520000  1.0 -0.3464014919
N  N42  1  0.31820000  0.23670000  0.68200000  1.0 -0.3837996151
N  N43  1  0.39490000  0.27740000  0.64330000  1.0 -0.3396333458
N  N44  1  0.44580000  0.28470000  0.59360000  1.0 -0.3396333458
N  N45  1  0.35780000  0.32760000  0.72200000  1.0 -0.3991686485
N  N46  1  0.33710000  0.33470000  0.50000000  1.0 -0.3559155266
N  N47  1  0.41060000  0.31940000  0.51320000  1.0 -0.3464014919
N  N48  1  0.27330000  0.35040000  0.57570000  1.0 -0.3909639741
N  N49  1  0.30600000  0.33210000  0.63550000  1.0 -0.3991686485
N  N50  1  0.21990000  0.33400000  0.50090000  1.0 -0.3909639741
N  N51  1  0.28200000  0.49320000  0.48850000  1.0 -0.3396333458
N  N52  1  0.26720000  0.41880000  0.49620000  1.0 -0.3315654305
N  N53  1  0.45370000  0.50030000  0.97080000  1.0 -0.3315654305
N  N54  1  0.37970000  0.49210000  0.95480000  1.0 -0.3464014919
N  N55  1  0.23670000  0.31820000  0.81800000  1.0 -0.3837996151
N  N56  1  0.27740000  0.39490000  0.85670000  1.0 -0.3396333458
N  N57  1  0.28470000  0.44580000  0.90640000  1.0 -0.3396333458
N  N58  1  0.32760000  0.35780000  0.77800000  1.0 -0.3991686485
N  N59  1  0.33470000  0.33710000  0.00000000  1.0 -0.3559155266
N  N60  1  0.31940000  0.41060000  0.98680000  1.0 -0.3464014919
N  N61  1  0.35040000  0.27330000  0.92430000  1.0 -0.3909639741
N  N62  1  0.33210000  0.30600000  0.86450000  1.0 -0.3991686485
N  N63  1  0.33400000  0.21990000  0.99910000  1.0 -0.3909639741
N  N64  1  0.49320000  0.28200000  0.01150000  1.0 -0.3396333458
N  N65  1  0.41880000  0.26720000  0.00380000  1.0 -0.3315654305
N  N66  1  0.54630000  0.49970000  0.97080000  1.0 -0.3315654305
N  N67  1  0.62030000  0.50790000  0.95480000  1.0 -0.3464014919
N  N68  1  0.76330000  0.68180000  0.81800000  1.0 -0.3837996151
N  N69  1  0.72260000  0.60510000  0.85670000  1.0 -0.3396333458
N  N70  1  0.71530000  0.55420000  0.90640000  1.0 -0.3396333458
N  N71  1  0.67240000  0.64220000  0.77800000  1.0 -0.3991686485
N  N72  1  0.66530000  0.66290000  0.00000000  1.0 -0.3559155266
N  N73  1  0.68060000  0.58940000  0.98680000  1.0 -0.3464014919
N  N74  1  0.64960000  0.72670000  0.92430000  1.0 -0.3909639741
N  N75  1  0.66790000  0.69400000  0.86450000  1.0 -0.3991686485
N  N76  1  0.66600000  0.78010000  0.99910000  1.0 -0.3909639741
N  N77  1  0.50680000  0.71800000  0.01150000  1.0 -0.3396333458
N  N78  1  0.58120000  0.73280000  0.00380000  1.0 -0.3315654305
N  N79  1  0.00030000  0.04630000  0.47080000  1.0 -0.3315654305
N  N80  1  0.99210000  0.12030000  0.45480000  1.0 -0.3464014919
N  N81  1  0.81820000  0.26330000  0.31800000  1.0 -0.3837996151
N  N82  1  0.89490000  0.22260000  0.35670000  1.0 -0.3396333458
N  N83  1  0.94580000  0.21530000  0.40640000  1.0 -0.3396333458
N  N84  1  0.85780000  0.17240000  0.27800000  1.0 -0.3991686485
N  N85  1  0.83710000  0.16530000  0.50000000  1.0 -0.3559155266
N  N86  1  0.91060000  0.18060000  0.48680000  1.0 -0.3464014919
N  N87  1  0.77330000  0.14960000  0.42430000  1.0 -0.3909639741
N  N88  1  0.80600000  0.16790000  0.36450000  1.0 -0.3991686485
N  N89  1  0.71990000  0.16600000  0.49910000  1.0 -0.3909639741
N  N90  1  0.78200000  0.00680000  0.51150000  1.0 -0.3396333458
N  N91  1  0.76720000  0.08120000  0.50380000  1.0 -0.3315654305
N  N92  1  0.99970000  0.95370000  0.47080000  1.0 -0.3315654305
N  N93  1  0.00790000  0.87970000  0.45480000  1.0 -0.3464014919
N  N94  1  0.18180000  0.73670000  0.31800000  1.0 -0.3837996151
N  N95  1  0.10510000  0.77740000  0.35670000  1.0 -0.3396333458
N  N96  1  0.05420000  0.78470000  0.40640000  1.0 -0.3396333458
N  N97  1  0.14220000  0.82760000  0.27800000  1.0 -0.3991686485
N  N98  1  0.16290000  0.83470000  0.50000000  1.0 -0.3559155266
N  N99  1  0.08940000  0.81940000  0.48680000  1.0 -0.3464014919
N  N100  1  0.22670000  0.85040000  0.42430000  1.0 -0.3909639741
N  N101  1  0.19400000  0.83210000  0.36450000  1.0 -0.3991686485
N  N102  1  0.28010000  0.83400000  0.49910000  1.0 -0.3909639741
N  N103  1  0.21800000  0.99320000  0.51150000  1.0 -0.3396333458
N  N104  1  0.23280000  0.91880000  0.50380000  1.0 -0.3315654305
N  N105  1  0.45370000  0.49970000  0.47080000  1.0 -0.3315654305
N  N106  1  0.37970000  0.50790000  0.45480000  1.0 -0.3464014919
N  N107  1  0.23670000  0.68180000  0.31800000  1.0 -0.3837996151
N  N108  1  0.27740000  0.60510000  0.35670000  1.0 -0.3396333458
N  N109  1  0.28470000  0.55420000  0.40640000  1.0 -0.3396333458
N  N110  1  0.32760000  0.64220000  0.27800000  1.0 -0.3991686485
N  N111  1  0.33470000  0.66290000  0.50000000  1.0 -0.3559155266
N  N112  1  0.31940000  0.58940000  0.48680000  1.0 -0.3464014919
N  N113  1  0.35040000  0.72670000  0.42430000  1.0 -0.3909639741
N  N114  1  0.33210000  0.69400000  0.36450000  1.0 -0.3991686485
N  N115  1  0.33400000  0.78010000  0.49910000  1.0 -0.3909639741
N  N116  1  0.49320000  0.71800000  0.51150000  1.0 -0.3396333458
N  N117  1  0.41880000  0.73280000  0.50380000  1.0 -0.3315654305
N  N118  1  0.54630000  0.50030000  0.47080000  1.0 -0.3315654305
N  N119  1  0.62030000  0.49210000  0.45480000  1.0 -0.3464014919
N  N120  1  0.76330000  0.31820000  0.31800000  1.0 -0.3837996151
N  N121  1  0.72260000  0.39490000  0.35670000  1.0 -0.3396333458
N  N122  1  0.71530000  0.44580000  0.40640000  1.0 -0.3396333458
N  N123  1  0.67240000  0.35780000  0.27800000  1.0 -0.3991686485
N  N124  1  0.66530000  0.33710000  0.50000000  1.0 -0.3559155266
N  N125  1  0.68060000  0.41060000  0.48680000  1.0 -0.3464014919
N  N126  1  0.64960000  0.27330000  0.42430000  1.0 -0.3909639741
N  N127  1  0.66790000  0.30600000  0.36450000  1.0 -0.3991686485
N  N128  1  0.66600000  0.21990000  0.49910000  1.0 -0.3909639741
N  N129  1  0.50680000  0.28200000  0.51150000  1.0 -0.3396333458
N  N130  1  0.58120000  0.26720000  0.50380000  1.0 -0.3315654305
N  N131  1  0.00030000  0.95370000  0.97080000  1.0 -0.3315654305
N  N132  1  0.99210000  0.87970000  0.95480000  1.0 -0.3464014919
N  N133  1  0.81820000  0.73670000  0.81800000  1.0 -0.3837996151
N  N134  1  0.89490000  0.77740000  0.85670000  1.0 -0.3396333458
N  N135  1  0.94580000  0.78470000  0.90640000  1.0 -0.3396333458
N  N136  1  0.85780000  0.82760000  0.77800000  1.0 -0.3991686485
N  N137  1  0.83710000  0.83470000  0.00000000  1.0 -0.3559155266
N  N138  1  0.91060000  0.81940000  0.98680000  1.0 -0.3464014919
N  N139  1  0.77330000  0.85040000  0.92430000  1.0 -0.3909639741
N  N140  1  0.80600000  0.83210000  0.86450000  1.0 -0.3991686485
N  N141  1  0.71990000  0.83400000  0.99910000  1.0 -0.3909639741
N  N142  1  0.78200000  0.99320000  0.01150000  1.0 -0.3396333458
N  N143  1  0.76720000  0.91880000  0.00380000  1.0 -0.3315654305
N  N144  1  0.99970000  0.04630000  0.97080000  1.0 -0.3315654305
N  N145  1  0.00790000  0.12030000  0.95480000  1.0 -0.3464014919
N  N146  1  0.18180000  0.26330000  0.81800000  1.0 -0.3837996151
N  N147  1  0.10510000  0.22260000  0.85670000  1.0 -0.3396333458
N  N148  1  0.05420000  0.21530000  0.90640000  1.0 -0.3396333458
N  N149  1  0.14220000  0.17240000  0.77800000  1.0 -0.3991686485
N  N150  1  0.16290000  0.16530000  0.00000000  1.0 -0.3559155266
N  N151  1  0.08940000  0.18060000  0.98680000  1.0 -0.3464014919
N  N152  1  0.22670000  0.14960000  0.92430000  1.0 -0.3909639741
N  N153  1  0.19400000  0.16790000  0.86450000  1.0 -0.3991686485
N  N154  1  0.28010000  0.16600000  0.99910000  1.0 -0.3909639741
N  N155  1  0.21800000  0.00680000  0.01150000  1.0 -0.3396333458
N  N156  1  0.23280000  0.08120000  0.00380000  1.0 -0.3315654305
N  N157  1  0.04630000  0.99970000  0.52920000  1.0 -0.3315654305
N  N158  1  0.12030000  0.00790000  0.54520000  1.0 -0.3464014919
N  N159  1  0.26330000  0.18180000  0.68200000  1.0 -0.3837996151
N  N160  1  0.22260000  0.10510000  0.64330000  1.0 -0.3396333458
N  N161  1  0.21530000  0.05420000  0.59360000  1.0 -0.3396333458
N  N162  1  0.17240000  0.14220000  0.72200000  1.0 -0.3991686485
N  N163  1  0.16530000  0.16290000  0.50000000  1.0 -0.3559155266
N  N164  1  0.18060000  0.08940000  0.51320000  1.0 -0.3464014919
N  N165  1  0.14960000  0.22670000  0.57570000  1.0 -0.3909639741
N  N166  1  0.16790000  0.19400000  0.63550000  1.0 -0.3991686485
N  N167  1  0.16600000  0.28010000  0.50090000  1.0 -0.3909639741
N  N168  1  0.00680000  0.21800000  0.48850000  1.0 -0.3396333458
N  N169  1  0.08120000  0.23280000  0.49620000  1.0 -0.3396333458
N  N170  1  0.95370000  0.00030000  0.52920000  1.0 -0.3315654305
N  N171  1  0.87970000  0.99210000  0.54520000  1.0 -0.3464014919
N  N172  1  0.73670000  0.81820000  0.68200000  1.0 -0.3837996151
N  N173  1  0.77740000  0.89490000  0.64330000  1.0 -0.3396333458
N  N174  1  0.78470000  0.94580000  0.59360000  1.0 -0.3396333458
N  N175  1  0.82760000  0.85780000  0.72200000  1.0 -0.3991686485
N  N176  1  0.83470000  0.83710000  0.50000000  1.0 -0.3559155266
N  N177  1  0.81940000  0.91060000  0.51320000  1.0 -0.3464014919
N  N178  1  0.85040000  0.77330000  0.57570000  1.0 -0.3909639741
N  N179  1  0.83210000  0.80600000  0.63550000  1.0 -0.3991686485
N  N180  1  0.83400000  0.71990000  0.50090000  1.0 -0.3909639741
N  N181  1  0.99320000  0.78200000  0.48850000  1.0 -0.3396333458
N  N182  1  0.91880000  0.76720000  0.49620000  1.0 -0.3315654305
N  N183  1  0.49970000  0.45370000  0.02920000  1.0 -0.3315654305
N  N184  1  0.50790000  0.37970000  0.04520000  1.0 -0.3464014919
N  N185  1  0.68180000  0.23670000  0.18200000  1.0 -0.3837996151
N  N186  1  0.60510000  0.27740000  0.14330000  1.0 -0.3396333458
N  N187  1  0.55420000  0.28470000  0.09360000  1.0 -0.3396333458
N  N188  1  0.64220000  0.32760000  0.22200000  1.0 -0.3991686485
N  N189  1  0.66290000  0.33470000  0.00000000  1.0 -0.3559155266
N  N190  1  0.58940000  0.31940000  0.01320000  1.0 -0.3464014919
N  N191  1  0.72670000  0.35040000  0.07570000  1.0 -0.3909639741
N  N192  1  0.69400000  0.33210000  0.13550000  1.0 -0.3991686485
N  N193  1  0.78010000  0.33400000  0.00090000  1.0 -0.3909639741
N  N194  1  0.71800000  0.49320000  0.98850000  1.0 -0.3396333458
N  N195  1  0.73280000  0.41880000  0.99620000  1.0 -0.3315654305
N  N196  1  0.50030000  0.54630000  0.02920000  1.0 -0.3315654305
N  N197  1  0.49210000  0.62030000  0.04520000  1.0 -0.3464014919
N  N198  1  0.31820000  0.76330000  0.18200000  1.0 -0.3837996151
N  N199  1  0.39490000  0.72260000  0.14330000  1.0 -0.3396333458
N  N200  1  0.44580000  0.71530000  0.09360000  1.0 -0.3396333458
N  N201  1  0.35780000  0.67240000  0.22200000  1.0 -0.3991686485
N  N202  1  0.33710000  0.66530000  0.00000000  1.0 -0.3559155266
N  N203  1  0.41060000  0.68060000  0.01320000  1.0 -0.3464014919
N  N204  1  0.27330000  0.64960000  0.07570000  1.0 -0.3909639741
N  N205  1  0.30600000  0.66790000  0.13550000  1.0 -0.3991686485
N  N206  1  0.21990000  0.66600000  0.00090000  1.0 -0.3909639741
N  N207  1  0.28200000  0.50680000  0.98850000  1.0 -0.3396333458
N  N208  1  0.26720000  0.58120000  0.99620000  1.0 -0.3315654305
