# DDEC6 charges by PACMAN v1.1 (https://github.com/mtap-research/PACMAN-charge/)
data_2017[Al][fon]3[ASR]1
_chemical_formula_sum              "Al16 H144 C224 O80"
_cell_length_a       18.3754
_cell_length_b       18.3754
_cell_length_c       37.6893
_cell_angle_alpha    90
_cell_angle_beta     90
_cell_angle_gamma    90

_symmetry_space_group_name_H-M    "P 1"
_symmetry_Int_Tables_number       1

loop_
  _symmetry_equiv_pos_as_xyz
  'x, y, z'

loop_
  _atom_site_type_symbol
  _atom_site_label
  _atom_site_symmetry_multiplicity
  _atom_site_fract_x
  _atom_site_fract_y
  _atom_site_fract_z
  _atom_site_occupancy
  _atom_site_charge
Al  Al1       1.0  0.66447  0.33553  0.50000  1.0000 1.6241067752
Al  Al2       1.0  0.16447  0.16447  0.00000  1.0000 1.6257875004
Al  Al3       1.0  0.33553  0.66447  0.50000  1.0000 1.6241067752
Al  Al4       1.0  0.83553  0.83553  0.00000  1.0000 1.6241067752
Al  Al5       1.0  0.63693  0.40980  0.42095  1.0000 1.6241067752
Al  Al6       1.0  0.09020  0.13693  0.92095  1.0000 1.6257875004
Al  Al7       1.0  0.36307  0.59020  0.42095  1.0000 1.6241067752
Al  Al8       1.0  0.90980  0.86307  0.92095  1.0000 1.6257875004
Al  Al9       1.0  0.13693  0.09020  0.07905  1.0000 1.6257875004
Al  Al10      1.0  0.86307  0.90980  0.07905  1.0000 1.6257875004
Al  Al11      1.0  0.40980  0.63693  0.57905  1.0000 1.6241067752
Al  Al12      1.0  0.59020  0.36307  0.57905  1.0000 1.6241067752
Al  Al13      1.0  0.50000  0.50000  0.38618  1.0000 1.6241067752
Al  Al14      1.0  0.00000  0.00000  0.88618  1.0000 1.6241067752
Al  Al15      1.0  0.00000  0.00000  0.11382  1.0000 1.6241067752
Al  Al16      1.0  0.50000  0.50000  0.61382  1.0000 1.6241067752
H   H1        1.0  0.56960  0.51580  0.43940  1.0000 0.4166123764
H   H2        1.0  0.98420  0.06960  0.93940  1.0000 0.4166123764
H   H3        1.0  0.43040  0.48420  0.43940  1.0000 0.4166123764
H   H4        1.0  0.01580  0.93040  0.93940  1.0000 0.4166123764
H   H5        1.0  0.06960  0.98420  0.06060  1.0000 0.4166123764
H   H6        1.0  0.93040  0.01580  0.06060  1.0000 0.4166123764
H   H7        1.0  0.51580  0.56960  0.56060  1.0000 0.4166123764
H   H8        1.0  0.48420  0.43040  0.56060  1.0000 0.4166123764
H   H9        1.0  0.55770  0.37920  0.46970  1.0000 0.4114217395
H   H10       1.0  0.12080  0.05770  0.96970  1.0000 0.4114217395
H   H11       1.0  0.44230  0.62080  0.46970  1.0000 0.4114217395
H   H12       1.0  0.87920  0.94230  0.96970  1.0000 0.4114217395
H   H13       1.0  0.05770  0.12080  0.03030  1.0000 0.4114217395
H   H14       1.0  0.94230  0.87920  0.03030  1.0000 0.4114217395
H   H15       1.0  0.37920  0.55770  0.53030  1.0000 0.4114217395
H   H16       1.0  0.62080  0.44230  0.53030  1.0000 0.4114217395
H   H17       1.0  0.78950  0.66540  0.17280  1.0000 0.1136148562
H   H18       1.0  0.83460  0.28950  0.67280  1.0000 0.1136148562
H   H19       1.0  0.21050  0.33460  0.17280  1.0000 0.1136148562
H   H20       1.0  0.16540  0.71050  0.67280  1.0000 0.1136148562
H   H21       1.0  0.28950  0.83460  0.32720  1.0000 0.1136148562
H   H22       1.0  0.71050  0.16540  0.32720  1.0000 0.1136148562
H   H23       1.0  0.66540  0.78950  0.82720  1.0000 0.1136148562
H   H24       1.0  0.33460  0.21050  0.82720  1.0000 0.1136148562
H   H25       1.0  0.79120  0.63550  0.05060  1.0000 0.1299529301
H   H26       1.0  0.86450  0.29120  0.55060  1.0000 0.1299529301
H   H27       1.0  0.20880  0.36450  0.05060  1.0000 0.1299529301
H   H28       1.0  0.13550  0.70880  0.55060  1.0000 0.1299529301
H   H29       1.0  0.29120  0.86450  0.44940  1.0000 0.1299529301
H   H30       1.0  0.70880  0.13550  0.44940  1.0000 0.1299529301
H   H31       1.0  0.63550  0.79120  0.94940  1.0000 0.1299529301
H   H32       1.0  0.36450  0.20880  0.94940  1.0000 0.1299529301
H   H33       1.0  0.78380  0.76650  0.13470  1.0000 0.1299529301
H   H34       1.0  0.73350  0.28380  0.63470  1.0000 0.1299529301
H   H35       1.0  0.21620  0.23350  0.13470  1.0000 0.1299529301
H   H36       1.0  0.26650  0.71620  0.63470  1.0000 0.1299529301
H   H37       1.0  0.28380  0.73350  0.36530  1.0000 0.1299529301
H   H38       1.0  0.71620  0.26650  0.36530  1.0000 0.1299529301
H   H39       1.0  0.76650  0.78380  0.86530  1.0000 0.1299529301
H   H40       1.0  0.23350  0.21620  0.86530  1.0000 0.1299529301
H   H41       1.0  0.80310  0.53460  0.08780  1.0000 0.1136148562
H   H42       1.0  0.96540  0.30310  0.58780  1.0000 0.1136148562
H   H43       1.0  0.19690  0.46540  0.08780  1.0000 0.1136148562
H   H44       1.0  0.03460  0.69690  0.58780  1.0000 0.1136148562
H   H45       1.0  0.30310  0.96540  0.41220  1.0000 0.1136148562
H   H46       1.0  0.69690  0.03460  0.41220  1.0000 0.1136148562
H   H47       1.0  0.53460  0.80310  0.91220  1.0000 0.1136148562
H   H48       1.0  0.46540  0.19690  0.91220  1.0000 0.1136148562
H   H49       1.0  0.59720  0.52080  0.28750  1.0000 0.1299529301
H   H50       1.0  0.97920  0.09720  0.78750  1.0000 0.1299529301
H   H51       1.0  0.40280  0.47920  0.28750  1.0000 0.1299529301
H   H52       1.0  0.02080  0.90280  0.78750  1.0000 0.1299529301
H   H53       1.0  0.09720  0.97920  0.21250  1.0000 0.1299529301
H   H54       1.0  0.90280  0.02080  0.21250  1.0000 0.1299529301
H   H55       1.0  0.52080  0.59720  0.71250  1.0000 0.1299529301
H   H56       1.0  0.47920  0.40280  0.71250  1.0000 0.1299529301
H   H57       1.0  0.88890  0.16840  0.15220  1.0000 0.1299529301
H   H58       1.0  0.33160  0.38890  0.65220  1.0000 0.1299529301
H   H59       1.0  0.11110  0.83160  0.15220  1.0000 0.1299529301
H   H60       1.0  0.66840  0.61110  0.65220  1.0000 0.1299529301
H   H61       1.0  0.38890  0.33160  0.34780  1.0000 0.1299529301
H   H62       1.0  0.61110  0.66840  0.34780  1.0000 0.1299529301
H   H63       1.0  0.16840  0.88890  0.84780  1.0000 0.1299529301
H   H64       1.0  0.83160  0.11110  0.84780  1.0000 0.1299529301
H   H65       1.0  0.04830  0.29750  0.11430  1.0000 0.1185930306
H   H66       1.0  0.20250  0.54830  0.61430  1.0000 0.1185930306
H   H67       1.0  0.95170  0.70250  0.11430  1.0000 0.1185930306
H   H68       1.0  0.79750  0.45170  0.61430  1.0000 0.1185930306
H   H69       1.0  0.54830  0.20250  0.38570  1.0000 0.1185930306
H   H70       1.0  0.45170  0.79750  0.38570  1.0000 0.1185930306
H   H71       1.0  0.29750  0.04830  0.88570  1.0000 0.1185930306
H   H72       1.0  0.70250  0.95170  0.88570  1.0000 0.1185930306
H   H73       1.0  0.76430  0.40860  0.32950  1.0000 0.1299529301
H   H74       1.0  0.09140  0.26430  0.82950  1.0000 0.1299529301
H   H75       1.0  0.23570  0.59140  0.32950  1.0000 0.1299529301
H   H76       1.0  0.90860  0.73570  0.82950  1.0000 0.1299529301
H   H77       1.0  0.26430  0.09140  0.17050  1.0000 0.1299529301
H   H78       1.0  0.73570  0.90860  0.17050  1.0000 0.1299529301
H   H79       1.0  0.40860  0.76430  0.67050  1.0000 0.1299529301
H   H80       1.0  0.59140  0.23570  0.67050  1.0000 0.1299529301
H   H81       1.0  0.82100  0.40820  0.27570  1.0000 0.1185930306
H   H82       1.0  0.09180  0.32100  0.77570  1.0000 0.1185930306
H   H83       1.0  0.17900  0.59180  0.27570  1.0000 0.1185930306
H   H84       1.0  0.90820  0.67900  0.77570  1.0000 0.1185930306
H   H85       1.0  0.32100  0.09180  0.22430  1.0000 0.1185930306
H   H86       1.0  0.67900  0.90820  0.22430  1.0000 0.1136148562
H   H87       1.0  0.40820  0.82100  0.72430  1.0000 0.1185930306
H   H88       1.0  0.59180  0.17900  0.72430  1.0000 0.1185930306
H   H89       1.0  0.65450  0.52170  0.23390  1.0000 0.1136148562
H   H90       1.0  0.97830  0.15450  0.73390  1.0000 0.1136148562
H   H91       1.0  0.34550  0.47830  0.23390  1.0000 0.1136148562
H   H92       1.0  0.02170  0.84550  0.73390  1.0000 0.1136148562
H   H93       1.0  0.15450  0.97830  0.26610  1.0000 0.1136148562
H   H94       1.0  0.84550  0.02170  0.26610  1.0000 0.1136148562
H   H95       1.0  0.52170  0.65450  0.76610  1.0000 0.1136148562
H   H96       1.0  0.47830  0.34550  0.76610  1.0000 0.1136148562
H   H97       1.0  0.74490  0.56350  0.19770  1.0000 0.1136148562
H   H98       1.0  0.93650  0.24490  0.69770  1.0000 0.1136148562
H   H99       1.0  0.25510  0.43650  0.19770  1.0000 0.1136148562
H   H100      1.0  0.06350  0.75510  0.69770  1.0000 0.1136148562
H   H101      1.0  0.24490  0.93650  0.30230  1.0000 0.1136148562
H   H102      1.0  0.75510  0.06350  0.30230  1.0000 0.1136148562
H   H103      1.0  0.56350  0.74490  0.80230  1.0000 0.1136148562
H   H104      1.0  0.43650  0.25510  0.80230  1.0000 0.1136148562
H   H105      1.0  0.98990  0.39720  0.13570  1.0000 0.1136148562
H   H106      1.0  0.10280  0.48990  0.63570  1.0000 0.1136148562
H   H107      1.0  0.01010  0.60280  0.13570  1.0000 0.1136148562
H   H108      1.0  0.89720  0.51010  0.63570  1.0000 0.1136148562
H   H109      1.0  0.48990  0.10280  0.36430  1.0000 0.1136148562
H   H110      1.0  0.51010  0.89720  0.36430  1.0000 0.1136148562
H   H111      1.0  0.39720  0.98990  0.86430  1.0000 0.1136148562
H   H112      1.0  0.60280  0.01010  0.86430  1.0000 0.1185930306
H   H113      1.0  0.83240  0.26800  0.17570  1.0000 0.1185930306
H   H114      1.0  0.23200  0.33240  0.67570  1.0000 0.1185930306
H   H115      1.0  0.16760  0.73200  0.17570  1.0000 0.1185930306
H   H116      1.0  0.76800  0.66760  0.67570  1.0000 0.1185930306
H   H117      1.0  0.33240  0.23200  0.32430  1.0000 0.1185930306
H   H118      1.0  0.66760  0.76800  0.32430  1.0000 0.1185930306
H   H119      1.0  0.26800  0.83240  0.82430  1.0000 0.1185930306
H   H120      1.0  0.73200  0.16760  0.82430  1.0000 0.1185930306
H   H121      1.0  0.87800  0.46940  0.12670  1.0000 0.1136148562
H   H122      1.0  0.03060  0.37800  0.62670  1.0000 0.1136148562
H   H123      1.0  0.12200  0.53060  0.12670  1.0000 0.1136148562
H   H124      1.0  0.96940  0.62200  0.62670  1.0000 0.1136148562
H   H125      1.0  0.37800  0.03060  0.37330  1.0000 0.1136148562
H   H126      1.0  0.62200  0.96940  0.37330  1.0000 0.1136148562
H   H127      1.0  0.46940  0.87800  0.87330  1.0000 0.1136148562
H   H128      1.0  0.53060  0.12200  0.87330  1.0000 0.1136148562
H   H129      1.0  0.83270  0.36800  0.21810  1.0000 0.1136148562
H   H130      1.0  0.13200  0.33270  0.71810  1.0000 0.1136148562
H   H131      1.0  0.16730  0.63200  0.21810  1.0000 0.1136148562
H   H132      1.0  0.86800  0.66730  0.71810  1.0000 0.1136148562
H   H133      1.0  0.33270  0.13200  0.28190  1.0000 0.1136148562
H   H134      1.0  0.66730  0.86800  0.28190  1.0000 0.1136148562
H   H135      1.0  0.36800  0.83270  0.78190  1.0000 0.1136148562
H   H136      1.0  0.63200  0.16730  0.78190  1.0000 0.1136148562
H   H137      1.0  0.78190  0.49240  0.47470  1.0000 0.0714569835
H   H138      1.0  0.00760  0.28190  0.97470  1.0000 0.0714569835
H   H139      1.0  0.21810  0.50760  0.47470  1.0000 0.0714569835
H   H140      1.0  0.99240  0.71810  0.97470  1.0000 0.0714569835
H   H141      1.0  0.28190  0.00760  0.02530  1.0000 0.0714569835
H   H142      1.0  0.71810  0.99240  0.02530  1.0000 0.0714569835
H   H143      1.0  0.49240  0.78190  0.52530  1.0000 0.0714569835
H   H144      1.0  0.50760  0.21810  0.52530  1.0000 0.0714569835
C   C1        1.0  0.63438  0.46068  0.34901  1.0000 0.6138794282
C   C2        1.0  0.03932  0.13438  0.84901  1.0000 0.6138794282
C   C3        1.0  0.36562  0.53932  0.34901  1.0000 0.6138794282
C   C4        1.0  0.96068  0.86562  0.84901  1.0000 0.6138794282
C   C5        1.0  0.13438  0.03932  0.15099  1.0000 0.6138794282
C   C6        1.0  0.86562  0.96068  0.15099  1.0000 0.6138794282
C   C7        1.0  0.46068  0.63438  0.65099  1.0000 0.6138794282
C   C8        1.0  0.53932  0.36562  0.65099  1.0000 0.6138794282
C   C9        1.0  0.79197  0.65909  0.14833  1.0000 -0.1569693136
C   C10       1.0  0.84091  0.29197  0.64833  1.0000 -0.1569693136
C   C11       1.0  0.20803  0.34091  0.14833  1.0000 -0.1569693136
C   C12       1.0  0.15909  0.70803  0.64833  1.0000 -0.1569693136
C   C13       1.0  0.29197  0.84091  0.35167  1.0000 -0.1569693136
C   C14       1.0  0.70803  0.15909  0.35167  1.0000 -0.1569693136
C   C15       1.0  0.65909  0.79197  0.85167  1.0000 -0.1569693136
C   C16       1.0  0.34091  0.20803  0.85167  1.0000 -0.1569693136
C   C17       1.0  0.79242  0.64165  0.07508  1.0000 -0.0904748798
C   C18       1.0  0.85835  0.29242  0.57508  1.0000 -0.0904748798
C   C19       1.0  0.20758  0.35835  0.07508  1.0000 -0.0904748798
C   C20       1.0  0.14165  0.70758  0.57508  1.0000 -0.0904748798
C   C21       1.0  0.29242  0.85835  0.42492  1.0000 -0.0904748798
C   C22       1.0  0.70758  0.14165  0.42492  1.0000 -0.0904748798
C   C23       1.0  0.64165  0.79242  0.92492  1.0000 -0.0904748798
C   C24       1.0  0.35835  0.20758  0.92492  1.0000 -0.0904748798
C   C25       1.0  0.00900  0.15439  0.11559  1.0000 0.6138794282
C   C26       1.0  0.34561  0.50900  0.61559  1.0000 0.6138794282
C   C27       1.0  0.99100  0.84561  0.11559  1.0000 0.6138794282
C   C28       1.0  0.65439  0.49100  0.61559  1.0000 0.6138794282
C   C29       1.0  0.50900  0.34561  0.38441  1.0000 0.6138794282
C   C30       1.0  0.49100  0.65439  0.38441  1.0000 0.6138794282
C   C31       1.0  0.15439  0.00900  0.88441  1.0000 0.6138794282
C   C32       1.0  0.84561  0.99100  0.88441  1.0000 0.6138794282
C   C33       1.0  0.78721  0.71979  0.12536  1.0000 -0.0904748798
C   C34       1.0  0.78021  0.28721  0.62536  1.0000 -0.0904748798
C   C35       1.0  0.21279  0.28021  0.12536  1.0000 -0.0904748798
C   C36       1.0  0.21979  0.71279  0.62536  1.0000 -0.0904748798
C   C37       1.0  0.28721  0.78021  0.37464  1.0000 -0.0904748798
C   C38       1.0  0.71279  0.21979  0.37464  1.0000 -0.0904748798
C   C39       1.0  0.71979  0.78721  0.87464  1.0000 -0.0904748798
C   C40       1.0  0.28021  0.21279  0.87464  1.0000 -0.0904748798
C   C41       1.0  0.79925  0.58108  0.09740  1.0000 -0.1485018722
C   C42       1.0  0.91892  0.29925  0.59740  1.0000 -0.1485018722
C   C43       1.0  0.20075  0.41892  0.09740  1.0000 -0.1485018722
C   C44       1.0  0.08108  0.70075  0.59740  1.0000 -0.1485018722
C   C45       1.0  0.29925  0.91892  0.40260  1.0000 -0.1485018722
C   C46       1.0  0.70075  0.08108  0.40260  1.0000 -0.1485018722
C   C47       1.0  0.58108  0.79925  0.90260  1.0000 -0.1485018722
C   C48       1.0  0.41892  0.20075  0.90260  1.0000 -0.1485018722
C   C49       1.0  0.78755  0.71008  0.08952  1.0000 -0.0479952477
C   C50       1.0  0.78992  0.28755  0.58952  1.0000 -0.0479952477
C   C51       1.0  0.21245  0.28992  0.08952  1.0000 -0.0479952477
C   C52       1.0  0.21008  0.71245  0.58952  1.0000 -0.0479952477
C   C53       1.0  0.28755  0.78992  0.41048  1.0000 -0.0479952477
C   C54       1.0  0.71245  0.21008  0.41048  1.0000 -0.0479952477
C   C55       1.0  0.71008  0.78755  0.91048  1.0000 -0.0479952477
C   C56       1.0  0.28992  0.21245  0.91048  1.0000 -0.0479952477
C   C57       1.0  0.79120  0.77570  0.06610  1.0000 0.6238815346
C   C58       1.0  0.72430  0.29120  0.56610  1.0000 0.6238815346
C   C59       1.0  0.20880  0.22430  0.06610  1.0000 0.6238815346
C   C60       1.0  0.27570  0.70880  0.56610  1.0000 0.6238815346
C   C61       1.0  0.29120  0.72430  0.43390  1.0000 0.6238815346
C   C62       1.0  0.70880  0.27570  0.43390  1.0000 0.6238815346
C   C63       1.0  0.77570  0.79120  0.93390  1.0000 0.6238815346
C   C64       1.0  0.22430  0.20880  0.93390  1.0000 0.6238815346
C   C65       1.0  0.97538  0.22229  0.13049  1.0000 -0.0298424638
C   C66       1.0  0.27771  0.47538  0.63049  1.0000 -0.0298424638
C   C67       1.0  0.02462  0.77771  0.13049  1.0000 -0.0298424638
C   C68       1.0  0.72229  0.52462  0.63049  1.0000 -0.0298424638
C   C69       1.0  0.47538  0.27771  0.36951  1.0000 -0.0298424638
C   C70       1.0  0.52462  0.72229  0.36951  1.0000 -0.0298424638
C   C71       1.0  0.22229  0.97538  0.86951  1.0000 -0.0298424638
C   C72       1.0  0.77771  0.02462  0.86951  1.0000 -0.0298424638
C   C73       1.0  0.64196  0.49769  0.28502  1.0000 -0.1008099312
C   C74       1.0  0.00231  0.14196  0.78502  1.0000 -0.1008099312
C   C75       1.0  0.35804  0.50231  0.28502  1.0000 -0.1008099312
C   C76       1.0  0.99769  0.85804  0.78502  1.0000 -0.1008099312
C   C77       1.0  0.14196  0.00231  0.21498  1.0000 -0.1008099312
C   C78       1.0  0.85804  0.99769  0.21498  1.0000 -0.1008099312
C   C79       1.0  0.49769  0.64196  0.71498  1.0000 -0.1008099312
C   C80       1.0  0.50231  0.35804  0.71498  1.0000 -0.1008099312
C   C81       1.0  0.80025  0.59058  0.13414  1.0000 0.0714569835
C   C82       1.0  0.90942  0.30025  0.63414  1.0000 0.0714569835
C   C83       1.0  0.19975  0.40942  0.13414  1.0000 0.0714569835
C   C84       1.0  0.09058  0.69975  0.63414  1.0000 0.0714569835
C   C85       1.0  0.30025  0.90942  0.36586  1.0000 0.0714569835
C   C86       1.0  0.69975  0.09058  0.36586  1.0000 0.0714569835
C   C87       1.0  0.59058  0.80025  0.86586  1.0000 0.0714569835
C   C88       1.0  0.40942  0.19975  0.86586  1.0000 0.0714569835
C   C89       1.0  0.74427  0.46443  0.24862  1.0000 0.0774633394
C   C90       1.0  0.03557  0.24427  0.74862  1.0000 0.0774633394
C   C91       1.0  0.25573  0.53557  0.24862  1.0000 0.0774633394
C   C92       1.0  0.96443  0.75573  0.74862  1.0000 0.0774633394
C   C93       1.0  0.24427  0.03557  0.25138  1.0000 0.0774633394
C   C94       1.0  0.75573  0.96443  0.25138  1.0000 0.0774633394
C   C95       1.0  0.46443  0.74427  0.75138  1.0000 0.0774633394
C   C96       1.0  0.53557  0.25573  0.75138  1.0000 0.0774633394
C   C97       1.0  0.90918  0.21431  0.14922  1.0000 -0.1008099312
C   C98       1.0  0.28569  0.40918  0.64922  1.0000 -0.1008099312
C   C99       1.0  0.09082  0.78569  0.14922  1.0000 -0.1008099312
C   C100      1.0  0.71431  0.59082  0.64922  1.0000 -0.1008099312
C   C101      1.0  0.40918  0.28569  0.35078  1.0000 -0.1008099312
C   C102      1.0  0.59082  0.71431  0.35078  1.0000 -0.1008099312
C   C103      1.0  0.21431  0.90918  0.85078  1.0000 -0.1008099312
C   C104      1.0  0.78569  0.09082  0.85078  1.0000 -0.1008099312
C   C105      1.0  0.78211  0.46499  0.21344  1.0000 0.0714569835
C   C106      1.0  0.03501  0.28211  0.71344  1.0000 0.0714569835
C   C107      1.0  0.21789  0.53501  0.21344  1.0000 0.0714569835
C   C108      1.0  0.96499  0.71789  0.71344  1.0000 0.0714569835
C   C109      1.0  0.28211  0.03501  0.28656  1.0000 0.0714569835
C   C110      1.0  0.71789  0.96499  0.28656  1.0000 0.0714569835
C   C111      1.0  0.46499  0.78211  0.78656  1.0000 0.0714569835
C   C112      1.0  0.53501  0.21789  0.78656  1.0000 0.0714569835
C   C113      1.0  0.67291  0.46285  0.31416  1.0000 -0.0479952477
C   C114      1.0  0.03715  0.17291  0.81416  1.0000 -0.0479952477
C   C115      1.0  0.32709  0.53715  0.31416  1.0000 -0.0479952477
C   C116      1.0  0.96285  0.82709  0.81416  1.0000 -0.0479952477
C   C117      1.0  0.17291  0.03715  0.18584  1.0000 -0.0479952477
C   C118      1.0  0.82709  0.96285  0.18584  1.0000 -0.0479952477
C   C119      1.0  0.46285  0.67291  0.68584  1.0000 -0.0479952477
C   C120      1.0  0.53715  0.32709  0.68584  1.0000 -0.0479952477
C   C121      1.0  0.00439  0.29184  0.12625  1.0000 -0.0904748798
C   C122      1.0  0.20816  0.50439  0.62625  1.0000 -0.1008099312
C   C123      1.0  0.99561  0.70816  0.12625  1.0000 -0.0904748798
C   C124      1.0  0.79184  0.49561  0.62625  1.0000 -0.1008099312
C   C125      1.0  0.50439  0.20816  0.37375  1.0000 -0.0904748798
C   C126      1.0  0.49561  0.79184  0.37375  1.0000 -0.1008099312
C   C127      1.0  0.29184  0.00439  0.87375  1.0000 -0.0904748798
C   C128      1.0  0.70816  0.99561  0.87375  1.0000 -0.0904748798
C   C129      1.0  0.74190  0.43040  0.31014  1.0000 -0.0904748798
C   C130      1.0  0.06960  0.24190  0.81014  1.0000 -0.0904748798
C   C131      1.0  0.25810  0.56960  0.31014  1.0000 -0.0904748798
C   C132      1.0  0.93040  0.75810  0.81014  1.0000 -0.0904748798
C   C133      1.0  0.24190  0.06960  0.18986  1.0000 -0.0904748798
C   C134      1.0  0.75810  0.93040  0.18986  1.0000 -0.0904748798
C   C135      1.0  0.43040  0.74190  0.68986  1.0000 -0.0904748798
C   C136      1.0  0.56960  0.25810  0.68986  1.0000 -0.0904748798
C   C137      1.0  0.77597  0.43073  0.27807  1.0000 -0.1485018722
C   C138      1.0  0.06927  0.27597  0.77807  1.0000 -0.1485018722
C   C139      1.0  0.22403  0.56927  0.27807  1.0000 -0.1485018722
C   C140      1.0  0.93073  0.72403  0.77807  1.0000 -0.1485018722
C   C141      1.0  0.27597  0.06927  0.22193  1.0000 -0.1485018722
C   C142      1.0  0.72403  0.93073  0.22193  1.0000 -0.1485018722
C   C143      1.0  0.43073  0.77597  0.72193  1.0000 -0.1485018722
C   C144      1.0  0.56927  0.22403  0.72193  1.0000 -0.1485018722
C   C145      1.0  0.90312  0.34349  0.15795  1.0000 0.0774633394
C   C146      1.0  0.15651  0.40312  0.65795  1.0000 0.0774633394
C   C147      1.0  0.09688  0.65651  0.15795  1.0000 0.0774633394
C   C148      1.0  0.84349  0.59688  0.65795  1.0000 0.0774633394
C   C149      1.0  0.40312  0.15651  0.34205  1.0000 0.0774633394
C   C150      1.0  0.59688  0.84349  0.34205  1.0000 0.0774633394
C   C151      1.0  0.34349  0.90312  0.84205  1.0000 0.0774633394
C   C152      1.0  0.65651  0.09688  0.84205  1.0000 0.0774633394
C   C153      1.0  0.67622  0.49846  0.25303  1.0000 -0.1485018722
C   C154      1.0  0.00154  0.17622  0.75303  1.0000 -0.1485018722
C   C155      1.0  0.32378  0.50154  0.25303  1.0000 -0.1485018722
C   C156      1.0  0.99846  0.82378  0.75303  1.0000 -0.1485018722
C   C157      1.0  0.17622  0.00154  0.24697  1.0000 -0.1485018722
C   C158      1.0  0.82378  0.99846  0.24697  1.0000 -0.1485018722
C   C159      1.0  0.49846  0.67622  0.74697  1.0000 -0.1485018722
C   C160      1.0  0.50154  0.32378  0.74697  1.0000 -0.1485018722
C   C161      1.0  0.77411  0.52470  0.19077  1.0000 -0.2010286822
C   C162      1.0  0.97530  0.27411  0.69077  1.0000 -0.2010286822
C   C163      1.0  0.22589  0.47530  0.19077  1.0000 -0.2010286822
C   C164      1.0  0.02470  0.72589  0.69077  1.0000 -0.2010286822
C   C165      1.0  0.27411  0.97530  0.30923  1.0000 -0.2010286822
C   C166      1.0  0.72589  0.02470  0.30923  1.0000 -0.2010286822
C   C167      1.0  0.52470  0.77411  0.80923  1.0000 -0.2010286822
C   C168      1.0  0.47530  0.22589  0.80923  1.0000 -0.2010286822
C   C169      1.0  0.96997  0.35118  0.13912  1.0000 -0.1569693136
C   C170      1.0  0.14882  0.46997  0.63912  1.0000 -0.1569693136
C   C171      1.0  0.03003  0.64882  0.13912  1.0000 -0.1569693136
C   C172      1.0  0.85118  0.53003  0.63912  1.0000 -0.1569693136
C   C173      1.0  0.46997  0.14882  0.36088  1.0000 -0.1569693136
C   C174      1.0  0.53003  0.85118  0.36088  1.0000 -0.1569693136
C   C175      1.0  0.35118  0.96997  0.86088  1.0000 -0.1569693136
C   C176      1.0  0.64882  0.03003  0.86088  1.0000 -0.1569693136
C   C177      1.0  0.86035  0.40793  0.17013  1.0000 0.0714569835
C   C178      1.0  0.09207  0.36035  0.67013  1.0000 0.0714569835
C   C179      1.0  0.13965  0.59207  0.17013  1.0000 0.0714569835
C   C180      1.0  0.90793  0.63965  0.67013  1.0000 0.0714569835
C   C181      1.0  0.36035  0.09207  0.32987  1.0000 0.0714569835
C   C182      1.0  0.63965  0.90793  0.32987  1.0000 0.0714569835
C   C183      1.0  0.40793  0.86035  0.82987  1.0000 0.0714569835
C   C184      1.0  0.59207  0.13965  0.82987  1.0000 0.0714569835
C   C185      1.0  0.87517  0.27395  0.16286  1.0000 -0.1424616585
C   C186      1.0  0.22605  0.37517  0.66286  1.0000 -0.1424616585
C   C187      1.0  0.12483  0.72605  0.16286  1.0000 -0.1424616585
C   C188      1.0  0.77395  0.62483  0.66286  1.0000 -0.1424616585
C   C189      1.0  0.37517  0.22605  0.33714  1.0000 -0.1424616585
C   C190      1.0  0.62483  0.77395  0.33714  1.0000 -0.1424616585
C   C191      1.0  0.27395  0.87517  0.83714  1.0000 -0.1424616585
C   C192      1.0  0.72605  0.12483  0.83714  1.0000 -0.1424616585
C   C193      1.0  0.80902  0.52720  0.15789  1.0000 0.0774633394
C   C194      1.0  0.97280  0.30902  0.65789  1.0000 0.0774633394
C   C195      1.0  0.19098  0.47280  0.15789  1.0000 0.0774633394
C   C196      1.0  0.02720  0.69098  0.65789  1.0000 0.0774633394
C   C197      1.0  0.30902  0.97280  0.34211  1.0000 0.0714569835
C   C198      1.0  0.69098  0.02720  0.34211  1.0000 0.0714569835
C   C199      1.0  0.52720  0.80902  0.84211  1.0000 0.0714569835
C   C200      1.0  0.47280  0.19098  0.84211  1.0000 0.0714569835
C   C201      1.0  0.85318  0.46817  0.14817  1.0000 -0.2055518444
C   C202      1.0  0.03183  0.35318  0.64817  1.0000 -0.2055518444
C   C203      1.0  0.14682  0.53183  0.14817  1.0000 -0.2055518444
C   C204      1.0  0.96817  0.64682  0.64817  1.0000 -0.2055518444
C   C205      1.0  0.35318  0.03183  0.35183  1.0000 -0.2055518444
C   C206      1.0  0.64682  0.96817  0.35183  1.0000 -0.2055518444
C   C207      1.0  0.46817  0.85318  0.85183  1.0000 -0.2010286822
C   C208      1.0  0.53183  0.14682  0.85183  1.0000 -0.2010286822
C   C209      1.0  0.82613  0.40743  0.20293  1.0000 -0.2010286822
C   C210      1.0  0.09257  0.32613  0.70293  1.0000 -0.2010286822
C   C211      1.0  0.17387  0.59257  0.20293  1.0000 -0.2010286822
C   C212      1.0  0.90743  0.67387  0.70293  1.0000 -0.2010286822
C   C213      1.0  0.32613  0.09257  0.29707  1.0000 -0.2010286822
C   C214      1.0  0.67387  0.90743  0.29707  1.0000 -0.2010286822
C   C215      1.0  0.40743  0.82613  0.79707  1.0000 -0.2010286822
C   C216      1.0  0.59257  0.17387  0.79707  1.0000 -0.2010286822
C   C217      1.0  0.74561  0.45887  0.46932  1.0000 0.5040900694
C   C218      1.0  0.04113  0.24561  0.96932  1.0000 0.5040900694
C   C219      1.0  0.25439  0.54113  0.46932  1.0000 0.5040900694
C   C220      1.0  0.95887  0.75439  0.96932  1.0000 0.5057775536
C   C221      1.0  0.24561  0.04113  0.03068  1.0000 0.5040900694
C   C222      1.0  0.75439  0.95887  0.03068  1.0000 0.5040900694
C   C223      1.0  0.45887  0.74561  0.53068  1.0000 0.5040900694
C   C224      1.0  0.54113  0.25439  0.53068  1.0000 0.5040900694
O   O1        1.0  0.56884  0.48359  0.42037  1.0000 -0.9995155623
O   O2        1.0  0.01641  0.06884  0.92037  1.0000 -0.9995155623
O   O3        1.0  0.43116  0.51641  0.42037  1.0000 -0.9995155623
O   O4        1.0  0.98359  0.93116  0.92037  1.0000 -0.9995155623
O   O5        1.0  0.06884  0.01641  0.07963  1.0000 -0.9995155623
O   O6        1.0  0.93116  0.98359  0.07963  1.0000 -0.9995155623
O   O7        1.0  0.48359  0.56884  0.57963  1.0000 -0.9995155623
O   O8        1.0  0.51641  0.43116  0.57963  1.0000 -0.9995155623
O   O9        1.0  0.67059  0.43825  0.37522  1.0000 -0.5700325957
O   O10       1.0  0.06175  0.17059  0.87522  1.0000 -0.5700325957
O   O11       1.0  0.32941  0.56175  0.37522  1.0000 -0.5700325957
O   O12       1.0  0.93825  0.82941  0.87522  1.0000 -0.5700325957
O   O13       1.0  0.17059  0.06175  0.12478  1.0000 -0.5700325957
O   O14       1.0  0.82941  0.93825  0.12478  1.0000 -0.5700325957
O   O15       1.0  0.43825  0.67059  0.62478  1.0000 -0.5700325957
O   O16       1.0  0.56175  0.32941  0.62478  1.0000 -0.5700325957
O   O17       1.0  0.60716  0.37568  0.46485  1.0000 -0.9870668193
O   O18       1.0  0.12432  0.10716  0.96485  1.0000 -0.9870668193
O   O19       1.0  0.39284  0.62432  0.46485  1.0000 -0.9870668193
O   O20       1.0  0.87568  0.89284  0.96485  1.0000 -0.9870668193
O   O21       1.0  0.10716  0.12432  0.03515  1.0000 -0.9870668193
O   O22       1.0  0.89284  0.87568  0.03515  1.0000 -0.9870668193
O   O23       1.0  0.37568  0.60716  0.53515  1.0000 -0.9870668193
O   O24       1.0  0.62432  0.39284  0.53515  1.0000 -0.9870668193
O   O25       1.0  0.56867  0.48167  0.34931  1.0000 -0.588534197
O   O26       1.0  0.01833  0.06867  0.84931  1.0000 -0.588534197
O   O27       1.0  0.43133  0.51833  0.34931  1.0000 -0.588534197
O   O28       1.0  0.98167  0.93133  0.84931  1.0000 -0.588534197
O   O29       1.0  0.06867  0.01833  0.15069  1.0000 -0.588534197
O   O30       1.0  0.93133  0.98167  0.15069  1.0000 -0.588534197
O   O31       1.0  0.48167  0.56867  0.65069  1.0000 -0.588534197
O   O32       1.0  0.51833  0.43133  0.65069  1.0000 -0.588534197
O   O33       1.0  0.79135  0.83704  0.08108  1.0000 -0.588534197
O   O34       1.0  0.66296  0.29135  0.58108  1.0000 -0.588534197
O   O35       1.0  0.20865  0.16296  0.08108  1.0000 -0.588534197
O   O36       1.0  0.33704  0.70865  0.58108  1.0000 -0.588534197
O   O37       1.0  0.29135  0.66296  0.41892  1.0000 -0.588534197
O   O38       1.0  0.70865  0.33704  0.41892  1.0000 -0.588534197
O   O39       1.0  0.83704  0.79135  0.91892  1.0000 -0.588534197
O   O40       1.0  0.16296  0.20865  0.91892  1.0000 -0.588534197
O   O41       1.0  0.73993  0.40702  0.49033  1.0000 -0.5291588745
O   O42       1.0  0.09298  0.23993  0.99033  1.0000 -0.5291588745
O   O43       1.0  0.26007  0.59298  0.49033  1.0000 -0.5291588745
O   O44       1.0  0.90702  0.76007  0.99033  1.0000 -0.5291588745
O   O45       1.0  0.23993  0.09298  0.00967  1.0000 -0.5291588745
O   O46       1.0  0.76007  0.90702  0.00967  1.0000 -0.5291588745
O   O47       1.0  0.40702  0.73993  0.50967  1.0000 -0.5291588745
O   O48       1.0  0.59298  0.26007  0.50967  1.0000 -0.5291588745
O   O49       1.0  0.07230  0.15976  0.10215  1.0000 -0.5954378089
O   O50       1.0  0.34024  0.57230  0.60215  1.0000 -0.5954378089
O   O51       1.0  0.92770  0.84024  0.10215  1.0000 -0.5954378089
O   O52       1.0  0.65976  0.42770  0.60215  1.0000 -0.5954378089
O   O53       1.0  0.57230  0.34024  0.39785  1.0000 -0.5954378089
O   O54       1.0  0.42770  0.65976  0.39785  1.0000 -0.5954378089
O   O55       1.0  0.15976  0.07230  0.89785  1.0000 -0.588534197
O   O56       1.0  0.84024  0.92770  0.89785  1.0000 -0.588534197
O   O57       1.0  0.97260  0.09859  0.11736  1.0000 -0.5562243676
O   O58       1.0  0.40141  0.47260  0.61736  1.0000 -0.5562243676
O   O59       1.0  0.02740  0.90141  0.11736  1.0000 -0.5562243676
O   O60       1.0  0.59859  0.52740  0.61736  1.0000 -0.5562243676
O   O61       1.0  0.47260  0.40141  0.38264  1.0000 -0.5562243676
O   O62       1.0  0.52740  0.59859  0.38264  1.0000 -0.5562243676
O   O63       1.0  0.09859  0.97260  0.88264  1.0000 -0.5562243676
O   O64       1.0  0.90141  0.02740  0.88264  1.0000 -0.5562243676
O   O65       1.0  0.70837  0.47271  0.44125  1.0000 -0.5562243676
O   O66       1.0  0.02729  0.20837  0.94125  1.0000 -0.5562243676
O   O67       1.0  0.29163  0.52729  0.44125  1.0000 -0.5562243676
O   O68       1.0  0.97271  0.79163  0.94125  1.0000 -0.5562243676
O   O69       1.0  0.20837  0.02729  0.05875  1.0000 -0.5562243676
O   O70       1.0  0.79163  0.97271  0.05875  1.0000 -0.5562243676
O   O71       1.0  0.47271  0.70837  0.55875  1.0000 -0.5562243676
O   O72       1.0  0.52729  0.29163  0.55875  1.0000 -0.5562243676
O   O73       1.0  0.79624  0.76656  0.03257  1.0000 -0.5786868325
O   O74       1.0  0.73344  0.29624  0.53257  1.0000 -0.5786868325
O   O75       1.0  0.20376  0.23344  0.03257  1.0000 -0.5786868325
O   O76       1.0  0.26656  0.70376  0.53257  1.0000 -0.5786868325
O   O77       1.0  0.29624  0.73344  0.46743  1.0000 -0.5786868325
O   O78       1.0  0.70376  0.26656  0.46743  1.0000 -0.5786868325
O   O79       1.0  0.76656  0.79624  0.96743  1.0000 -0.5786868325
O   O80       1.0  0.23344  0.20376  0.96743  1.0000 -0.5786868325
