# DDEC6 charges by PACMAN v1.1 (https://github.com/mtap-research/PACMAN-charge/)
data_oc7b00169_si_002_4_ASR_pacman
_symmetry_space_group_name_H-M   'P 1'
_cell_length_a   19.19600000
_cell_length_b   19.19600000
_cell_length_c   36.56900000
_cell_angle_alpha   90.00000000
_cell_angle_beta   90.00000000
_cell_angle_gamma   90.00000000
_symmetry_Int_Tables_number   1
_chemical_formula_structural   AlH9C14O5
_chemical_formula_sum   'Al16 H144 C224 O80'
_cell_volume   13475.17974670
_cell_formula_units_Z   16
loop_
 _symmetry_equiv_pos_site_id
 _symmetry_equiv_pos_as_xyz
  1  'x, y, z'
loop_
 _atom_site_type_symbol
 _atom_site_label
 _atom_site_symmetry_multiplicity
 _atom_site_fract_x
 _atom_site_fract_y
 _atom_site_fract_z
 _atom_site_occupancy
 _atom_site_charge
Al  Al1  1  0.66300000  0.33700000  0.50000000  1.0 1.6113988308
Al  Al2  1  0.16300000  0.16300000  0.00000000  1.0 1.6113988308
Al  Al3  1  0.33700000  0.66300000  0.50000000  1.0 1.6113988308
Al  Al4  1  0.83700000  0.83700000  0.00000000  1.0 1.6113988308
Al  Al5  1  0.61770000  0.39045000  0.41629000  1.0 1.6425403856
Al  Al6  1  0.10955000  0.11770000  0.91629000  1.0 1.6425403856
Al  Al7  1  0.38230000  0.60955000  0.41629000  1.0 1.6425403856
Al  Al8  1  0.89045000  0.88230000  0.91629000  1.0 1.6425403856
Al  Al9  1  0.11770000  0.10955000  0.08371000  1.0 1.6425403856
Al  Al10  1  0.88230000  0.89045000  0.08371000  1.0 1.6425403856
Al  Al11  1  0.39045000  0.61770000  0.58371000  1.0 1.6425403856
Al  Al12  1  0.60955000  0.38230000  0.58371000  1.0 1.6425403856
Al  Al13  1  0.50000000  0.50000000  0.38282000  1.0 1.6425403856
Al  Al14  1  0.00000000  0.00000000  0.88282000  1.0 1.6425403856
Al  Al15  1  0.00000000  0.00000000  0.11718000  1.0 1.6462476103
Al  Al16  1  0.50000000  0.50000000  0.61718000  1.0 1.6425403856
H  H1  1  0.57290000  0.50180000  0.43740000  1.0 0.4181759505
H  H2  1  0.99820000  0.07290000  0.93740000  1.0 0.4181759505
H  H3  1  0.42710000  0.49820000  0.43740000  1.0 0.4181759505
H  H4  1  0.00180000  0.92710000  0.93740000  1.0 0.4181759505
H  H5  1  0.07290000  0.99820000  0.06260000  1.0 0.4181759505
H  H6  1  0.92710000  0.00180000  0.06260000  1.0 0.4181759505
H  H7  1  0.50180000  0.57290000  0.56260000  1.0 0.4181759505
H  H8  1  0.49820000  0.42710000  0.56260000  1.0 0.4181759505
H  H9  1  0.55500000  0.37070000  0.47320000  1.0 0.4181759505
H  H10  1  0.12930000  0.05500000  0.97320000  1.0 0.4181759505
H  H11  1  0.44500000  0.62930000  0.47320000  1.0 0.4181759505
H  H12  1  0.87070000  0.94500000  0.97320000  1.0 0.4181759505
H  H13  1  0.05500000  0.12930000  0.02680000  1.0 0.4181759505
H  H14  1  0.94500000  0.87070000  0.02680000  1.0 0.4181759505
H  H15  1  0.37070000  0.55500000  0.52680000  1.0 0.4181759505
H  H16  1  0.62930000  0.44500000  0.52680000  1.0 0.4181759505
H  H17  1  0.76880000  0.62580000  0.16880000  1.0 0.1183656972
H  H18  1  0.87420000  0.26880000  0.66880000  1.0 0.1183656972
H  H19  1  0.23120000  0.37420000  0.16880000  1.0 0.1183656972
H  H20  1  0.12580000  0.73120000  0.66880000  1.0 0.1183656972
H  H21  1  0.26880000  0.87420000  0.33120000  1.0 0.1183656972
H  H22  1  0.73120000  0.12580000  0.33120000  1.0 0.1183656972
H  H23  1  0.62580000  0.76880000  0.83120000  1.0 0.1183656972
H  H24  1  0.37420000  0.23120000  0.83120000  1.0 0.1183656972
H  H25  1  0.77540000  0.63890000  0.03920000  1.0 0.1297285257
H  H26  1  0.86110000  0.27540000  0.53920000  1.0 0.1297285257
H  H27  1  0.22460000  0.36110000  0.03920000  1.0 0.1297285257
H  H28  1  0.13890000  0.72460000  0.53920000  1.0 0.1297285257
H  H29  1  0.27540000  0.86110000  0.46080000  1.0 0.1297285257
H  H30  1  0.72460000  0.13890000  0.46080000  1.0 0.1297285257
H  H31  1  0.63890000  0.77540000  0.96080000  1.0 0.1297285257
H  H32  1  0.36110000  0.22460000  0.96080000  1.0 0.1297285257
H  H33  1  0.77720000  0.73700000  0.13290000  1.0 0.1297285257
H  H34  1  0.76300000  0.27720000  0.63290000  1.0 0.1297285257
H  H35  1  0.22280000  0.26300000  0.13290000  1.0 0.1297285257
H  H36  1  0.23700000  0.72280000  0.63290000  1.0 0.1297285257
H  H37  1  0.27720000  0.76300000  0.36710000  1.0 0.1297285257
H  H38  1  0.72280000  0.23700000  0.36710000  1.0 0.1297285257
H  H39  1  0.73700000  0.77720000  0.86710000  1.0 0.1297285257
H  H40  1  0.26300000  0.22280000  0.86710000  1.0 0.1297285257
H  H41  1  0.78170000  0.52880000  0.07090000  1.0 0.1112912001
H  H42  1  0.97120000  0.28170000  0.57090000  1.0 0.1112912001
H  H43  1  0.21830000  0.47120000  0.07090000  1.0 0.1112912001
H  H44  1  0.02880000  0.71830000  0.57090000  1.0 0.1112912001
H  H45  1  0.28170000  0.97120000  0.42910000  1.0 0.1112912001
H  H46  1  0.71830000  0.02880000  0.42910000  1.0 0.1183656972
H  H47  1  0.52880000  0.78170000  0.92910000  1.0 0.1183656972
H  H48  1  0.47120000  0.21830000  0.92910000  1.0 0.1183656972
H  H49  1  0.57160000  0.50000000  0.27590000  1.0 0.1297285257
H  H50  1  0.00000000  0.07160000  0.77590000  1.0 0.1297285257
H  H51  1  0.42840000  0.50000000  0.27590000  1.0 0.1297285257
H  H52  1  0.00000000  0.92840000  0.77590000  1.0 0.1297285257
H  H53  1  0.07160000  0.00000000  0.22410000  1.0 0.1297285257
H  H54  1  0.92840000  0.00000000  0.22410000  1.0 0.1297285257
H  H55  1  0.50000000  0.57160000  0.72410000  1.0 0.1297285257
H  H56  1  0.50000000  0.42840000  0.72410000  1.0 0.1297285257
H  H57  1  0.85790000  0.15410000  0.14480000  1.0 0.1360468202
H  H58  1  0.34590000  0.35790000  0.64480000  1.0 0.1360468202
H  H59  1  0.14210000  0.84590000  0.14480000  1.0 0.1360468202
H  H60  1  0.65410000  0.64210000  0.64480000  1.0 0.1360468202
H  H61  1  0.35790000  0.34590000  0.35520000  1.0 0.1360468202
H  H62  1  0.64210000  0.65410000  0.35520000  1.0 0.1360468202
H  H63  1  0.15410000  0.85790000  0.85520000  1.0 0.1360468202
H  H64  1  0.84590000  0.14210000  0.85520000  1.0 0.1360468202
H  H65  1  0.99360000  0.28410000  0.09630000  1.0 0.1360468202
H  H66  1  0.21590000  0.49360000  0.59630000  1.0 0.1360468202
H  H67  1  0.00640000  0.71590000  0.09630000  1.0 0.1360468202
H  H68  1  0.78410000  0.50640000  0.59630000  1.0 0.1360468202
H  H69  1  0.49360000  0.21590000  0.40370000  1.0 0.1360468202
H  H70  1  0.50640000  0.78410000  0.40370000  1.0 0.1360468202
H  H71  1  0.28410000  0.99360000  0.90370000  1.0 0.1360468202
H  H72  1  0.71590000  0.00640000  0.90370000  1.0 0.1360468202
H  H73  1  0.71910000  0.36510000  0.31590000  1.0 0.1183656972
H  H74  1  0.13490000  0.21910000  0.81590000  1.0 0.1183656972
H  H75  1  0.28090000  0.63490000  0.31590000  1.0 0.1183656972
H  H76  1  0.86510000  0.78090000  0.81590000  1.0 0.1183656972
H  H77  1  0.21910000  0.13490000  0.18410000  1.0 0.1183656972
H  H78  1  0.78090000  0.86510000  0.18410000  1.0 0.1183656972
H  H79  1  0.36510000  0.71910000  0.68410000  1.0 0.1183656972
H  H80  1  0.63490000  0.28090000  0.68410000  1.0 0.1183656972
H  H81  1  0.77490000  0.37280000  0.26040000  1.0 0.1183656972
H  H82  1  0.12720000  0.27490000  0.76040000  1.0 0.1183656972
H  H83  1  0.22510000  0.62720000  0.26040000  1.0 0.1183656972
H  H84  1  0.87280000  0.72510000  0.76040000  1.0 0.1183656972
H  H85  1  0.27490000  0.12720000  0.23960000  1.0 0.1183656972
H  H86  1  0.72510000  0.87280000  0.23960000  1.0 0.1183656972
H  H87  1  0.37280000  0.77490000  0.73960000  1.0 0.1183656972
H  H88  1  0.62720000  0.22510000  0.73960000  1.0 0.1183656972
H  H89  1  0.63520000  0.51140000  0.22680000  1.0 0.1112912001
H  H90  1  0.98860000  0.13520000  0.72680000  1.0 0.1183656972
H  H91  1  0.36480000  0.48860000  0.22680000  1.0 0.1112912001
H  H92  1  0.01140000  0.86480000  0.72680000  1.0 0.1183656972
H  H93  1  0.13520000  0.98860000  0.27320000  1.0 0.1112912001
H  H94  1  0.86480000  0.01140000  0.27320000  1.0 0.1112912001
H  H95  1  0.51140000  0.63520000  0.77320000  1.0 0.1183656972
H  H96  1  0.48860000  0.36480000  0.77320000  1.0 0.1183656972
H  H97  1  0.71370000  0.53540000  0.18280000  1.0 0.1112912001
H  H98  1  0.96460000  0.21370000  0.68280000  1.0 0.1112912001
H  H99  1  0.28630000  0.46460000  0.18280000  1.0 0.1112912001
H  H100  1  0.03540000  0.78630000  0.68280000  1.0 0.1112912001
H  H101  1  0.21370000  0.96460000  0.31720000  1.0 0.1112912001
H  H102  1  0.78630000  0.03540000  0.31720000  1.0 0.1112912001
H  H103  1  0.53540000  0.71370000  0.81720000  1.0 0.1112912001
H  H104  1  0.46460000  0.28630000  0.81720000  1.0 0.1112912001
H  H105  1  0.92790000  0.37370000  0.11710000  1.0 0.1183656972
H  H106  1  0.12630000  0.42790000  0.61710000  1.0 0.1183656972
H  H107  1  0.07210000  0.62630000  0.11710000  1.0 0.1183656972
H  H108  1  0.87370000  0.57210000  0.61710000  1.0 0.1183656972
H  H109  1  0.42790000  0.12630000  0.38290000  1.0 0.1112912001
H  H110  1  0.57210000  0.87370000  0.38290000  1.0 0.1112912001
H  H111  1  0.37370000  0.92790000  0.88290000  1.0 0.1183656972
H  H112  1  0.62630000  0.07210000  0.88290000  1.0 0.1183656972
H  H113  1  0.79020000  0.24550000  0.16010000  1.0 0.1112912001
H  H114  1  0.25450000  0.29020000  0.66010000  1.0 0.1112912001
H  H115  1  0.20980000  0.75450000  0.16010000  1.0 0.1112912001
H  H116  1  0.74550000  0.70980000  0.66010000  1.0 0.1112912001
H  H117  1  0.29020000  0.25450000  0.33990000  1.0 0.1112912001
H  H118  1  0.70980000  0.74550000  0.33990000  1.0 0.1112912001
H  H119  1  0.24550000  0.79020000  0.83990000  1.0 0.1112912001
H  H120  1  0.75450000  0.20980000  0.83990000  1.0 0.1112912001
H  H121  1  0.82780000  0.44750000  0.10760000  1.0 0.1112912001
H  H122  1  0.05250000  0.32780000  0.60760000  1.0 0.1112912001
H  H123  1  0.17220000  0.55250000  0.10760000  1.0 0.1112912001
H  H124  1  0.94750000  0.67220000  0.60760000  1.0 0.1112912001
H  H125  1  0.32780000  0.05250000  0.39240000  1.0 0.1112912001
H  H126  1  0.67220000  0.94750000  0.39240000  1.0 0.1112912001
H  H127  1  0.44750000  0.82780000  0.89240000  1.0 0.1112912001
H  H128  1  0.55250000  0.17220000  0.89240000  1.0 0.1112912001
H  H129  1  0.77500000  0.33780000  0.19920000  1.0 0.1112912001
H  H130  1  0.16220000  0.27500000  0.69920000  1.0 0.1112912001
H  H131  1  0.22500000  0.66220000  0.19920000  1.0 0.1112912001
H  H132  1  0.83780000  0.72500000  0.69920000  1.0 0.1112912001
H  H133  1  0.27500000  0.16220000  0.30080000  1.0 0.1112912001
H  H134  1  0.72500000  0.83780000  0.30080000  1.0 0.1112912001
H  H135  1  0.33780000  0.77500000  0.80080000  1.0 0.1112912001
H  H136  1  0.66220000  0.22500000  0.80080000  1.0 0.1112912001
H  H137  1  0.77400000  0.47440000  0.45690000  1.0 0.0632527385
H  H138  1  0.02560000  0.27400000  0.95690000  1.0 0.0632527385
H  H139  1  0.22600000  0.52560000  0.45690000  1.0 0.0632527385
H  H140  1  0.97440000  0.72600000  0.95690000  1.0 0.0632527385
H  H141  1  0.27400000  0.02560000  0.04310000  1.0 0.0632527385
H  H142  1  0.72600000  0.97440000  0.04310000  1.0 0.0632527385
H  H143  1  0.47440000  0.77400000  0.54310000  1.0 0.0632527385
H  H144  1  0.52560000  0.22600000  0.54310000  1.0 0.0632527385
C  C1  1  0.61100000  0.43830000  0.33930000  1.0 0.5738547591
C  C2  1  0.06170000  0.11100000  0.83930000  1.0 0.5738547591
C  C3  1  0.38900000  0.56170000  0.33930000  1.0 0.5738547591
C  C4  1  0.93830000  0.88900000  0.83930000  1.0 0.5738547591
C  C5  1  0.11100000  0.06170000  0.16070000  1.0 0.5738547591
C  C6  1  0.88900000  0.93830000  0.16070000  1.0 0.5738547591
C  C7  1  0.43830000  0.61100000  0.66070000  1.0 0.5738547591
C  C8  1  0.56170000  0.38900000  0.66070000  1.0 0.5738547591
C  C9  1  0.77260000  0.62810000  0.14350000  1.0 -0.2597491445
C  C10  1  0.87190000  0.27260000  0.64350000  1.0 -0.2664322408
C  C11  1  0.22740000  0.37190000  0.14350000  1.0 -0.2597491445
C  C12  1  0.12810000  0.72740000  0.64350000  1.0 -0.2664322408
C  C13  1  0.27260000  0.87190000  0.35650000  1.0 -0.2597491445
C  C14  1  0.72740000  0.12810000  0.35650000  1.0 -0.2597491445
C  C15  1  0.62810000  0.77260000  0.85650000  1.0 -0.2597491445
C  C16  1  0.37190000  0.22740000  0.85650000  1.0 -0.2597491445
C  C17  1  0.78030000  0.63630000  0.06440000  1.0 -0.0853707587
C  C18  1  0.86370000  0.28030000  0.56440000  1.0 -0.080972909
C  C19  1  0.21970000  0.36370000  0.06440000  1.0 -0.0853707587
C  C20  1  0.13630000  0.71970000  0.56440000  1.0 -0.080972909
C  C21  1  0.28030000  0.86370000  0.43560000  1.0 -0.0853707587
C  C22  1  0.71970000  0.13630000  0.43560000  1.0 -0.0853707587
C  C23  1  0.63630000  0.78030000  0.93560000  1.0 -0.080972909
C  C24  1  0.36370000  0.21970000  0.93560000  1.0 -0.080972909
C  C25  1  0.98190000  0.14970000  0.11246000  1.0 0.6269010602
C  C26  1  0.35030000  0.48190000  0.61246000  1.0 0.6269010602
C  C27  1  0.01810000  0.85030000  0.11246000  1.0 0.6269010602
C  C28  1  0.64970000  0.51810000  0.61246000  1.0 0.6269010602
C  C29  1  0.48190000  0.35030000  0.38754000  1.0 0.6269010602
C  C30  1  0.51810000  0.64970000  0.38754000  1.0 0.6269010602
C  C31  1  0.14970000  0.98190000  0.88754000  1.0 0.6269010602
C  C32  1  0.85030000  0.01810000  0.88754000  1.0 0.6269010602
C  C33  1  0.78010000  0.69460000  0.12070000  1.0 -0.080972909
C  C34  1  0.80540000  0.28010000  0.62070000  1.0 -0.080972909
C  C35  1  0.21990000  0.30540000  0.12070000  1.0 -0.080972909
C  C36  1  0.19460000  0.71990000  0.62070000  1.0 -0.080972909
C  C37  1  0.28010000  0.80540000  0.37930000  1.0 -0.080972909
C  C38  1  0.71990000  0.19460000  0.37930000  1.0 -0.080972909
C  C39  1  0.69460000  0.78010000  0.87930000  1.0 -0.080972909
C  C40  1  0.30540000  0.21990000  0.87930000  1.0 -0.080972909
C  C41  1  0.77840000  0.57030000  0.08390000  1.0 -0.1266920131
C  C42  1  0.92970000  0.27840000  0.58390000  1.0 -0.1266920131
C  C43  1  0.22160000  0.42970000  0.08390000  1.0 -0.1266920131
C  C44  1  0.07030000  0.72160000  0.58390000  1.0 -0.1266920131
C  C45  1  0.27840000  0.92970000  0.41610000  1.0 -0.1266920131
C  C46  1  0.72160000  0.07030000  0.41610000  1.0 -0.1266920131
C  C47  1  0.57030000  0.77840000  0.91610000  1.0 -0.1266920131
C  C48  1  0.42970000  0.22160000  0.91610000  1.0 -0.1266920131
C  C49  1  0.78990000  0.69610000  0.08620000  1.0 -0.0411297494
C  C50  1  0.80390000  0.28990000  0.58620000  1.0 -0.0411297494
C  C51  1  0.21010000  0.30390000  0.08620000  1.0 -0.0411297494
C  C52  1  0.19610000  0.71010000  0.58620000  1.0 -0.0411297494
C  C53  1  0.28990000  0.80390000  0.41380000  1.0 -0.0411297494
C  C54  1  0.71010000  0.19610000  0.41380000  1.0 -0.0411297494
C  C55  1  0.69610000  0.78990000  0.91380000  1.0 -0.0411297494
C  C56  1  0.30390000  0.21010000  0.91380000  1.0 -0.0411297494
C  C57  1  0.80610000  0.76140000  0.06560000  1.0 0.6097416131
C  C58  1  0.73860000  0.30610000  0.56560000  1.0 0.6097416131
C  C59  1  0.19390000  0.23860000  0.06560000  1.0 0.6097416131
C  C60  1  0.26140000  0.69390000  0.56560000  1.0 0.6097416131
C  C61  1  0.30610000  0.73860000  0.43440000  1.0 0.6097416131
C  C62  1  0.69390000  0.26140000  0.43440000  1.0 0.6097416131
C  C63  1  0.76140000  0.80610000  0.93440000  1.0 0.6097416131
C  C64  1  0.23860000  0.19390000  0.93440000  1.0 0.6097416131
C  C65  1  0.93520000  0.21160000  0.12120000  1.0 -0.0411297494
C  C66  1  0.28840000  0.43520000  0.62120000  1.0 -0.0411297494
C  C67  1  0.06480000  0.78840000  0.12120000  1.0 -0.0411297494
C  C68  1  0.71160000  0.56480000  0.62120000  1.0 -0.0411297494
C  C69  1  0.43520000  0.28840000  0.37880000  1.0 -0.0411297494
C  C70  1  0.56480000  0.71160000  0.37880000  1.0 -0.0411297494
C  C71  1  0.21160000  0.93520000  0.87880000  1.0 -0.0411297494
C  C72  1  0.78840000  0.06480000  0.87880000  1.0 -0.0411297494
C  C73  1  0.61410000  0.47710000  0.27370000  1.0 -0.080972909
C  C74  1  0.02290000  0.11410000  0.77370000  1.0 -0.080972909
C  C75  1  0.38590000  0.52290000  0.27370000  1.0 -0.080972909
C  C76  1  0.97710000  0.88590000  0.77370000  1.0 -0.080972909
C  C77  1  0.11410000  0.02290000  0.22630000  1.0 -0.080972909
C  C78  1  0.88590000  0.97710000  0.22630000  1.0 -0.080972909
C  C79  1  0.47710000  0.61410000  0.72630000  1.0 -0.080972909
C  C80  1  0.52290000  0.38590000  0.72630000  1.0 -0.080972909
C  C81  1  0.77230000  0.56880000  0.11820000  1.0 0.0894954355
C  C82  1  0.93120000  0.27230000  0.61820000  1.0 0.0894954355
C  C83  1  0.22770000  0.43120000  0.11820000  1.0 0.0894954355
C  C84  1  0.06880000  0.72770000  0.61820000  1.0 0.0894954355
C  C85  1  0.27230000  0.93120000  0.38180000  1.0 0.0894954355
C  C86  1  0.72770000  0.06880000  0.38180000  1.0 0.0894954355
C  C87  1  0.56880000  0.77230000  0.88180000  1.0 0.0894954355
C  C88  1  0.43120000  0.22770000  0.88180000  1.0 0.0894954355
C  C89  1  0.69750000  0.43440000  0.23100000  1.0 0.0679426373
C  C90  1  0.06560000  0.19750000  0.73100000  1.0 0.0679426373
C  C91  1  0.30250000  0.56560000  0.23100000  1.0 0.0679426373
C  C92  1  0.93440000  0.80250000  0.73100000  1.0 0.0679426373
C  C93  1  0.19750000  0.06560000  0.26900000  1.0 0.0679426373
C  C94  1  0.80250000  0.93440000  0.26900000  1.0 0.0679426373
C  C95  1  0.43440000  0.69750000  0.76900000  1.0 0.0679426373
C  C96  1  0.56560000  0.30250000  0.76900000  1.0 0.0679426373
C  C97  1  0.87150000  0.19920000  0.13891000  1.0 -0.0968330015
C  C98  1  0.30080000  0.37150000  0.63891000  1.0 -0.0968330015
C  C99  1  0.12850000  0.80080000  0.13891000  1.0 -0.0968330015
C  C100  1  0.69920000  0.62850000  0.63891000  1.0 -0.0968330015
C  C101  1  0.37150000  0.30080000  0.36109000  1.0 -0.0968330015
C  C102  1  0.62850000  0.69920000  0.36109000  1.0 -0.0968330015
C  C103  1  0.19920000  0.87150000  0.86109000  1.0 -0.0968330015
C  C104  1  0.80080000  0.12850000  0.86109000  1.0 -0.0968330015
C  C105  1  0.73420000  0.43560000  0.19620000  1.0 0.0679426373
C  C106  1  0.06440000  0.23420000  0.69620000  1.0 0.0679426373
C  C107  1  0.26580000  0.56440000  0.19620000  1.0 0.0679426373
C  C108  1  0.93560000  0.76580000  0.69620000  1.0 0.0679426373
C  C109  1  0.23420000  0.06440000  0.30380000  1.0 0.0679426373
C  C110  1  0.76580000  0.93560000  0.30380000  1.0 0.0679426373
C  C111  1  0.43560000  0.73420000  0.80380000  1.0 0.0679426373
C  C112  1  0.56440000  0.26580000  0.80380000  1.0 0.0679426373
C  C113  1  0.64730000  0.43810000  0.30690000  1.0 -0.1196238237
C  C114  1  0.06190000  0.14730000  0.80690000  1.0 -0.1138726673
C  C115  1  0.35270000  0.56190000  0.30690000  1.0 -0.1196238237
C  C116  1  0.93810000  0.85270000  0.80690000  1.0 -0.1138726673
C  C117  1  0.14730000  0.06190000  0.19310000  1.0 -0.1138726673
C  C118  1  0.85270000  0.93810000  0.19310000  1.0 -0.1138726673
C  C119  1  0.43810000  0.64730000  0.69310000  1.0 -0.1138726673
C  C120  1  0.56190000  0.35270000  0.69310000  1.0 -0.1138726673
C  C121  1  0.95390000  0.27620000  0.11030000  1.0 -0.0968330015
C  C122  1  0.22380000  0.45390000  0.61030000  1.0 -0.0968330015
C  C123  1  0.04610000  0.72380000  0.11030000  1.0 -0.0968330015
C  C124  1  0.77620000  0.54610000  0.61030000  1.0 -0.0968330015
C  C125  1  0.45390000  0.22380000  0.38970000  1.0 -0.0968330015
C  C126  1  0.54610000  0.77620000  0.38970000  1.0 -0.0968330015
C  C127  1  0.27620000  0.95390000  0.88970000  1.0 -0.0968330015
C  C128  1  0.72380000  0.04610000  0.88970000  1.0 -0.0968330015
C  C129  1  0.70200000  0.39540000  0.29820000  1.0 -0.080972909
C  C130  1  0.10460000  0.20200000  0.79820000  1.0 -0.080972909
C  C131  1  0.29800000  0.60460000  0.29820000  1.0 -0.080972909
C  C132  1  0.89540000  0.79800000  0.79820000  1.0 -0.080972909
C  C133  1  0.20200000  0.10460000  0.20180000  1.0 -0.080972909
C  C134  1  0.79800000  0.89540000  0.20180000  1.0 -0.080972909
C  C135  1  0.39540000  0.70200000  0.70180000  1.0 -0.080972909
C  C136  1  0.60460000  0.29800000  0.70180000  1.0 -0.080972909
C  C137  1  0.73280000  0.39580000  0.26390000  1.0 -0.1481377137
C  C138  1  0.10420000  0.23280000  0.76390000  1.0 -0.1481377137
C  C139  1  0.26720000  0.60420000  0.26390000  1.0 -0.1481377137
C  C140  1  0.89580000  0.76720000  0.76390000  1.0 -0.1481377137
C  C141  1  0.23280000  0.10420000  0.23610000  1.0 -0.1481377137
C  C142  1  0.76720000  0.89580000  0.23610000  1.0 -0.1481377137
C  C143  1  0.39580000  0.73280000  0.73610000  1.0 -0.1481377137
C  C144  1  0.60420000  0.26720000  0.73610000  1.0 -0.1481377137
C  C145  1  0.84830000  0.32290000  0.13633000  1.0 0.0632527385
C  C146  1  0.17710000  0.34830000  0.63633000  1.0 0.0632527385
C  C147  1  0.15170000  0.67710000  0.13633000  1.0 0.0632527385
C  C148  1  0.82290000  0.65170000  0.63633000  1.0 0.0632527385
C  C149  1  0.34830000  0.17710000  0.36367000  1.0 0.0632527385
C  C150  1  0.65170000  0.82290000  0.36367000  1.0 0.0632527385
C  C151  1  0.32290000  0.84830000  0.86367000  1.0 0.0632527385
C  C152  1  0.67710000  0.15170000  0.86367000  1.0 0.0632527385
C  C153  1  0.64790000  0.47640000  0.24310000  1.0 -0.1196238237
C  C154  1  0.02360000  0.14790000  0.74310000  1.0 -0.1196238237
C  C155  1  0.35210000  0.52360000  0.24310000  1.0 -0.1196238237
C  C156  1  0.97640000  0.85210000  0.74310000  1.0 -0.1196238237
C  C157  1  0.14790000  0.02360000  0.25690000  1.0 -0.1196238237
C  C158  1  0.85210000  0.97640000  0.25690000  1.0 -0.1196238237
C  C159  1  0.47640000  0.64790000  0.75690000  1.0 -0.1196238237
C  C160  1  0.52360000  0.35210000  0.75690000  1.0 -0.1196238237
C  C161  1  0.73600000  0.49560000  0.17420000  1.0 -0.1984576641
C  C162  1  0.00440000  0.23600000  0.67420000  1.0 -0.1984576641
C  C163  1  0.26400000  0.50440000  0.17420000  1.0 -0.1984576641
C  C164  1  0.99560000  0.76400000  0.67420000  1.0 -0.1984576641
C  C165  1  0.23600000  0.00440000  0.32580000  1.0 -0.1984576641
C  C166  1  0.76400000  0.99560000  0.32580000  1.0 -0.1984576641
C  C167  1  0.49560000  0.73600000  0.82580000  1.0 -0.1984576641
C  C168  1  0.50440000  0.26400000  0.82580000  1.0 -0.1984576641
C  C169  1  0.91150000  0.32870000  0.12092000  1.0 -0.1481377137
C  C170  1  0.17130000  0.41150000  0.62092000  1.0 -0.1481377137
C  C171  1  0.08850000  0.67130000  0.12092000  1.0 -0.1481377137
C  C172  1  0.82870000  0.58850000  0.62092000  1.0 -0.1481377137
C  C173  1  0.41150000  0.17130000  0.37908000  1.0 -0.1481377137
C  C174  1  0.58850000  0.82870000  0.37908000  1.0 -0.1481377137
C  C175  1  0.32870000  0.91150000  0.87908000  1.0 -0.1481377137
C  C176  1  0.67130000  0.08850000  0.87908000  1.0 -0.1481377137
C  C177  1  0.80820000  0.38170000  0.15120000  1.0 0.0894954355
C  C178  1  0.11830000  0.30820000  0.65120000  1.0 0.0894954355
C  C179  1  0.19180000  0.61830000  0.15120000  1.0 0.0894954355
C  C180  1  0.88170000  0.69180000  0.65120000  1.0 0.0894954355
C  C181  1  0.30820000  0.11830000  0.34880000  1.0 0.0894954355
C  C182  1  0.69180000  0.88170000  0.34880000  1.0 0.0894954355
C  C183  1  0.38170000  0.80820000  0.84880000  1.0 0.0894954355
C  C184  1  0.61830000  0.19180000  0.84880000  1.0 0.0894954355
C  C185  1  0.83110000  0.25320000  0.14704000  1.0 -0.1481377137
C  C186  1  0.24680000  0.33110000  0.64704000  1.0 -0.1481377137
C  C187  1  0.16890000  0.74680000  0.14704000  1.0 -0.1481377137
C  C188  1  0.75320000  0.66890000  0.64704000  1.0 -0.1481377137
C  C189  1  0.33110000  0.24680000  0.35296000  1.0 -0.1481377137
C  C190  1  0.66890000  0.75320000  0.35296000  1.0 -0.1481377137
C  C191  1  0.25320000  0.83110000  0.85296000  1.0 -0.1481377137
C  C192  1  0.74680000  0.16890000  0.85296000  1.0 -0.1481377137
C  C193  1  0.76760000  0.49870000  0.14210000  1.0 0.0894954355
C  C194  1  0.00130000  0.26760000  0.64210000  1.0 0.0894954355
C  C195  1  0.23240000  0.50130000  0.14210000  1.0 0.0894954355
C  C196  1  0.99870000  0.73240000  0.64210000  1.0 0.0894954355
C  C197  1  0.26760000  0.00130000  0.35790000  1.0 0.0894954355
C  C198  1  0.73240000  0.99870000  0.35790000  1.0 0.0894954355
C  C199  1  0.49870000  0.76760000  0.85790000  1.0 0.0894954355
C  C200  1  0.50130000  0.23240000  0.85790000  1.0 0.0894954355
C  C201  1  0.80450000  0.44460000  0.12983000  1.0 -0.2177450252
C  C202  1  0.05540000  0.30450000  0.62983000  1.0 -0.2177450252
C  C203  1  0.19550000  0.55540000  0.12983000  1.0 -0.2177450252
C  C204  1  0.94460000  0.69550000  0.62983000  1.0 -0.2177450252
C  C205  1  0.30450000  0.05540000  0.37017000  1.0 -0.2177450252
C  C206  1  0.69550000  0.94460000  0.37017000  1.0 -0.2177450252
C  C207  1  0.44460000  0.80450000  0.87017000  1.0 -0.2177450252
C  C208  1  0.55540000  0.19550000  0.87017000  1.0 -0.2177450252
C  C209  1  0.77280000  0.37780000  0.18490000  1.0 -0.214019108
C  C210  1  0.12220000  0.27280000  0.68490000  1.0 -0.214019108
C  C211  1  0.22720000  0.62220000  0.18490000  1.0 -0.214019108
C  C212  1  0.87780000  0.72720000  0.68490000  1.0 -0.2177450252
C  C213  1  0.27280000  0.12220000  0.31510000  1.0 -0.2177450252
C  C214  1  0.72720000  0.87780000  0.31510000  1.0 -0.2177450252
C  C215  1  0.37780000  0.77280000  0.81510000  1.0 -0.214019108
C  C216  1  0.62220000  0.22720000  0.81510000  1.0 -0.214019108
C  C217  1  0.73900000  0.44090000  0.45590000  1.0 0.5134683016
C  C218  1  0.05910000  0.23900000  0.95590000  1.0 0.5134683016
C  C219  1  0.26100000  0.55910000  0.45590000  1.0 0.5134683016
C  C220  1  0.94090000  0.76100000  0.95590000  1.0 0.5134683016
C  C221  1  0.23900000  0.05910000  0.04410000  1.0 0.5134683016
C  C222  1  0.76100000  0.94090000  0.04410000  1.0 0.5134683016
C  C223  1  0.44090000  0.73900000  0.54410000  1.0 0.5152802913
C  C224  1  0.55910000  0.26100000  0.54410000  1.0 0.5134683016
O  O1  1  0.56562000  0.47217000  0.41761000  1.0 -1.0002829248
O  O2  1  0.02783000  0.06562000  0.91761000  1.0 -1.0002829248
O  O3  1  0.43438000  0.52783000  0.41761000  1.0 -1.0002829248
O  O4  1  0.97217000  0.93438000  0.91761000  1.0 -1.0002829248
O  O5  1  0.06562000  0.02783000  0.08239000  1.0 -1.0002829248
O  O6  1  0.93438000  0.97217000  0.08239000  1.0 -1.0002829248
O  O7  1  0.47217000  0.56562000  0.58239000  1.0 -1.0002829248
O  O8  1  0.52783000  0.43438000  0.58239000  1.0 -1.0002829248
O  O9  1  0.64215000  0.40276000  0.36632000  1.0 -0.6108412
O  O10  1  0.09724000  0.14215000  0.86632000  1.0 -0.6108412
O  O11  1  0.35785000  0.59724000  0.36632000  1.0 -0.6108412
O  O12  1  0.90276000  0.85785000  0.86632000  1.0 -0.6108412
O  O13  1  0.14215000  0.09724000  0.13368000  1.0 -0.6108412
O  O14  1  0.85785000  0.90276000  0.13368000  1.0 -0.6108412
O  O15  1  0.40276000  0.64215000  0.63368000  1.0 -0.6108412
O  O16  1  0.59724000  0.35785000  0.63368000  1.0 -0.6108412
O  O17  1  0.60095000  0.36676000  0.46549000  1.0 -1.0002829248
O  O18  1  0.13324000  0.10095000  0.96549000  1.0 -1.0002829248
O  O19  1  0.39905000  0.63324000  0.46549000  1.0 -1.0002829248
O  O20  1  0.86676000  0.89905000  0.96549000  1.0 -1.0002829248
O  O21  1  0.10095000  0.13324000  0.03451000  1.0 -1.0002829248
O  O22  1  0.89905000  0.86676000  0.03451000  1.0 -1.0002829248
O  O23  1  0.36676000  0.60095000  0.53451000  1.0 -1.0002829248
O  O24  1  0.63324000  0.39905000  0.53451000  1.0 -1.0002829248
O  O25  1  0.55930000  0.47554000  0.34352000  1.0 -0.541754842
O  O26  1  0.02446000  0.05930000  0.84352000  1.0 -0.541754842
O  O27  1  0.44070000  0.52446000  0.34352000  1.0 -0.541754842
O  O28  1  0.97554000  0.94070000  0.84352000  1.0 -0.541754842
O  O29  1  0.05930000  0.02446000  0.15648000  1.0 -0.541754842
O  O30  1  0.94070000  0.97554000  0.15648000  1.0 -0.541754842
O  O31  1  0.47554000  0.55930000  0.65648000  1.0 -0.541754842
O  O32  1  0.52446000  0.44070000  0.65648000  1.0 -0.541754842
O  O33  1  0.82800000  0.80747000  0.08938000  1.0 -0.5881604889
O  O34  1  0.69253000  0.32800000  0.58938000  1.0 -0.5881604889
O  O35  1  0.17200000  0.19253000  0.08938000  1.0 -0.5881604889
O  O36  1  0.30747000  0.67200000  0.58938000  1.0 -0.5881604889
O  O37  1  0.32800000  0.69253000  0.41062000  1.0 -0.5881604889
O  O38  1  0.67200000  0.30747000  0.41062000  1.0 -0.5881604889
O  O39  1  0.80747000  0.82800000  0.91062000  1.0 -0.5881604889
O  O40  1  0.19253000  0.17200000  0.91062000  1.0 -0.5881604889
O  O41  1  0.73403000  0.39910000  0.48207000  1.0 -0.541754842
O  O42  1  0.10090000  0.23403000  0.98207000  1.0 -0.541754842
O  O43  1  0.26597000  0.60090000  0.48207000  1.0 -0.541754842
O  O44  1  0.89910000  0.76597000  0.98207000  1.0 -0.541754842
O  O45  1  0.23403000  0.10090000  0.01793000  1.0 -0.541754842
O  O46  1  0.76597000  0.89910000  0.01793000  1.0 -0.541754842
O  O47  1  0.39910000  0.73403000  0.51793000  1.0 -0.541754842
O  O48  1  0.60090000  0.26597000  0.51793000  1.0 -0.541754842
O  O49  1  0.03900000  0.16520000  0.09834000  1.0 -0.5785097109
O  O50  1  0.33480000  0.53900000  0.59834000  1.0 -0.5785097109
O  O51  1  0.96100000  0.83480000  0.09834000  1.0 -0.5785097109
O  O52  1  0.66520000  0.46100000  0.59834000  1.0 -0.5785097109
O  O53  1  0.53900000  0.33480000  0.40166000  1.0 -0.5785097109
O  O54  1  0.46100000  0.66520000  0.40166000  1.0 -0.5785097109
O  O55  1  0.16520000  0.03900000  0.90166000  1.0 -0.5785097109
O  O56  1  0.83480000  0.96100000  0.90166000  1.0 -0.5785097109
O  O57  1  0.96020000  0.08936000  0.12008000  1.0 -0.5881604889
O  O58  1  0.41064000  0.46020000  0.62008000  1.0 -0.5881604889
O  O59  1  0.03980000  0.91064000  0.12008000  1.0 -0.5881604889
O  O60  1  0.58936000  0.53980000  0.62008000  1.0 -0.5881604889
O  O61  1  0.46020000  0.41064000  0.37992000  1.0 -0.5881604889
O  O62  1  0.53980000  0.58936000  0.37992000  1.0 -0.5881604889
O  O63  1  0.08936000  0.96020000  0.87992000  1.0 -0.5881604889
O  O64  1  0.91064000  0.03980000  0.87992000  1.0 -0.5881604889
O  O65  1  0.69910000  0.44070000  0.42790000  1.0 -0.5590310397
O  O66  1  0.05930000  0.19910000  0.92790000  1.0 -0.5590310397
O  O67  1  0.30090000  0.55930000  0.42790000  1.0 -0.5590310397
O  O68  1  0.94070000  0.80090000  0.92790000  1.0 -0.5590310397
O  O69  1  0.19910000  0.05930000  0.07210000  1.0 -0.5590310397
O  O70  1  0.80090000  0.94070000  0.07210000  1.0 -0.5590310397
O  O71  1  0.44070000  0.69910000  0.57210000  1.0 -0.5590310397
O  O72  1  0.55930000  0.30090000  0.57210000  1.0 -0.5590310397
O  O73  1  0.80270000  0.76550000  0.03397000  1.0 -0.4584324622
O  O74  1  0.73450000  0.30270000  0.53397000  1.0 -0.4584324622
O  O75  1  0.19730000  0.23450000  0.03397000  1.0 -0.4584324622
O  O76  1  0.26550000  0.69730000  0.53397000  1.0 -0.4584324622
O  O77  1  0.30270000  0.73450000  0.46603000  1.0 -0.4584324622
O  O78  1  0.69730000  0.26550000  0.46603000  1.0 -0.4584324622
O  O79  1  0.76550000  0.80270000  0.96603000  1.0 -0.4584324622
O  O80  1  0.23450000  0.19730000  0.96603000  1.0 -0.4584324622
