# DDEC6 charges by PACMAN v1.1 (https://github.com/mtap-research/PACMAN-charge/)
data_c8qi00684a2_4_ASR_pacman
_symmetry_space_group_name_H-M   'P 1'
_cell_length_a   16.68800000
_cell_length_b   22.61700000
_cell_length_c   23.53500000
_cell_angle_alpha   90.00000000
_cell_angle_beta   90.00000000
_cell_angle_gamma   90.00000000
_symmetry_Int_Tables_number   1
_chemical_formula_structural   ZnH16C18(NO)3
_chemical_formula_sum   'Zn16 H256 C288.0 N48 O48'
_cell_volume   8882.87379336
_cell_formula_units_Z   16
loop_
 _symmetry_equiv_pos_site_id
 _symmetry_equiv_pos_as_xyz
  1  'x, y, z'
loop_
 _atom_site_type_symbol
 _atom_site_label
 _atom_site_symmetry_multiplicity
 _atom_site_fract_x
 _atom_site_fract_y
 _atom_site_fract_z
 _atom_site_occupancy
 _atom_site_charge
Zn  Zn1  1  0.60425000  0.23132000  0.85502000  1.0 0.7699425635
Zn  Zn2  1  0.89575000  0.76868000  0.35502000  1.0 0.7699425635
Zn  Zn3  1  0.10425000  0.73132000  0.35502000  1.0 0.7699425635
Zn  Zn4  1  0.39575000  0.26868000  0.85502000  1.0 0.7699425635
Zn  Zn5  1  0.60425000  0.26868000  0.35502000  1.0 0.7699425635
Zn  Zn6  1  0.89575000  0.73132000  0.85502000  1.0 0.7699425635
Zn  Zn7  1  0.10425000  0.76868000  0.85502000  1.0 0.7699425635
Zn  Zn8  1  0.39575000  0.23132000  0.35502000  1.0 0.7699425635
Zn  Zn9  1  0.39575000  0.73132000  0.64498000  1.0 0.7699425635
Zn  Zn10  1  0.10425000  0.26868000  0.14498000  1.0 0.7699425635
Zn  Zn11  1  0.89575000  0.23132000  0.14498000  1.0 0.7699425635
Zn  Zn12  1  0.60425000  0.76868000  0.64498000  1.0 0.7699425635
Zn  Zn13  1  0.39575000  0.76868000  0.14498000  1.0 0.7699425635
Zn  Zn14  1  0.10425000  0.23132000  0.64498000  1.0 0.7699425635
Zn  Zn15  1  0.89575000  0.26868000  0.64498000  1.0 0.7699425635
Zn  Zn16  1  0.60425000  0.73132000  0.14498000  1.0 0.7699425635
H  H1  1  0.74620000  0.76390000  0.92110000  1.0 0.2705158112
H  H2  1  0.75380000  0.23610000  0.42110000  1.0 0.2705158112
H  H3  1  0.24620000  0.26390000  0.42110000  1.0 0.2705158112
H  H4  1  0.25380000  0.73610000  0.92110000  1.0 0.2705158112
H  H5  1  0.74620000  0.73610000  0.42110000  1.0 0.2705158112
H  H6  1  0.75380000  0.26390000  0.92110000  1.0 0.2705158112
H  H7  1  0.24620000  0.23610000  0.92110000  1.0 0.2705158112
H  H8  1  0.25380000  0.76390000  0.42110000  1.0 0.2705158112
H  H73  1  0.66040000  0.83720000  0.98690000  1.0 0.1474312541
H  H74  1  0.83960000  0.16280000  0.48690000  1.0 0.1474312541
H  H75  1  0.16040000  0.33720000  0.48690000  1.0 0.1474312541
H  H76  1  0.33960000  0.66280000  0.98690000  1.0 0.1474312541
H  H77  1  0.66040000  0.66280000  0.48690000  1.0 0.1474312541
H  H78  1  0.83960000  0.33720000  0.98690000  1.0 0.1474312541
H  H79  1  0.16040000  0.16280000  0.98690000  1.0 0.1474312541
H  H80  1  0.33960000  0.83720000  0.48690000  1.0 0.1474312541
H  H81  1  0.61040000  0.84120000  0.92900000  1.0 0.1474312541
H  H82  1  0.88960000  0.15880000  0.42900000  1.0 0.1474312541
H  H83  1  0.11040000  0.34120000  0.42900000  1.0 0.1474312541
H  H84  1  0.38960000  0.65880000  0.92900000  1.0 0.1474312541
H  H85  1  0.61040000  0.65880000  0.42900000  1.0 0.1474312541
H  H86  1  0.88960000  0.34120000  0.92900000  1.0 0.1474312541
H  H87  1  0.11040000  0.15880000  0.92900000  1.0 0.1474312541
H  H88  1  0.38960000  0.84120000  0.42900000  1.0 0.1474312541
H  H89  1  0.64560000  0.90000000  0.95750000  1.0 0.1309481678
H  H90  1  0.85440000  0.10000000  0.45750000  1.0 0.1309481678
H  H91  1  0.14560000  0.40000000  0.45750000  1.0 0.1309481678
H  H92  1  0.35440000  0.60000000  0.95750000  1.0 0.1309481678
H  H93  1  0.64560000  0.60000000  0.45750000  1.0 0.1309481678
H  H94  1  0.85440000  0.40000000  0.95750000  1.0 0.1309481678
H  H95  1  0.14560000  0.10000000  0.95750000  1.0 0.1309481678
H  H96  1  0.35440000  0.90000000  0.45750000  1.0 0.1309481678
H  H97  1  0.40100000  0.30220000  0.02330000  1.0 0.117593993
H  H98  1  0.09900000  0.69780000  0.52330000  1.0 0.117593993
H  H99  1  0.90100000  0.80220000  0.52330000  1.0 0.117593993
H  H100  1  0.59900000  0.19780000  0.02330000  1.0 0.117593993
H  H101  1  0.40100000  0.19780000  0.52330000  1.0 0.117593993
H  H102  1  0.09900000  0.80220000  0.02330000  1.0 0.117593993
H  H103  1  0.90100000  0.69780000  0.02330000  1.0 0.117593993
H  H104  1  0.59900000  0.30220000  0.52330000  1.0 0.117593993
H  H105  1  0.40140000  0.30270000  0.12210000  1.0 0.117593993
H  H106  1  0.09860000  0.69730000  0.62210000  1.0 0.117593993
H  H107  1  0.90140000  0.80270000  0.62210000  1.0 0.117593993
H  H108  1  0.59860000  0.19730000  0.12210000  1.0 0.117593993
H  H109  1  0.40140000  0.19730000  0.62210000  1.0 0.117593993
H  H110  1  0.09860000  0.80270000  0.12210000  1.0 0.117593993
H  H111  1  0.90140000  0.69730000  0.12210000  1.0 0.117593993
H  H112  1  0.59860000  0.30270000  0.62210000  1.0 0.117593993
H  H113  1  0.32680000  0.19870000  0.24750000  1.0 0.1474312541
H  H114  1  0.17320000  0.80130000  0.74750000  1.0 0.1474312541
H  H115  1  0.82680000  0.69870000  0.74750000  1.0 0.1474312541
H  H116  1  0.67320000  0.30130000  0.24750000  1.0 0.1474312541
H  H117  1  0.32680000  0.30130000  0.74750000  1.0 0.1474312541
H  H118  1  0.17320000  0.69870000  0.24750000  1.0 0.1474312541
H  H119  1  0.82680000  0.80130000  0.24750000  1.0 0.1474312541
H  H120  1  0.67320000  0.19870000  0.74750000  1.0 0.1474312541
H  H121  1  0.34970000  0.19900000  0.18150000  1.0 0.1474312541
H  H122  1  0.15030000  0.80100000  0.68150000  1.0 0.1474312541
H  H123  1  0.84970000  0.69900000  0.68150000  1.0 0.1474312541
H  H124  1  0.65030000  0.30100000  0.18150000  1.0 0.1474312541
H  H125  1  0.34970000  0.30100000  0.68150000  1.0 0.1474312541
H  H126  1  0.15030000  0.69900000  0.18150000  1.0 0.1474312541
H  H127  1  0.84970000  0.80100000  0.18150000  1.0 0.1474312541
H  H128  1  0.65030000  0.19900000  0.68150000  1.0 0.1474312541
H  H129  1  0.31850000  0.25830000  0.21130000  1.0 0.1474312541
H  H130  1  0.18150000  0.74170000  0.71130000  1.0 0.1474312541
H  H131  1  0.81850000  0.75830000  0.71130000  1.0 0.1474312541
H  H132  1  0.68150000  0.24170000  0.21130000  1.0 0.1474312541
H  H133  1  0.31850000  0.24170000  0.71130000  1.0 0.1474312541
H  H134  1  0.18150000  0.75830000  0.21130000  1.0 0.1474312541
H  H135  1  0.81850000  0.74170000  0.21130000  1.0 0.1474312541
H  H136  1  0.68150000  0.25830000  0.71130000  1.0 0.1474312541
H  H185  1  0.25380000  0.26390000  0.57890000  1.0 0.2705158112
H  H186  1  0.24620000  0.73610000  0.07890000  1.0 0.2705158112
H  H187  1  0.75380000  0.76390000  0.07890000  1.0 0.2705158112
H  H188  1  0.74620000  0.23610000  0.57890000  1.0 0.2705158112
H  H189  1  0.25380000  0.23610000  0.07890000  1.0 0.2705158112
H  H190  1  0.24620000  0.76390000  0.57890000  1.0 0.2705158112
H  H191  1  0.75380000  0.73610000  0.57890000  1.0 0.2705158112
H  H192  1  0.74620000  0.26390000  0.07890000  1.0 0.2705158112
H  H257  1  0.33960000  0.33720000  0.51310000  1.0 0.1474312541
H  H258  1  0.16040000  0.66280000  0.01310000  1.0 0.1474312541
H  H259  1  0.83960000  0.83720000  0.01310000  1.0 0.1474312541
H  H260  1  0.66040000  0.16280000  0.51310000  1.0 0.1474312541
H  H261  1  0.33960000  0.16280000  0.01310000  1.0 0.1474312541
H  H262  1  0.16040000  0.83720000  0.51310000  1.0 0.1474312541
H  H263  1  0.83960000  0.66280000  0.51310000  1.0 0.1474312541
H  H264  1  0.66040000  0.33720000  0.01310000  1.0 0.1474312541
H  H265  1  0.38960000  0.34120000  0.57100000  1.0 0.1474312541
H  H266  1  0.11040000  0.65880000  0.07100000  1.0 0.1474312541
H  H267  1  0.88960000  0.84120000  0.07100000  1.0 0.1474312541
H  H268  1  0.61040000  0.15880000  0.57100000  1.0 0.1474312541
H  H269  1  0.38960000  0.15880000  0.07100000  1.0 0.1474312541
H  H270  1  0.11040000  0.84120000  0.57100000  1.0 0.1474312541
H  H271  1  0.88960000  0.65880000  0.57100000  1.0 0.1474312541
H  H272  1  0.61040000  0.34120000  0.07100000  1.0 0.1474312541
H  H273  1  0.35440000  0.40000000  0.54250000  1.0 0.1309481678
H  H274  1  0.14560000  0.60000000  0.04250000  1.0 0.1309481678
H  H275  1  0.85440000  0.90000000  0.04250000  1.0 0.1309481678
H  H276  1  0.64560000  0.10000000  0.54250000  1.0 0.1309481678
H  H277  1  0.35440000  0.10000000  0.04250000  1.0 0.1309481678
H  H278  1  0.14560000  0.90000000  0.54250000  1.0 0.1309481678
H  H279  1  0.85440000  0.60000000  0.54250000  1.0 0.1309481678
H  H280  1  0.64560000  0.40000000  0.04250000  1.0 0.1309481678
H  H281  1  0.59900000  0.80220000  0.47670000  1.0 0.117593993
H  H282  1  0.90100000  0.19780000  0.97670000  1.0 0.117593993
H  H283  1  0.09900000  0.30220000  0.97670000  1.0 0.117593993
H  H284  1  0.40100000  0.69780000  0.47670000  1.0 0.117593993
H  H285  1  0.59900000  0.69780000  0.97670000  1.0 0.117593993
H  H286  1  0.90100000  0.30220000  0.47670000  1.0 0.117593993
H  H287  1  0.09900000  0.19780000  0.47670000  1.0 0.117593993
H  H288  1  0.40100000  0.80220000  0.97670000  1.0 0.117593993
H  H289  1  0.59860000  0.80270000  0.37790000  1.0 0.117593993
H  H290  1  0.90140000  0.19730000  0.87790000  1.0 0.117593993
H  H291  1  0.09860000  0.30270000  0.87790000  1.0 0.117593993
H  H292  1  0.40140000  0.69730000  0.37790000  1.0 0.117593993
H  H293  1  0.59860000  0.69730000  0.87790000  1.0 0.117593993
H  H294  1  0.90140000  0.30270000  0.37790000  1.0 0.117593993
H  H295  1  0.09860000  0.19730000  0.37790000  1.0 0.117593993
H  H296  1  0.40140000  0.80270000  0.87790000  1.0 0.117593993
H  H297  1  0.67320000  0.69870000  0.25250000  1.0 0.1474312541
H  H298  1  0.82680000  0.30130000  0.75250000  1.0 0.1474312541
H  H299  1  0.17320000  0.19870000  0.75250000  1.0 0.1474312541
H  H300  1  0.32680000  0.80130000  0.25250000  1.0 0.1474312541
H  H301  1  0.67320000  0.80130000  0.75250000  1.0 0.1474312541
H  H302  1  0.82680000  0.19870000  0.25250000  1.0 0.1474312541
H  H303  1  0.17320000  0.30130000  0.25250000  1.0 0.1474312541
H  H304  1  0.32680000  0.69870000  0.75250000  1.0 0.1474312541
H  H305  1  0.65030000  0.69900000  0.31850000  1.0 0.1474312541
H  H306  1  0.84970000  0.30100000  0.81850000  1.0 0.1474312541
H  H307  1  0.15030000  0.19900000  0.81850000  1.0 0.1474312541
H  H308  1  0.34970000  0.80100000  0.31850000  1.0 0.1474312541
H  H309  1  0.65030000  0.80100000  0.81850000  1.0 0.1474312541
H  H310  1  0.84970000  0.19900000  0.31850000  1.0 0.1474312541
H  H311  1  0.15030000  0.30100000  0.31850000  1.0 0.1474312541
H  H312  1  0.34970000  0.69900000  0.81850000  1.0 0.1474312541
H  H313  1  0.68150000  0.75830000  0.28870000  1.0 0.1474312541
H  H314  1  0.81850000  0.24170000  0.78870000  1.0 0.1474312541
H  H315  1  0.18150000  0.25830000  0.78870000  1.0 0.1474312541
H  H316  1  0.31850000  0.74170000  0.28870000  1.0 0.1474312541
H  H317  1  0.68150000  0.74170000  0.78870000  1.0 0.1474312541
H  H318  1  0.81850000  0.25830000  0.28870000  1.0 0.1474312541
H  H319  1  0.18150000  0.24170000  0.28870000  1.0 0.1474312541
H  H320  1  0.31850000  0.75830000  0.78870000  1.0 0.1474312541
H  H9  1  0.83560000  0.08390000  0.93670000  0.47 0.0706363875
H  H10  1  0.66440000  0.91610000  0.43670000  0.47 0.0706363875
H  H11  1  0.33560000  0.58390000  0.43670000  0.47 0.0706363875
H  H12  1  0.16440000  0.41610000  0.93670000  0.47 0.0706363875
H  H13  1  0.83560000  0.41610000  0.43670000  0.47 0.0706363875
H  H14  1  0.66440000  0.58390000  0.93670000  0.47 0.0706363875
H  H15  1  0.33560000  0.91610000  0.93670000  0.47 0.0706363875
H  H16  1  0.16440000  0.08390000  0.43670000  0.47 0.0706363875
H  H17  1  0.85900000  0.98220000  0.94340000  0.47 0.0706363875
H  H18  1  0.64100000  0.01780000  0.44340000  0.47 0.0706363875
H  H19  1  0.35900000  0.48220000  0.44340000  0.47 0.0706363875
H  H20  1  0.14100000  0.51780000  0.94340000  0.47 0.0706363875
H  H21  1  0.85900000  0.51780000  0.44340000  0.47 0.0706363875
H  H22  1  0.64100000  0.48220000  0.94340000  0.47 0.0706363875
H  H23  1  0.35900000  0.01780000  0.94340000  0.47 0.0706363875
H  H24  1  0.14100000  0.98220000  0.44340000  0.47 0.0706363875
H  H25  1  0.66150000  0.95080000  0.84780000  0.47 0.1027030814
H  H26  1  0.83850000  0.04920000  0.34780000  0.47 0.1027030814
H  H27  1  0.16150000  0.45080000  0.34780000  0.47 0.1027030814
H  H28  1  0.33850000  0.54920000  0.84780000  0.47 0.1027030814
H  H29  1  0.66150000  0.54920000  0.34780000  0.47 0.1027030814
H  H30  1  0.83850000  0.45080000  0.84780000  0.47 0.1027030814
H  H31  1  0.16150000  0.04920000  0.84780000  0.47 0.1027030814
H  H32  1  0.33850000  0.95080000  0.34780000  0.47 0.1027030814
H  H33  1  0.63940000  0.05220000  0.84030000  0.47 0.1027030814
H  H34  1  0.86060000  0.94780000  0.34030000  0.47 0.1027030814
H  H35  1  0.13940000  0.55220000  0.34030000  0.47 0.1027030814
H  H36  1  0.36060000  0.44780000  0.84030000  0.47 0.1027030814
H  H37  1  0.63940000  0.44780000  0.34030000  0.47 0.1027030814
H  H38  1  0.86060000  0.55220000  0.84030000  0.47 0.1027030814
H  H39  1  0.13940000  0.94780000  0.84030000  0.47 0.1027030814
H  H40  1  0.36060000  0.05220000  0.34030000  0.47 0.1027030814
H  H193  1  0.16440000  0.58390000  0.56330000  0.47 0.0706363875
H  H194  1  0.33560000  0.41610000  0.06330000  0.47 0.0706363875
H  H195  1  0.66440000  0.08390000  0.06330000  0.47 0.0706363875
H  H196  1  0.83560000  0.91610000  0.56330000  0.47 0.0706363875
H  H197  1  0.16440000  0.91610000  0.06330000  0.47 0.0706363875
H  H198  1  0.33560000  0.08390000  0.56330000  0.47 0.0706363875
H  H199  1  0.66440000  0.41610000  0.56330000  0.47 0.0706363875
H  H200  1  0.83560000  0.58390000  0.06330000  0.47 0.0706363875
H  H201  1  0.14100000  0.48220000  0.55660000  0.47 0.0706363875
H  H202  1  0.35900000  0.51780000  0.05660000  0.47 0.0706363875
H  H203  1  0.64100000  0.98220000  0.05660000  0.47 0.0706363875
H  H204  1  0.85900000  0.01780000  0.55660000  0.47 0.0706363875
H  H205  1  0.14100000  0.01780000  0.05660000  0.47 0.0706363875
H  H206  1  0.35900000  0.98220000  0.55660000  0.47 0.0706363875
H  H207  1  0.64100000  0.51780000  0.55660000  0.47 0.0706363875
H  H208  1  0.85900000  0.48220000  0.05660000  0.47 0.0706363875
H  H209  1  0.33850000  0.45080000  0.65220000  0.47 0.1027030814
H  H210  1  0.16150000  0.54920000  0.15220000  0.47 0.1027030814
H  H211  1  0.83850000  0.95080000  0.15220000  0.47 0.1027030814
H  H212  1  0.66150000  0.04920000  0.65220000  0.47 0.1027030814
H  H213  1  0.33850000  0.04920000  0.15220000  0.47 0.1027030814
H  H214  1  0.16150000  0.95080000  0.65220000  0.47 0.1027030814
H  H215  1  0.83850000  0.54920000  0.65220000  0.47 0.1027030814
H  H216  1  0.66150000  0.45080000  0.15220000  0.47 0.1027030814
H  H217  1  0.36060000  0.55220000  0.65970000  0.47 0.1027030814
H  H218  1  0.13940000  0.44780000  0.15970000  0.47 0.1027030814
H  H219  1  0.86060000  0.05220000  0.15970000  0.47 0.1027030814
H  H220  1  0.63940000  0.94780000  0.65970000  0.47 0.1027030814
H  H221  1  0.36060000  0.94780000  0.15970000  0.47 0.1027030814
H  H222  1  0.13940000  0.05220000  0.65970000  0.47 0.1027030814
H  H223  1  0.86060000  0.44780000  0.65970000  0.47 0.1027030814
H  H224  1  0.63940000  0.55220000  0.15970000  0.47 0.1027030814
H  H137  1  0.95070000  0.86170000  0.82000000  0.5 0.1404473256
H  H138  1  0.54930000  0.13830000  0.32000000  0.5 0.1404473256
H  H139  1  0.45070000  0.36170000  0.32000000  0.5 0.1404473256
H  H140  1  0.04930000  0.63830000  0.82000000  0.5 0.1404473256
H  H141  1  0.95070000  0.63830000  0.32000000  0.5 0.1404473256
H  H142  1  0.54930000  0.36170000  0.82000000  0.5 0.1404473256
H  H143  1  0.45070000  0.13830000  0.82000000  0.5 0.1404473256
H  H144  1  0.04930000  0.86170000  0.32000000  0.5 0.1404473256
H  H145  1  0.90780000  0.92500000  0.82020000  0.5 0.082442489
H  H146  1  0.59220000  0.07500000  0.32020000  0.5 0.082442489
H  H147  1  0.40780000  0.42500000  0.32020000  0.5 0.082442489
H  H148  1  0.09220000  0.57500000  0.82020000  0.5 0.082442489
H  H149  1  0.90780000  0.57500000  0.32020000  0.5 0.082442489
H  H150  1  0.59220000  0.42500000  0.82020000  0.5 0.082442489
H  H151  1  0.40780000  0.07500000  0.82020000  0.5 0.082442489
H  H152  1  0.09220000  0.92500000  0.32020000  0.5 0.082442489
H  H153  1  0.87430000  0.87320000  0.78040000  0.5 0.1027030814
H  H154  1  0.62570000  0.12680000  0.28040000  0.5 0.1027030814
H  H155  1  0.37430000  0.37320000  0.28040000  0.5 0.1027030814
H  H156  1  0.12570000  0.62680000  0.78040000  0.5 0.1027030814
H  H157  1  0.87430000  0.62680000  0.28040000  0.5 0.1027030814
H  H158  1  0.62570000  0.37320000  0.78040000  0.5 0.1027030814
H  H159  1  0.37430000  0.12680000  0.78040000  0.5 0.1027030814
H  H160  1  0.12570000  0.87320000  0.28040000  0.5 0.1027030814
H  H161  1  0.95980000  0.88190000  0.88240000  0.5 0.117593993
H  H162  1  0.54020000  0.11810000  0.38240000  0.5 0.117593993
H  H163  1  0.45980000  0.38190000  0.38240000  0.5 0.117593993
H  H164  1  0.04020000  0.61810000  0.88240000  0.5 0.117593993
H  H165  1  0.95980000  0.61810000  0.38240000  0.5 0.117593993
H  H166  1  0.54020000  0.38190000  0.88240000  0.5 0.117593993
H  H167  1  0.45980000  0.11810000  0.88240000  0.5 0.117593993
H  H168  1  0.04020000  0.88190000  0.38240000  0.5 0.117593993
H  H169  1  0.91730000  0.92630000  0.83880000  0.5 0.0859218618
H  H170  1  0.58270000  0.07370000  0.33880000  0.5 0.0859218618
H  H171  1  0.41730000  0.42630000  0.33880000  0.5 0.0859218618
H  H172  1  0.08270000  0.57370000  0.83880000  0.5 0.0859218618
H  H173  1  0.91730000  0.57370000  0.33880000  0.5 0.0859218618
H  H174  1  0.58270000  0.42630000  0.83880000  0.5 0.0859218618
H  H175  1  0.41730000  0.07370000  0.83880000  0.5 0.0859218618
H  H176  1  0.08270000  0.92630000  0.33880000  0.5 0.0859218618
H  H177  1  0.94360000  0.86170000  0.81820000  0.5 0.1404473256
H  H178  1  0.55640000  0.13830000  0.31820000  0.5 0.1404473256
H  H179  1  0.44360000  0.36170000  0.31820000  0.5 0.1404473256
H  H180  1  0.05640000  0.63830000  0.81820000  0.5 0.1404473256
H  H181  1  0.94360000  0.63830000  0.31820000  0.5 0.1404473256
H  H182  1  0.55640000  0.36170000  0.81820000  0.5 0.1404473256
H  H183  1  0.44360000  0.13830000  0.81820000  0.5 0.1404473256
H  H184  1  0.05640000  0.86170000  0.31820000  0.5 0.1404473256
H  H321  1  0.04930000  0.36170000  0.68000000  0.5 0.1404473256
H  H322  1  0.45070000  0.63830000  0.18000000  0.5 0.1404473256
H  H323  1  0.54930000  0.86170000  0.18000000  0.5 0.1404473256
H  H324  1  0.95070000  0.13830000  0.68000000  0.5 0.1404473256
H  H325  1  0.04930000  0.13830000  0.18000000  0.5 0.1404473256
H  H326  1  0.45070000  0.86170000  0.68000000  0.5 0.1404473256
H  H327  1  0.54930000  0.63830000  0.68000000  0.5 0.1404473256
H  H328  1  0.95070000  0.36170000  0.18000000  0.5 0.1404473256
H  H329  1  0.09220000  0.42500000  0.67980000  0.5 0.082442489
H  H330  1  0.40780000  0.57500000  0.17980000  0.5 0.082442489
H  H331  1  0.59220000  0.92500000  0.17980000  0.5 0.082442489
H  H332  1  0.90780000  0.07500000  0.67980000  0.5 0.082442489
H  H333  1  0.09220000  0.07500000  0.17980000  0.5 0.082442489
H  H334  1  0.40780000  0.92500000  0.67980000  0.5 0.082442489
H  H335  1  0.59220000  0.57500000  0.67980000  0.5 0.082442489
H  H336  1  0.90780000  0.42500000  0.17980000  0.5 0.082442489
H  H337  1  0.12570000  0.37320000  0.71960000  0.5 0.1027030814
H  H338  1  0.37430000  0.62680000  0.21960000  0.5 0.1027030814
H  H339  1  0.62570000  0.87320000  0.21960000  0.5 0.1027030814
H  H340  1  0.87430000  0.12680000  0.71960000  0.5 0.1027030814
H  H341  1  0.12570000  0.12680000  0.21960000  0.5 0.1027030814
H  H342  1  0.37430000  0.87320000  0.71960000  0.5 0.1027030814
H  H343  1  0.62570000  0.62680000  0.71960000  0.5 0.1027030814
H  H344  1  0.87430000  0.37320000  0.21960000  0.5 0.1027030814
H  H345  1  0.04020000  0.38190000  0.61760000  0.5 0.117593993
H  H346  1  0.45980000  0.61810000  0.11760000  0.5 0.117593993
H  H347  1  0.54020000  0.88190000  0.11760000  0.5 0.117593993
H  H348  1  0.95980000  0.11810000  0.61760000  0.5 0.117593993
H  H349  1  0.04020000  0.11810000  0.11760000  0.5 0.117593993
H  H350  1  0.45980000  0.88190000  0.61760000  0.5 0.117593993
H  H351  1  0.54020000  0.61810000  0.61760000  0.5 0.117593993
H  H352  1  0.95980000  0.38190000  0.11760000  0.5 0.117593993
H  H353  1  0.08270000  0.42630000  0.66120000  0.5 0.0859218618
H  H354  1  0.41730000  0.57370000  0.16120000  0.5 0.0859218618
H  H355  1  0.58270000  0.92630000  0.16120000  0.5 0.0859218618
H  H356  1  0.91730000  0.07370000  0.66120000  0.5 0.0859218618
H  H357  1  0.08270000  0.07370000  0.16120000  0.5 0.0859218618
H  H358  1  0.41730000  0.92630000  0.66120000  0.5 0.0859218618
H  H359  1  0.58270000  0.57370000  0.66120000  0.5 0.0859218618
H  H360  1  0.91730000  0.42630000  0.16120000  0.5 0.0859218618
H  H361  1  0.05640000  0.36170000  0.68180000  0.5 0.1404473256
H  H362  1  0.44360000  0.63830000  0.18180000  0.5 0.1404473256
H  H363  1  0.55640000  0.86170000  0.18180000  0.5 0.1404473256
H  H364  1  0.94360000  0.13830000  0.68180000  0.5 0.1404473256
H  H365  1  0.05640000  0.13830000  0.18180000  0.5 0.1404473256
H  H366  1  0.44360000  0.86170000  0.68180000  0.5 0.1404473256
H  H367  1  0.55640000  0.63830000  0.68180000  0.5 0.1404473256
H  H368  1  0.94360000  0.36170000  0.18180000  0.5 0.1404473256
H  H41  1  0.72990000  0.96340000  0.80410000  0.53 0.0859218618
H  H42  1  0.77010000  0.03660000  0.30410000  0.53 0.0859218618
H  H43  1  0.22990000  0.46340000  0.30410000  0.53 0.0859218618
H  H44  1  0.27010000  0.53660000  0.80410000  0.53 0.0859218618
H  H45  1  0.72990000  0.53660000  0.30410000  0.53 0.0859218618
H  H46  1  0.77010000  0.46340000  0.80410000  0.53 0.0859218618
H  H47  1  0.22990000  0.03660000  0.80410000  0.53 0.0859218618
H  H48  1  0.27010000  0.96340000  0.30410000  0.53 0.0859218618
H  H49  1  0.71450000  0.06640000  0.80120000  0.53 0.1027030814
H  H50  1  0.78550000  0.93360000  0.30120000  0.53 0.1027030814
H  H51  1  0.21450000  0.56640000  0.30120000  0.53 0.1027030814
H  H52  1  0.28550000  0.43360000  0.80120000  0.53 0.1027030814
H  H53  1  0.71450000  0.43360000  0.30120000  0.53 0.1027030814
H  H54  1  0.78550000  0.56640000  0.80120000  0.53 0.1027030814
H  H55  1  0.21450000  0.93360000  0.80120000  0.53 0.1027030814
H  H56  1  0.28550000  0.06640000  0.30120000  0.53 0.1027030814
H  H57  1  0.79610000  0.97520000  0.96780000  0.53 0.0706363875
H  H58  1  0.70390000  0.02480000  0.46780000  0.53 0.0706363875
H  H59  1  0.29610000  0.47520000  0.46780000  0.53 0.0706363875
H  H60  1  0.20390000  0.52480000  0.96780000  0.53 0.0706363875
H  H61  1  0.79610000  0.52480000  0.46780000  0.53 0.0706363875
H  H62  1  0.70390000  0.47520000  0.96780000  0.53 0.0706363875
H  H63  1  0.29610000  0.02480000  0.96780000  0.53 0.0706363875
H  H64  1  0.20390000  0.97520000  0.46780000  0.53 0.0706363875
H  H65  1  0.77590000  0.07580000  0.96680000  0.53 0.0706363875
H  H66  1  0.72410000  0.92420000  0.46680000  0.53 0.0706363875
H  H67  1  0.27590000  0.57580000  0.46680000  0.53 0.0706363875
H  H68  1  0.22410000  0.42420000  0.96680000  0.53 0.0706363875
H  H69  1  0.77590000  0.42420000  0.46680000  0.53 0.0706363875
H  H70  1  0.72410000  0.57580000  0.96680000  0.53 0.0706363875
H  H71  1  0.27590000  0.92420000  0.96680000  0.53 0.0706363875
H  H72  1  0.22410000  0.07580000  0.46680000  0.53 0.0706363875
H  H225  1  0.27010000  0.46340000  0.69590000  0.53 0.0859218618
H  H226  1  0.22990000  0.53660000  0.19590000  0.53 0.0859218618
H  H227  1  0.77010000  0.96340000  0.19590000  0.53 0.0859218618
H  H228  1  0.72990000  0.03660000  0.69590000  0.53 0.0859218618
H  H229  1  0.27010000  0.03660000  0.19590000  0.53 0.0859218618
H  H230  1  0.22990000  0.96340000  0.69590000  0.53 0.0859218618
H  H231  1  0.77010000  0.53660000  0.69590000  0.53 0.0859218618
H  H232  1  0.72990000  0.46340000  0.19590000  0.53 0.0859218618
H  H233  1  0.28550000  0.56640000  0.69880000  0.53 0.1027030814
H  H234  1  0.21450000  0.43360000  0.19880000  0.53 0.1027030814
H  H235  1  0.78550000  0.06640000  0.19880000  0.53 0.1027030814
H  H236  1  0.71450000  0.93360000  0.69880000  0.53 0.1027030814
H  H237  1  0.28550000  0.93360000  0.19880000  0.53 0.1027030814
H  H238  1  0.21450000  0.06640000  0.69880000  0.53 0.1027030814
H  H239  1  0.78550000  0.43360000  0.69880000  0.53 0.1027030814
H  H240  1  0.71450000  0.56640000  0.19880000  0.53 0.1027030814
H  H241  1  0.20390000  0.47520000  0.53220000  0.53 0.0706363875
H  H242  1  0.29610000  0.52480000  0.03220000  0.53 0.0706363875
H  H243  1  0.70390000  0.97520000  0.03220000  0.53 0.0706363875
H  H244  1  0.79610000  0.02480000  0.53220000  0.53 0.0706363875
H  H245  1  0.20390000  0.02480000  0.03220000  0.53 0.0706363875
H  H246  1  0.29610000  0.97520000  0.53220000  0.53 0.0706363875
H  H247  1  0.70390000  0.52480000  0.53220000  0.53 0.0706363875
H  H248  1  0.79610000  0.47520000  0.03220000  0.53 0.0706363875
H  H249  1  0.22410000  0.57580000  0.53320000  0.53 0.0706363875
H  H250  1  0.27590000  0.42420000  0.03320000  0.53 0.0706363875
H  H251  1  0.72410000  0.07580000  0.03320000  0.53 0.0706363875
H  H252  1  0.77590000  0.92420000  0.53320000  0.53 0.0706363875
H  H253  1  0.22410000  0.92420000  0.03320000  0.53 0.0706363875
H  H254  1  0.27590000  0.07580000  0.53320000  0.53 0.0706363875
H  H255  1  0.72410000  0.42420000  0.53320000  0.53 0.0706363875
H  H256  1  0.77590000  0.57580000  0.03320000  0.53 0.0706363875
C  C1  1  0.71930000  0.14460000  0.88450000  1.0 0.5288165478
C  C2  1  0.78070000  0.85540000  0.38450000  1.0 0.5288165478
C  C3  1  0.21930000  0.64460000  0.38450000  1.0 0.5288165478
C  C4  1  0.28070000  0.35540000  0.88450000  1.0 0.5288165478
C  C5  1  0.71930000  0.35540000  0.38450000  1.0 0.5288165478
C  C6  1  0.78070000  0.64460000  0.88450000  1.0 0.5288165478
C  C7  1  0.21930000  0.85540000  0.88450000  1.0 0.5288165478
C  C8  1  0.28070000  0.14460000  0.38450000  1.0 0.5288165478
C  C9  1  0.73750000  0.07960000  0.88550000  1.0 -0.0261958088
C  C10  1  0.76250000  0.92040000  0.38550000  1.0 -0.0261958088
C  C11  1  0.23750000  0.57960000  0.38550000  1.0 -0.0261958088
C  C12  1  0.26250000  0.42040000  0.88550000  1.0 -0.0261958088
C  C13  1  0.73750000  0.42040000  0.38550000  1.0 -0.0261958088
C  C14  1  0.76250000  0.57960000  0.88550000  1.0 -0.0261958088
C  C15  1  0.23750000  0.92040000  0.88550000  1.0 -0.0261958088
C  C16  1  0.26250000  0.07960000  0.38550000  1.0 -0.0261958088
C  C33  1  0.76600000  0.95730000  0.88950000  1.0 0.0490916521
C  C34  1  0.73400000  0.04270000  0.38950000  1.0 0.0490916521
C  C35  1  0.26600000  0.45730000  0.38950000  1.0 0.0490916521
C  C36  1  0.23400000  0.54270000  0.88950000  1.0 0.0490916521
C  C37  1  0.76600000  0.54270000  0.38950000  1.0 0.0490916521
C  C38  1  0.73400000  0.45730000  0.88950000  1.0 0.0490916521
C  C39  1  0.26600000  0.04270000  0.88950000  1.0 0.0490916521
C  C40  1  0.23400000  0.95730000  0.38950000  1.0 0.0490916521
C  C89  1  0.77840000  0.89290000  0.89150000  1.0 -0.2583887153
C  C90  1  0.72160000  0.10710000  0.39150000  1.0 -0.2583887153
C  C91  1  0.27840000  0.39290000  0.39150000  1.0 -0.2583887153
C  C92  1  0.22160000  0.60710000  0.89150000  1.0 -0.2583887153
C  C93  1  0.77840000  0.60710000  0.39150000  1.0 -0.2583887153
C  C94  1  0.72160000  0.39290000  0.89150000  1.0 -0.2583887153
C  C95  1  0.27840000  0.10710000  0.89150000  1.0 -0.2583887153
C  C96  1  0.22160000  0.89290000  0.39150000  1.0 -0.2583887153
C  C97  1  0.73070000  0.85080000  0.91730000  1.0 0.1683400278
C  C98  1  0.76930000  0.14920000  0.41730000  1.0 0.1683400278
C  C99  1  0.23070000  0.35080000  0.41730000  1.0 0.1683400278
C  C100  1  0.26930000  0.64920000  0.91730000  1.0 0.1683400278
C  C101  1  0.73070000  0.64920000  0.41730000  1.0 0.1683400278
C  C102  1  0.76930000  0.35080000  0.91730000  1.0 0.1683400278
C  C103  1  0.23070000  0.14920000  0.91730000  1.0 0.1683400278
C  C104  1  0.26930000  0.85080000  0.41730000  1.0 0.1683400278
C  C105  1  0.84140000  0.86080000  0.86740000  1.0 0.2003197042
C  C106  1  0.65860000  0.13920000  0.36740000  1.0 0.2003197042
C  C107  1  0.34140000  0.36080000  0.36740000  1.0 0.2003197042
C  C108  1  0.15860000  0.63920000  0.86740000  1.0 0.2003197042
C  C109  1  0.84140000  0.63920000  0.36740000  1.0 0.2003197042
C  C110  1  0.65860000  0.36080000  0.86740000  1.0 0.2003197042
C  C111  1  0.34140000  0.13920000  0.86740000  1.0 0.2003197042
C  C112  1  0.15860000  0.86080000  0.36740000  1.0 0.2003197042
C  C113  1  0.65530000  0.85790000  0.95050000  1.0 -0.5141920926
C  C114  1  0.84470000  0.14210000  0.45050000  1.0 -0.5141920926
C  C115  1  0.15530000  0.35790000  0.45050000  1.0 -0.5141920926
C  C116  1  0.34470000  0.64210000  0.95050000  1.0 -0.5141920926
C  C117  1  0.65530000  0.64210000  0.45050000  1.0 -0.5141920926
C  C118  1  0.84470000  0.35790000  0.95050000  1.0 -0.5141920926
C  C119  1  0.15530000  0.14210000  0.95050000  1.0 -0.5141920926
C  C120  1  0.34470000  0.85790000  0.45050000  1.0 -0.5141920926
C  C121  1  0.50000000  0.25000000  0.94990000  1.0 0.5599580897
C  C122  1  0.00000000  0.75000000  0.44990000  1.0 0.5599580897
C  C123  1  0.50000000  0.25000000  0.44990000  1.0 0.5599580897
C  C124  1  0.00000000  0.75000000  0.94990000  1.0 0.5599580897
C  C125  1  0.50000000  0.25000000  0.01280000  1.0 -0.0423871311
C  C126  1  0.00000000  0.75000000  0.51280000  1.0 -0.0423871311
C  C127  1  0.50000000  0.25000000  0.51280000  1.0 -0.0423871311
C  C128  1  0.00000000  0.75000000  0.01280000  1.0 -0.0423871311
C  C129  1  0.44130000  0.28100000  0.04330000  1.0 -0.0973840358
C  C130  1  0.05870000  0.71900000  0.54330000  1.0 -0.0973840358
C  C131  1  0.94130000  0.78100000  0.54330000  1.0 -0.0973840358
C  C132  1  0.55870000  0.21900000  0.04330000  1.0 -0.0973840358
C  C133  1  0.44130000  0.21900000  0.54330000  1.0 -0.0973840358
C  C134  1  0.05870000  0.78100000  0.04330000  1.0 -0.0973840358
C  C135  1  0.94130000  0.71900000  0.04330000  1.0 -0.0973840358
C  C136  1  0.55870000  0.28100000  0.54330000  1.0 -0.0973840358
C  C137  1  0.44140000  0.28120000  0.10210000  1.0 -0.1555623742
C  C138  1  0.05860000  0.71880000  0.60210000  1.0 -0.1555623742
C  C139  1  0.94140000  0.78120000  0.60210000  1.0 -0.1555623742
C  C140  1  0.55860000  0.21880000  0.10210000  1.0 -0.1555623742
C  C141  1  0.44140000  0.21880000  0.60210000  1.0 -0.1555623742
C  C142  1  0.05860000  0.78120000  0.10210000  1.0 -0.1555623742
C  C143  1  0.94140000  0.71880000  0.10210000  1.0 -0.1555623742
C  C144  1  0.55860000  0.28120000  0.60210000  1.0 -0.1555623742
C  C145  1  0.50000000  0.25000000  0.13250000  1.0 0.117593993
C  C146  1  0.00000000  0.75000000  0.63250000  1.0 0.117593993
C  C147  1  0.50000000  0.25000000  0.63250000  1.0 0.117593993
C  C148  1  0.00000000  0.75000000  0.13250000  1.0 0.117593993
C  C149  1  0.50000000  0.25000000  0.19490000  1.0 -0.1655863928
C  C150  1  0.00000000  0.75000000  0.69490000  1.0 -0.1655863928
C  C151  1  0.50000000  0.25000000  0.69490000  1.0 -0.1655863928
C  C152  1  0.00000000  0.75000000  0.19490000  1.0 -0.1655863928
C  C153  1  0.43520000  0.23840000  0.23160000  1.0 0.2051533726
C  C154  1  0.06480000  0.76160000  0.73160000  1.0 0.2051533726
C  C155  1  0.93520000  0.73840000  0.73160000  1.0 0.2051533726
C  C156  1  0.56480000  0.26160000  0.23160000  1.0 0.2051533726
C  C157  1  0.43520000  0.26160000  0.73160000  1.0 0.2051533726
C  C158  1  0.06480000  0.73840000  0.23160000  1.0 0.2051533726
C  C159  1  0.93520000  0.76160000  0.23160000  1.0 0.2051533726
C  C160  1  0.56480000  0.23840000  0.73160000  1.0 0.2051533726
C  C161  1  0.35010000  0.22220000  0.21660000  1.0 -0.5217833947
C  C162  1  0.14990000  0.77780000  0.71660000  1.0 -0.5217833947
C  C163  1  0.85010000  0.72220000  0.71660000  1.0 -0.5217833947
C  C164  1  0.64990000  0.27780000  0.21660000  1.0 -0.5217833947
C  C165  1  0.35010000  0.27780000  0.71660000  1.0 -0.5217833947
C  C166  1  0.14990000  0.72220000  0.21660000  1.0 -0.5217833947
C  C167  1  0.85010000  0.77780000  0.21660000  1.0 -0.5217833947
C  C168  1  0.64990000  0.22220000  0.71660000  1.0 -0.5217833947
C  C185  1  0.28070000  0.64460000  0.61550000  1.0 0.5288165478
C  C186  1  0.21930000  0.35540000  0.11550000  1.0 0.5288165478
C  C187  1  0.78070000  0.14460000  0.11550000  1.0 0.5288165478
C  C188  1  0.71930000  0.85540000  0.61550000  1.0 0.5288165478
C  C189  1  0.28070000  0.85540000  0.11550000  1.0 0.5288165478
C  C190  1  0.21930000  0.14460000  0.61550000  1.0 0.5288165478
C  C191  1  0.78070000  0.35540000  0.61550000  1.0 0.5288165478
C  C192  1  0.71930000  0.64460000  0.11550000  1.0 0.5288165478
C  C193  1  0.26250000  0.57960000  0.61450000  1.0 -0.0261958088
C  C194  1  0.23750000  0.42040000  0.11450000  1.0 -0.0261958088
C  C195  1  0.76250000  0.07960000  0.11450000  1.0 -0.0261958088
C  C196  1  0.73750000  0.92040000  0.61450000  1.0 -0.0261958088
C  C197  1  0.26250000  0.92040000  0.11450000  1.0 -0.0261958088
C  C198  1  0.23750000  0.07960000  0.61450000  1.0 -0.0261958088
C  C199  1  0.76250000  0.42040000  0.61450000  1.0 -0.0261958088
C  C200  1  0.73750000  0.57960000  0.11450000  1.0 -0.0261958088
C  C217  1  0.23400000  0.45730000  0.61050000  1.0 0.0490916521
C  C218  1  0.26600000  0.54270000  0.11050000  1.0 0.0490916521
C  C219  1  0.73400000  0.95730000  0.11050000  1.0 0.0490916521
C  C220  1  0.76600000  0.04270000  0.61050000  1.0 0.0490916521
C  C221  1  0.23400000  0.04270000  0.11050000  1.0 0.0490916521
C  C222  1  0.26600000  0.95730000  0.61050000  1.0 0.0490916521
C  C223  1  0.73400000  0.54270000  0.61050000  1.0 0.0490916521
C  C224  1  0.76600000  0.45730000  0.11050000  1.0 0.0490916521
C  C273  1  0.22160000  0.39290000  0.60850000  1.0 -0.2583887153
C  C274  1  0.27840000  0.60710000  0.10850000  1.0 -0.2583887153
C  C275  1  0.72160000  0.89290000  0.10850000  1.0 -0.2583887153
C  C276  1  0.77840000  0.10710000  0.60850000  1.0 -0.2583887153
C  C277  1  0.22160000  0.10710000  0.10850000  1.0 -0.2583887153
C  C278  1  0.27840000  0.89290000  0.60850000  1.0 -0.2583887153
C  C279  1  0.72160000  0.60710000  0.60850000  1.0 -0.2583887153
C  C280  1  0.77840000  0.39290000  0.10850000  1.0 -0.2583887153
C  C281  1  0.26930000  0.35080000  0.58270000  1.0 0.1683400278
C  C282  1  0.23070000  0.64920000  0.08270000  1.0 0.1683400278
C  C283  1  0.76930000  0.85080000  0.08270000  1.0 0.1683400278
C  C284  1  0.73070000  0.14920000  0.58270000  1.0 0.1683400278
C  C285  1  0.26930000  0.14920000  0.08270000  1.0 0.1683400278
C  C286  1  0.23070000  0.85080000  0.58270000  1.0 0.1683400278
C  C287  1  0.76930000  0.64920000  0.58270000  1.0 0.1683400278
C  C288  1  0.73070000  0.35080000  0.08270000  1.0 0.1683400278
C  C289  1  0.15860000  0.36080000  0.63260000  1.0 0.2003197042
C  C290  1  0.34140000  0.63920000  0.13260000  1.0 0.2003197042
C  C291  1  0.65860000  0.86080000  0.13260000  1.0 0.2003197042
C  C292  1  0.84140000  0.13920000  0.63260000  1.0 0.2003197042
C  C293  1  0.15860000  0.13920000  0.13260000  1.0 0.2003197042
C  C294  1  0.34140000  0.86080000  0.63260000  1.0 0.2003197042
C  C295  1  0.65860000  0.63920000  0.63260000  1.0 0.2003197042
C  C296  1  0.84140000  0.36080000  0.13260000  1.0 0.2003197042
C  C297  1  0.34470000  0.35790000  0.54950000  1.0 -0.5141920926
C  C298  1  0.15530000  0.64210000  0.04950000  1.0 -0.5141920926
C  C299  1  0.84470000  0.85790000  0.04950000  1.0 -0.5141920926
C  C300  1  0.65530000  0.14210000  0.54950000  1.0 -0.5141920926
C  C301  1  0.34470000  0.14210000  0.04950000  1.0 -0.5141920926
C  C302  1  0.15530000  0.85790000  0.54950000  1.0 -0.5141920926
C  C303  1  0.84470000  0.64210000  0.54950000  1.0 -0.5141920926
C  C304  1  0.65530000  0.35790000  0.04950000  1.0 -0.5141920926
C  C305  1  0.50000000  0.75000000  0.55010000  1.0 0.5599580897
C  C306  1  0.00000000  0.25000000  0.05010000  1.0 0.5599580897
C  C307  1  0.50000000  0.75000000  0.05010000  1.0 0.5599580897
C  C308  1  0.00000000  0.25000000  0.55010000  1.0 0.5599580897
C  C309  1  0.50000000  0.75000000  0.48720000  1.0 -0.0423871311
C  C310  1  0.00000000  0.25000000  0.98720000  1.0 -0.0423871311
C  C311  1  0.50000000  0.75000000  0.98720000  1.0 -0.0423871311
C  C312  1  0.00000000  0.25000000  0.48720000  1.0 -0.0423871311
C  C313  1  0.55870000  0.78100000  0.45670000  1.0 -0.0973840358
C  C314  1  0.94130000  0.21900000  0.95670000  1.0 -0.0973840358
C  C315  1  0.05870000  0.28100000  0.95670000  1.0 -0.0973840358
C  C316  1  0.44130000  0.71900000  0.45670000  1.0 -0.0973840358
C  C317  1  0.55870000  0.71900000  0.95670000  1.0 -0.0973840358
C  C318  1  0.94130000  0.28100000  0.45670000  1.0 -0.0973840358
C  C319  1  0.05870000  0.21900000  0.45670000  1.0 -0.0973840358
C  C320  1  0.44130000  0.78100000  0.95670000  1.0 -0.0973840358
C  C321  1  0.55860000  0.78120000  0.39790000  1.0 -0.1555623742
C  C322  1  0.94140000  0.21880000  0.89790000  1.0 -0.1555623742
C  C323  1  0.05860000  0.28120000  0.89790000  1.0 -0.1555623742
C  C324  1  0.44140000  0.71880000  0.39790000  1.0 -0.1555623742
C  C325  1  0.55860000  0.71880000  0.89790000  1.0 -0.1555623742
C  C326  1  0.94140000  0.28120000  0.39790000  1.0 -0.1555623742
C  C327  1  0.05860000  0.21880000  0.39790000  1.0 -0.1555623742
C  C328  1  0.44140000  0.78120000  0.89790000  1.0 -0.1555623742
C  C329  1  0.50000000  0.75000000  0.36750000  1.0 0.117593993
C  C330  1  0.00000000  0.25000000  0.86750000  1.0 0.117593993
C  C331  1  0.50000000  0.75000000  0.86750000  1.0 0.117593993
C  C332  1  0.00000000  0.25000000  0.36750000  1.0 0.117593993
C  C333  1  0.50000000  0.75000000  0.30510000  1.0 -0.1655863928
C  C334  1  0.00000000  0.25000000  0.80510000  1.0 -0.1655863928
C  C335  1  0.50000000  0.75000000  0.80510000  1.0 -0.1655863928
C  C336  1  0.00000000  0.25000000  0.30510000  1.0 -0.1655863928
C  C337  1  0.56480000  0.73840000  0.26840000  1.0 0.2051533726
C  C338  1  0.93520000  0.26160000  0.76840000  1.0 0.2051533726
C  C339  1  0.06480000  0.23840000  0.76840000  1.0 0.2051533726
C  C340  1  0.43520000  0.76160000  0.26840000  1.0 0.2051533726
C  C341  1  0.56480000  0.76160000  0.76840000  1.0 0.2051533726
C  C342  1  0.93520000  0.23840000  0.26840000  1.0 0.2051533726
C  C343  1  0.06480000  0.26160000  0.26840000  1.0 0.2051533726
C  C344  1  0.43520000  0.73840000  0.76840000  1.0 0.2051533726
C  C345  1  0.64990000  0.72220000  0.28340000  1.0 -0.5217833947
C  C346  1  0.85010000  0.27780000  0.78340000  1.0 -0.5217833947
C  C347  1  0.14990000  0.22220000  0.78340000  1.0 -0.5217833947
C  C348  1  0.35010000  0.77780000  0.28340000  1.0 -0.5217833947
C  C349  1  0.64990000  0.77780000  0.78340000  1.0 -0.5217833947
C  C350  1  0.85010000  0.22220000  0.28340000  1.0 -0.5217833947
C  C351  1  0.14990000  0.27780000  0.28340000  1.0 -0.5217833947
C  C352  1  0.35010000  0.72220000  0.78340000  1.0 -0.5217833947
C  C17  1  0.80140000  0.05720000  0.91710000  0.47 -0.0261958088
C  C18  1  0.69860000  0.94280000  0.41710000  0.47 -0.0261958088
C  C19  1  0.30140000  0.55720000  0.41710000  0.47 -0.0261958088
C  C20  1  0.19860000  0.44280000  0.91710000  0.47 -0.0261958088
C  C21  1  0.80140000  0.44280000  0.41710000  0.47 -0.0261958088
C  C22  1  0.69860000  0.55720000  0.91710000  0.47 -0.0261958088
C  C23  1  0.30140000  0.94280000  0.91710000  0.47 -0.0261958088
C  C24  1  0.19860000  0.05720000  0.41710000  0.47 -0.0261958088
C  C25  1  0.81630000  0.99690000  0.92070000  0.47 -0.0521916583
C  C26  1  0.68370000  0.00310000  0.42070000  0.47 -0.0521916583
C  C27  1  0.31630000  0.49690000  0.42070000  0.47 -0.0521916583
C  C28  1  0.18370000  0.50310000  0.92070000  0.47 -0.0521916583
C  C29  1  0.81630000  0.50310000  0.42070000  0.47 -0.0521916583
C  C30  1  0.68370000  0.49690000  0.92070000  0.47 -0.0521916583
C  C31  1  0.31630000  0.00310000  0.92070000  0.47 -0.0521916583
C  C32  1  0.18370000  0.99690000  0.42070000  0.47 -0.0521916583
C  C41  1  0.69900000  0.97780000  0.86360000  0.47 -0.0973840358
C  C42  1  0.80100000  0.02220000  0.36360000  0.47 -0.0973840358
C  C43  1  0.19900000  0.47780000  0.36360000  0.47 -0.0973840358
C  C44  1  0.30100000  0.52220000  0.86360000  0.47 -0.0973840358
C  C45  1  0.69900000  0.52220000  0.36360000  0.47 -0.0973840358
C  C46  1  0.80100000  0.47780000  0.86360000  0.47 -0.0973840358
C  C47  1  0.19900000  0.02220000  0.86360000  0.47 -0.0973840358
C  C48  1  0.30100000  0.97780000  0.36360000  0.47 -0.0973840358
C  C49  1  0.68520000  0.03830000  0.86020000  0.47 -0.0521916583
C  C50  1  0.81480000  0.96170000  0.36020000  0.47 -0.0521916583
C  C51  1  0.18520000  0.53830000  0.36020000  0.47 -0.0521916583
C  C52  1  0.31480000  0.46170000  0.86020000  0.47 -0.0521916583
C  C53  1  0.68520000  0.46170000  0.36020000  0.47 -0.0521916583
C  C54  1  0.81480000  0.53830000  0.86020000  0.47 -0.0521916583
C  C55  1  0.18520000  0.96170000  0.86020000  0.47 -0.0521916583
C  C56  1  0.31480000  0.03830000  0.36020000  0.47 -0.0521916583
C  C201  1  0.19860000  0.55720000  0.58290000  0.47 -0.0261958088
C  C202  1  0.30140000  0.44280000  0.08290000  0.47 -0.0261958088
C  C203  1  0.69860000  0.05720000  0.08290000  0.47 -0.0261958088
C  C204  1  0.80140000  0.94280000  0.58290000  0.47 -0.0261958088
C  C205  1  0.19860000  0.94280000  0.08290000  0.47 -0.0261958088
C  C206  1  0.30140000  0.05720000  0.58290000  0.47 -0.0261958088
C  C207  1  0.69860000  0.44280000  0.58290000  0.47 -0.0261958088
C  C208  1  0.80140000  0.55720000  0.08290000  0.47 -0.0261958088
C  C209  1  0.18370000  0.49690000  0.57930000  0.47 -0.0521916583
C  C210  1  0.31630000  0.50310000  0.07930000  0.47 -0.0521916583
C  C211  1  0.68370000  0.99690000  0.07930000  0.47 -0.0521916583
C  C212  1  0.81630000  0.00310000  0.57930000  0.47 -0.0521916583
C  C213  1  0.18370000  0.00310000  0.07930000  0.47 -0.0553101483
C  C214  1  0.31630000  0.99690000  0.57930000  0.47 -0.0521916583
C  C215  1  0.68370000  0.50310000  0.57930000  0.47 -0.0521916583
C  C216  1  0.81630000  0.49690000  0.07930000  0.47 -0.0521916583
C  C225  1  0.30100000  0.47780000  0.63640000  0.47 -0.0973840358
C  C226  1  0.19900000  0.52220000  0.13640000  0.47 -0.0973840358
C  C227  1  0.80100000  0.97780000  0.13640000  0.47 -0.0973840358
C  C228  1  0.69900000  0.02220000  0.63640000  0.47 -0.0973840358
C  C229  1  0.30100000  0.02220000  0.13640000  0.47 -0.0973840358
C  C230  1  0.19900000  0.97780000  0.63640000  0.47 -0.0973840358
C  C231  1  0.80100000  0.52220000  0.63640000  0.47 -0.0973840358
C  C232  1  0.69900000  0.47780000  0.13640000  0.47 -0.0973840358
C  C233  1  0.31480000  0.53830000  0.63980000  0.47 -0.0521916583
C  C234  1  0.18520000  0.46170000  0.13980000  0.47 -0.0521916583
C  C235  1  0.81480000  0.03830000  0.13980000  0.47 -0.0521916583
C  C236  1  0.68520000  0.96170000  0.63980000  0.47 -0.0521916583
C  C237  1  0.31480000  0.96170000  0.13980000  0.47 -0.0521916583
C  C238  1  0.18520000  0.03830000  0.63980000  0.47 -0.0521916583
C  C239  1  0.81480000  0.46170000  0.63980000  0.47 -0.0521916583
C  C240  1  0.68520000  0.53830000  0.13980000  0.47 -0.0521916583
C  C169  1  0.89920000  0.88230000  0.81710000  0.5 -0.2441886007
C  C170  1  0.60080000  0.11770000  0.31710000  0.5 -0.2441886007
C  C171  1  0.39920000  0.38230000  0.31710000  0.5 -0.2441886007
C  C172  1  0.10080000  0.61770000  0.81710000  0.5 -0.2441886007
C  C173  1  0.89920000  0.61770000  0.31710000  0.5 -0.2441886007
C  C174  1  0.60080000  0.38230000  0.81710000  0.5 -0.2441886007
C  C175  1  0.39920000  0.11770000  0.81710000  0.5 -0.2441886007
C  C176  1  0.10080000  0.88230000  0.31710000  0.5 -0.2441886007
C  C177  1  0.92270000  0.88480000  0.85020000  0.5 -0.2583887153
C  C178  1  0.57730000  0.11520000  0.35020000  0.5 -0.2583887153
C  C179  1  0.42270000  0.38480000  0.35020000  0.5 -0.2583887153
C  C180  1  0.07730000  0.61520000  0.85020000  0.5 -0.2583887153
C  C181  1  0.92270000  0.61520000  0.35020000  0.5 -0.2583887153
C  C182  1  0.57730000  0.38480000  0.85020000  0.5 -0.2583887153
C  C183  1  0.42270000  0.11520000  0.85020000  0.5 -0.2583887153
C  C184  1  0.07730000  0.88480000  0.35020000  0.5 -0.2583887153
C  C353  1  0.10080000  0.38230000  0.68290000  0.5 -0.2441886007
C  C354  1  0.39920000  0.61770000  0.18290000  0.5 -0.2441886007
C  C355  1  0.60080000  0.88230000  0.18290000  0.5 -0.2441886007
C  C356  1  0.89920000  0.11770000  0.68290000  0.5 -0.2441886007
C  C357  1  0.10080000  0.11770000  0.18290000  0.5 -0.2441886007
C  C358  1  0.39920000  0.88230000  0.68290000  0.5 -0.2441886007
C  C359  1  0.60080000  0.61770000  0.68290000  0.5 -0.2441886007
C  C360  1  0.89920000  0.38230000  0.18290000  0.5 -0.2441886007
C  C361  1  0.07730000  0.38480000  0.64980000  0.5 -0.2583887153
C  C362  1  0.42270000  0.61520000  0.14980000  0.5 -0.2583887153
C  C363  1  0.57730000  0.88480000  0.14980000  0.5 -0.2583887153
C  C364  1  0.92270000  0.11520000  0.64980000  0.5 -0.2583887153
C  C365  1  0.07730000  0.11520000  0.14980000  0.5 -0.2583887153
C  C366  1  0.42270000  0.88480000  0.64980000  0.5 -0.2583887153
C  C367  1  0.57730000  0.61520000  0.64980000  0.5 -0.2583887153
C  C368  1  0.92270000  0.38480000  0.14980000  0.5 -0.2583887153
C  C57  1  0.73950000  0.98630000  0.83720000  0.53 -0.0521916583
C  C58  1  0.76050000  0.01370000  0.33720000  0.53 -0.0521916583
C  C59  1  0.23950000  0.48630000  0.33720000  0.53 -0.0521916583
C  C60  1  0.26050000  0.51370000  0.83720000  0.53 -0.0521916583
C  C61  1  0.73950000  0.51370000  0.33720000  0.53 -0.0521916583
C  C62  1  0.76050000  0.48630000  0.83720000  0.53 -0.0521916583
C  C63  1  0.23950000  0.01370000  0.83720000  0.53 -0.0521916583
C  C64  1  0.26050000  0.98630000  0.33720000  0.53 -0.0521916583
C  C65  1  0.72830000  0.04730000  0.83580000  0.53 -0.0912639456
C  C66  1  0.77170000  0.95270000  0.33580000  0.53 -0.0912639456
C  C67  1  0.22830000  0.54730000  0.33580000  0.53 -0.0912639456
C  C68  1  0.27170000  0.45270000  0.83580000  0.53 -0.0912639456
C  C69  1  0.72830000  0.45270000  0.33580000  0.53 -0.0912639456
C  C70  1  0.77170000  0.54730000  0.83580000  0.53 -0.0912639456
C  C71  1  0.22830000  0.95270000  0.83580000  0.53 -0.0912639456
C  C72  1  0.27170000  0.04730000  0.33580000  0.53 -0.0912639456
C  C73  1  0.77770000  0.99280000  0.93350000  0.53 -0.0685926029
C  C74  1  0.72230000  0.00720000  0.43350000  0.53 -0.0685926029
C  C75  1  0.27770000  0.49280000  0.43350000  0.53 -0.0685926029
C  C76  1  0.22230000  0.50720000  0.93350000  0.53 -0.0685926029
C  C77  1  0.77770000  0.50720000  0.43350000  0.53 -0.0685926029
C  C78  1  0.72230000  0.49280000  0.93350000  0.53 -0.0685926029
C  C79  1  0.27770000  0.00720000  0.93350000  0.53 -0.0685926029
C  C80  1  0.22230000  0.99280000  0.43350000  0.53 -0.0685926029
C  C81  1  0.76530000  0.05310000  0.93370000  0.53 -0.0521916583
C  C82  1  0.73470000  0.94690000  0.43370000  0.53 -0.0521916583
C  C83  1  0.26530000  0.55310000  0.43370000  0.53 -0.0521916583
C  C84  1  0.23470000  0.44690000  0.93370000  0.53 -0.0521916583
C  C85  1  0.76530000  0.44690000  0.43370000  0.53 -0.0521916583
C  C86  1  0.73470000  0.55310000  0.93370000  0.53 -0.0521916583
C  C87  1  0.26530000  0.94690000  0.93370000  0.53 -0.0521916583
C  C88  1  0.23470000  0.05310000  0.43370000  0.53 -0.0521916583
C  C241  1  0.26050000  0.48630000  0.66280000  0.53 -0.0521916583
C  C242  1  0.23950000  0.51370000  0.16280000  0.53 -0.0521916583
C  C243  1  0.76050000  0.98630000  0.16280000  0.53 -0.0521916583
C  C244  1  0.73950000  0.01370000  0.66280000  0.53 -0.0521916583
C  C245  1  0.26050000  0.01370000  0.16280000  0.53 -0.0521916583
C  C246  1  0.23950000  0.98630000  0.66280000  0.53 -0.0521916583
C  C247  1  0.76050000  0.51370000  0.66280000  0.53 -0.0521916583
C  C248  1  0.73950000  0.48630000  0.16280000  0.53 -0.0521916583
C  C249  1  0.27170000  0.54730000  0.66420000  0.53 -0.0912639456
C  C250  1  0.22830000  0.45270000  0.16420000  0.53 -0.0912639456
C  C251  1  0.77170000  0.04730000  0.16420000  0.53 -0.0912639456
C  C252  1  0.72830000  0.95270000  0.66420000  0.53 -0.0912639456
C  C253  1  0.27170000  0.95270000  0.16420000  0.53 -0.0912639456
C  C254  1  0.22830000  0.04730000  0.66420000  0.53 -0.0912639456
C  C255  1  0.77170000  0.45270000  0.66420000  0.53 -0.0912639456
C  C256  1  0.72830000  0.54730000  0.16420000  0.53 -0.0912639456
C  C257  1  0.22230000  0.49280000  0.56650000  0.53 -0.0685926029
C  C258  1  0.27770000  0.50720000  0.06650000  0.53 -0.0685926029
C  C259  1  0.72230000  0.99280000  0.06650000  0.53 -0.0685926029
C  C260  1  0.77770000  0.00720000  0.56650000  0.53 -0.0685926029
C  C261  1  0.22230000  0.00720000  0.06650000  0.53 -0.0685926029
C  C262  1  0.27770000  0.99280000  0.56650000  0.53 -0.0685926029
C  C263  1  0.72230000  0.50720000  0.56650000  0.53 -0.0685926029
C  C264  1  0.77770000  0.49280000  0.06650000  0.53 -0.0685926029
C  C265  1  0.23470000  0.55310000  0.56630000  0.53 -0.0521916583
C  C266  1  0.26530000  0.44690000  0.06630000  0.53 -0.0521916583
C  C267  1  0.73470000  0.05310000  0.06630000  0.53 -0.0521916583
C  C268  1  0.76530000  0.94690000  0.56630000  0.53 -0.0521916583
C  C269  1  0.23470000  0.94690000  0.06630000  0.53 -0.0521916583
C  C270  1  0.26530000  0.05310000  0.56630000  0.53 -0.0521916583
C  C271  1  0.73470000  0.44690000  0.56630000  0.53 -0.0521916583
C  C272  1  0.76530000  0.55310000  0.06630000  0.53 -0.0521916583
N  N1  1  0.83280000  0.80304000  0.87670000  1.0 -0.3157630148
N  N2  1  0.66720000  0.19696000  0.37670000  1.0 -0.3157630148
N  N3  1  0.33280000  0.30304000  0.37670000  1.0 -0.3157630148
N  N4  1  0.16720000  0.69696000  0.87670000  1.0 -0.3157630148
N  N5  1  0.83280000  0.69696000  0.37670000  1.0 -0.3157630148
N  N6  1  0.66720000  0.30304000  0.87670000  1.0 -0.3157630148
N  N7  1  0.33280000  0.19696000  0.87670000  1.0 -0.3157630148
N  N8  1  0.16720000  0.80304000  0.37670000  1.0 -0.3157630148
N  N9  1  0.76510000  0.79762000  0.90826000  1.0 -0.1397628966
N  N10  1  0.73490000  0.20238000  0.40826000  1.0 -0.1397628966
N  N11  1  0.26510000  0.29762000  0.40826000  1.0 -0.1397628966
N  N12  1  0.23490000  0.70238000  0.90826000  1.0 -0.1397628966
N  N13  1  0.76510000  0.70238000  0.40826000  1.0 -0.1397628966
N  N14  1  0.73490000  0.29762000  0.90826000  1.0 -0.1397628966
N  N15  1  0.26510000  0.20238000  0.90826000  1.0 -0.1397628966
N  N16  1  0.23490000  0.79762000  0.40826000  1.0 -0.1397628966
N  N17  1  0.46000000  0.24253000  0.28556000  1.0 -0.3064402486
N  N18  1  0.04000000  0.75747000  0.78556000  1.0 -0.3064402486
N  N19  1  0.96000000  0.74253000  0.78556000  1.0 -0.3064402486
N  N20  1  0.54000000  0.25747000  0.28556000  1.0 -0.3064402486
N  N21  1  0.46000000  0.25747000  0.78556000  1.0 -0.3064402486
N  N22  1  0.04000000  0.74253000  0.28556000  1.0 -0.3064402486
N  N23  1  0.96000000  0.75747000  0.28556000  1.0 -0.3064402486
N  N24  1  0.54000000  0.24253000  0.78556000  1.0 -0.3064402486
N  N25  1  0.16720000  0.30304000  0.62330000  1.0 -0.3157630148
N  N26  1  0.33280000  0.69696000  0.12330000  1.0 -0.3157630148
N  N27  1  0.66720000  0.80304000  0.12330000  1.0 -0.3157630148
N  N28  1  0.83280000  0.19696000  0.62330000  1.0 -0.3157630148
N  N29  1  0.16720000  0.19696000  0.12330000  1.0 -0.3157630148
N  N30  1  0.33280000  0.80304000  0.62330000  1.0 -0.3157630148
N  N31  1  0.66720000  0.69696000  0.62330000  1.0 -0.3157630148
N  N32  1  0.83280000  0.30304000  0.12330000  1.0 -0.3157630148
N  N33  1  0.23490000  0.29762000  0.59174000  1.0 -0.1397628966
N  N34  1  0.26510000  0.70238000  0.09174000  1.0 -0.1397628966
N  N35  1  0.73490000  0.79762000  0.09174000  1.0 -0.1397628966
N  N36  1  0.76510000  0.20238000  0.59174000  1.0 -0.1397628966
N  N37  1  0.23490000  0.20238000  0.09174000  1.0 -0.1397628966
N  N38  1  0.26510000  0.79762000  0.59174000  1.0 -0.1397628966
N  N39  1  0.73490000  0.70238000  0.59174000  1.0 -0.1397628966
N  N40  1  0.76510000  0.29762000  0.09174000  1.0 -0.1397628966
N  N41  1  0.54000000  0.74253000  0.21444000  1.0 -0.3064402486
N  N42  1  0.96000000  0.25747000  0.71444000  1.0 -0.3064402486
N  N43  1  0.04000000  0.24253000  0.71444000  1.0 -0.3064402486
N  N44  1  0.46000000  0.75747000  0.21444000  1.0 -0.3064402486
N  N45  1  0.54000000  0.75747000  0.71444000  1.0 -0.3064402486
N  N46  1  0.96000000  0.24253000  0.21444000  1.0 -0.3064402486
N  N47  1  0.04000000  0.25747000  0.21444000  1.0 -0.3064402486
N  N48  1  0.46000000  0.74253000  0.71444000  1.0 -0.3064402486
O  O1  1  0.66820000  0.16088000  0.84683000  1.0 -0.5217833947
O  O2  1  0.83180000  0.83912000  0.34683000  1.0 -0.5217833947
O  O3  1  0.16820000  0.66088000  0.34683000  1.0 -0.5253725233
O  O4  1  0.33180000  0.33912000  0.84683000  1.0 -0.5217833947
O  O5  1  0.66820000  0.33912000  0.34683000  1.0 -0.5217833947
O  O6  1  0.83180000  0.66088000  0.84683000  1.0 -0.5217833947
O  O7  1  0.16820000  0.83912000  0.84683000  1.0 -0.5253725233
O  O8  1  0.33180000  0.16088000  0.34683000  1.0 -0.5217833947
O  O9  1  0.75240000  0.17808000  0.91880000  1.0 -0.4826742592
O  O10  1  0.74760000  0.82192000  0.41880000  1.0 -0.4826742592
O  O11  1  0.25240000  0.67808000  0.41880000  1.0 -0.4826742592
O  O12  1  0.24760000  0.32192000  0.91880000  1.0 -0.4826742592
O  O13  1  0.75240000  0.32192000  0.41880000  1.0 -0.4826742592
O  O14  1  0.74760000  0.67808000  0.91880000  1.0 -0.4826742592
O  O15  1  0.25240000  0.82192000  0.91880000  1.0 -0.4826742592
O  O16  1  0.24760000  0.17808000  0.41880000  1.0 -0.4826742592
O  O17  1  0.54380000  0.21287000  0.92474000  1.0 -0.5408156696
O  O18  1  0.95620000  0.78713000  0.42474000  1.0 -0.5408156696
O  O19  1  0.04380000  0.71287000  0.42474000  1.0 -0.5408156696
O  O20  1  0.45620000  0.28713000  0.92474000  1.0 -0.5408156696
O  O21  1  0.54380000  0.28713000  0.42474000  1.0 -0.5408156696
O  O22  1  0.95620000  0.71287000  0.92474000  1.0 -0.5408156696
O  O23  1  0.04380000  0.78713000  0.92474000  1.0 -0.5408156696
O  O24  1  0.45620000  0.21287000  0.42474000  1.0 -0.5408156696
O  O25  1  0.33180000  0.66088000  0.65317000  1.0 -0.5253725233
O  O26  1  0.16820000  0.33912000  0.15317000  1.0 -0.5217833947
O  O27  1  0.83180000  0.16088000  0.15317000  1.0 -0.5217833947
O  O28  1  0.66820000  0.83912000  0.65317000  1.0 -0.5217833947
O  O29  1  0.33180000  0.83912000  0.15317000  1.0 -0.5217833947
O  O30  1  0.16820000  0.16088000  0.65317000  1.0 -0.5217833947
O  O31  1  0.83180000  0.33912000  0.65317000  1.0 -0.5217833947
O  O32  1  0.66820000  0.66088000  0.15317000  1.0 -0.5217833947
O  O33  1  0.24760000  0.67808000  0.58120000  1.0 -0.4826742592
O  O34  1  0.25240000  0.32192000  0.08120000  1.0 -0.4826742592
O  O35  1  0.74760000  0.17808000  0.08120000  1.0 -0.4826742592
O  O36  1  0.75240000  0.82192000  0.58120000  1.0 -0.4826742592
O  O37  1  0.24760000  0.82192000  0.08120000  1.0 -0.4826742592
O  O38  1  0.25240000  0.17808000  0.58120000  1.0 -0.4826742592
O  O39  1  0.74760000  0.32192000  0.58120000  1.0 -0.4826742592
O  O40  1  0.75240000  0.67808000  0.08120000  1.0 -0.4826742592
O  O41  1  0.45620000  0.71287000  0.57526000  1.0 -0.5408156696
O  O42  1  0.04380000  0.28713000  0.07526000  1.0 -0.5408156696
O  O43  1  0.95620000  0.21287000  0.07526000  1.0 -0.5408156696
O  O44  1  0.54380000  0.78713000  0.57526000  1.0 -0.5408156696
O  O45  1  0.45620000  0.78713000  0.07526000  1.0 -0.5408156696
O  O46  1  0.04380000  0.21287000  0.57526000  1.0 -0.5408156696
O  O47  1  0.95620000  0.28713000  0.57526000  1.0 -0.5408156696
O  O48  1  0.54380000  0.71287000  0.07526000  1.0 -0.5408156696
