# DDEC6 charges by PACMAN v1.1 (https://github.com/mtap-research/PACMAN-charge/)
data_2020[Zn][nbo]3[ASR]3
_chemical_formula_sum              "Zn48 H480 C960 N48 O192"
_cell_length_a       45.61
_cell_length_b       45.61
_cell_length_c       45.61
_cell_angle_alpha    90
_cell_angle_beta     90
_cell_angle_gamma    90

_symmetry_space_group_name_H-M    "P 1"
_symmetry_Int_Tables_number       1

loop_
  _symmetry_equiv_pos_as_xyz
  'x, y, z'

loop_
  _atom_site_type_symbol
  _atom_site_label
  _atom_site_symmetry_multiplicity
  _atom_site_fract_x
  _atom_site_fract_y
  _atom_site_fract_z
  _atom_site_occupancy
  _atom_site_charge
Zn  Zn1       1.0  0.35538  0.97678  0.96826  1.0000 0.9682756168
Zn  Zn2       1.0  0.14462  0.02322  0.46826  1.0000 0.9682756168
Zn  Zn3       1.0  0.64462  0.47678  0.53174  1.0000 0.9682756168
Zn  Zn4       1.0  0.85538  0.52322  0.03174  1.0000 0.9682756168
Zn  Zn5       1.0  0.96826  0.35538  0.97678  1.0000 0.9682756168
Zn  Zn6       1.0  0.46826  0.14462  0.02322  1.0000 0.9682756168
Zn  Zn7       1.0  0.53174  0.64462  0.47678  1.0000 0.9682756168
Zn  Zn8       1.0  0.03174  0.85538  0.52322  1.0000 0.9682756168
Zn  Zn9       1.0  0.97678  0.96826  0.35538  1.0000 0.9682756168
Zn  Zn10      1.0  0.02322  0.46826  0.14462  1.0000 0.9682756168
Zn  Zn11      1.0  0.47678  0.53174  0.64462  1.0000 0.9682756168
Zn  Zn12      1.0  0.52322  0.03174  0.85538  1.0000 0.9682756168
Zn  Zn13      1.0  0.64462  0.02322  0.03174  1.0000 0.9682756168
Zn  Zn14      1.0  0.85538  0.97678  0.53174  1.0000 0.9682756168
Zn  Zn15      1.0  0.35538  0.52322  0.46826  1.0000 0.9682756168
Zn  Zn16      1.0  0.14462  0.47678  0.96826  1.0000 0.9682756168
Zn  Zn17      1.0  0.03174  0.64462  0.02322  1.0000 0.9682756168
Zn  Zn18      1.0  0.53174  0.85538  0.97678  1.0000 0.9682756168
Zn  Zn19      1.0  0.46826  0.35538  0.52322  1.0000 0.9682756168
Zn  Zn20      1.0  0.96826  0.14462  0.47678  1.0000 0.9682756168
Zn  Zn21      1.0  0.02322  0.03174  0.64462  1.0000 0.9682756168
Zn  Zn22      1.0  0.97678  0.53174  0.85538  1.0000 0.9682756168
Zn  Zn23      1.0  0.52322  0.46826  0.35538  1.0000 0.9682756168
Zn  Zn24      1.0  0.47678  0.96826  0.14462  1.0000 0.9682756168
Zn  Zn25      1.0  0.29234  0.96527  0.95545  1.0000 0.9772486515
Zn  Zn26      1.0  0.20766  0.03473  0.45545  1.0000 0.9772486515
Zn  Zn27      1.0  0.70766  0.46527  0.54455  1.0000 0.9772486515
Zn  Zn28      1.0  0.79234  0.53473  0.04455  1.0000 0.9772486515
Zn  Zn29      1.0  0.95545  0.29234  0.96527  1.0000 0.9772486515
Zn  Zn30      1.0  0.45545  0.20766  0.03473  1.0000 0.9772486515
Zn  Zn31      1.0  0.54455  0.70766  0.46527  1.0000 0.9772486515
Zn  Zn32      1.0  0.04455  0.79234  0.53473  1.0000 0.9772486515
Zn  Zn33      1.0  0.96527  0.95545  0.29234  1.0000 0.9772486515
Zn  Zn34      1.0  0.03473  0.45545  0.20766  1.0000 0.9772486515
Zn  Zn35      1.0  0.46527  0.54455  0.70766  1.0000 0.9772486515
Zn  Zn36      1.0  0.53473  0.04455  0.79234  1.0000 0.9772486515
Zn  Zn37      1.0  0.70766  0.03473  0.04455  1.0000 0.9772486515
Zn  Zn38      1.0  0.79234  0.96527  0.54455  1.0000 0.9772486515
Zn  Zn39      1.0  0.29234  0.53473  0.45545  1.0000 0.9772486515
Zn  Zn40      1.0  0.20766  0.46527  0.95545  1.0000 0.9772486515
Zn  Zn41      1.0  0.04455  0.70766  0.03473  1.0000 0.9772486515
Zn  Zn42      1.0  0.54455  0.79234  0.96527  1.0000 0.9772486515
Zn  Zn43      1.0  0.45545  0.29234  0.53473  1.0000 0.9772486515
Zn  Zn44      1.0  0.95545  0.20766  0.46527  1.0000 0.9772486515
Zn  Zn45      1.0  0.03473  0.04455  0.70766  1.0000 0.9772486515
Zn  Zn46      1.0  0.96527  0.54455  0.79234  1.0000 0.9772486515
Zn  Zn47      1.0  0.53473  0.45545  0.29234  1.0000 0.9772486515
Zn  Zn48      1.0  0.46527  0.95545  0.20766  1.0000 0.9772486515
H   H1        1.0  0.34485  0.06842  0.98685  1.0000 0.1404923563
H   H2        1.0  0.15515  0.93158  0.48685  1.0000 0.1404923563
H   H3        1.0  0.65515  0.56842  0.51315  1.0000 0.1404923563
H   H4        1.0  0.84485  0.43158  0.01315  1.0000 0.1404923563
H   H5        1.0  0.98685  0.34485  0.06842  1.0000 0.1404923563
H   H6        1.0  0.48685  0.15515  0.93158  1.0000 0.1404923563
H   H7        1.0  0.51315  0.65515  0.56842  1.0000 0.1404923563
H   H8        1.0  0.01315  0.84485  0.43158  1.0000 0.1404923563
H   H9        1.0  0.06842  0.98685  0.34485  1.0000 0.1404923563
H   H10       1.0  0.93158  0.48685  0.15515  1.0000 0.1404923563
H   H11       1.0  0.56842  0.51315  0.65515  1.0000 0.1404923563
H   H12       1.0  0.43158  0.01315  0.84485  1.0000 0.1404923563
H   H13       1.0  0.65515  0.93158  0.01315  1.0000 0.1404923563
H   H14       1.0  0.84485  0.06842  0.51315  1.0000 0.1404923563
H   H15       1.0  0.34485  0.43158  0.48685  1.0000 0.1404923563
H   H16       1.0  0.15515  0.56842  0.98685  1.0000 0.1404923563
H   H17       1.0  0.01315  0.65515  0.93158  1.0000 0.1404923563
H   H18       1.0  0.51315  0.84485  0.06842  1.0000 0.1404923563
H   H19       1.0  0.48685  0.34485  0.43158  1.0000 0.1404923563
H   H20       1.0  0.98685  0.15515  0.56842  1.0000 0.1404923563
H   H21       1.0  0.93158  0.01315  0.65515  1.0000 0.1404923563
H   H22       1.0  0.06842  0.51315  0.84485  1.0000 0.1404923563
H   H23       1.0  0.43158  0.48685  0.34485  1.0000 0.1404923563
H   H24       1.0  0.56842  0.98685  0.15515  1.0000 0.1404923563
H   H25       1.0  0.25104  0.10429  0.96583  1.0000 0.130440276
H   H26       1.0  0.24896  0.89571  0.46583  1.0000 0.130440276
H   H27       1.0  0.74896  0.60429  0.53417  1.0000 0.130440276
H   H28       1.0  0.75104  0.39571  0.03417  1.0000 0.130440276
H   H29       1.0  0.96583  0.25104  0.10429  1.0000 0.130440276
H   H30       1.0  0.46583  0.24896  0.89571  1.0000 0.130440276
H   H31       1.0  0.53417  0.74896  0.60429  1.0000 0.130440276
H   H32       1.0  0.03417  0.75104  0.39571  1.0000 0.130440276
H   H33       1.0  0.10429  0.96583  0.25104  1.0000 0.130440276
H   H34       1.0  0.89571  0.46583  0.24896  1.0000 0.130440276
H   H35       1.0  0.60429  0.53417  0.74896  1.0000 0.130440276
H   H36       1.0  0.39571  0.03417  0.75104  1.0000 0.130440276
H   H37       1.0  0.74896  0.89571  0.03417  1.0000 0.130440276
H   H38       1.0  0.75104  0.10429  0.53417  1.0000 0.130440276
H   H39       1.0  0.25104  0.39571  0.46583  1.0000 0.130440276
H   H40       1.0  0.24896  0.60429  0.96583  1.0000 0.130440276
H   H41       1.0  0.03417  0.74896  0.89571  1.0000 0.130440276
H   H42       1.0  0.53417  0.75104  0.10429  1.0000 0.130440276
H   H43       1.0  0.46583  0.25104  0.39571  1.0000 0.130440276
H   H44       1.0  0.96583  0.24896  0.60429  1.0000 0.130440276
H   H45       1.0  0.89571  0.03417  0.74896  1.0000 0.130440276
H   H46       1.0  0.10429  0.53417  0.75104  1.0000 0.130440276
H   H47       1.0  0.39571  0.46583  0.25104  1.0000 0.130440276
H   H48       1.0  0.60429  0.96583  0.24896  1.0000 0.130440276
H   H49       1.0  0.26211  0.05492  0.95738  1.0000 0.130440276
H   H50       1.0  0.23789  0.94508  0.45738  1.0000 0.130440276
H   H51       1.0  0.73789  0.55492  0.54262  1.0000 0.130440276
H   H52       1.0  0.76211  0.44508  0.04262  1.0000 0.130440276
H   H53       1.0  0.95738  0.26211  0.05492  1.0000 0.130440276
H   H54       1.0  0.45738  0.23789  0.94508  1.0000 0.130440276
H   H55       1.0  0.54262  0.73789  0.55492  1.0000 0.130440276
H   H56       1.0  0.04262  0.76211  0.44508  1.0000 0.130440276
H   H57       1.0  0.05492  0.95738  0.26211  1.0000 0.130440276
H   H58       1.0  0.94508  0.45738  0.23789  1.0000 0.130440276
H   H59       1.0  0.55492  0.54262  0.73789  1.0000 0.130440276
H   H60       1.0  0.44508  0.04262  0.76211  1.0000 0.130440276
H   H61       1.0  0.73789  0.94508  0.04262  1.0000 0.130440276
H   H62       1.0  0.76211  0.05492  0.54262  1.0000 0.130440276
H   H63       1.0  0.26211  0.44508  0.45738  1.0000 0.130440276
H   H64       1.0  0.23789  0.55492  0.95738  1.0000 0.130440276
H   H65       1.0  0.04262  0.73789  0.94508  1.0000 0.130440276
H   H66       1.0  0.54262  0.76211  0.05492  1.0000 0.130440276
H   H67       1.0  0.45738  0.26211  0.44508  1.0000 0.130440276
H   H68       1.0  0.95738  0.23789  0.55492  1.0000 0.130440276
H   H69       1.0  0.94508  0.04262  0.73789  1.0000 0.130440276
H   H70       1.0  0.05492  0.54262  0.76211  1.0000 0.130440276
H   H71       1.0  0.44508  0.45738  0.26211  1.0000 0.130440276
H   H72       1.0  0.55492  0.95738  0.23789  1.0000 0.130440276
H   H73       1.0  0.37855  0.11861  0.00594  1.0000 0.1404923563
H   H74       1.0  0.12145  0.88139  0.50594  1.0000 0.1404923563
H   H75       1.0  0.62145  0.61861  0.49406  1.0000 0.1404923563
H   H76       1.0  0.87855  0.38139  0.99406  1.0000 0.1404923563
H   H77       1.0  0.00594  0.37855  0.11861  1.0000 0.1404923563
H   H78       1.0  0.50594  0.12145  0.88139  1.0000 0.1404923563
H   H79       1.0  0.49406  0.62145  0.61861  1.0000 0.1404923563
H   H80       1.0  0.99406  0.87855  0.38139  1.0000 0.1404923563
H   H81       1.0  0.11861  0.00594  0.37855  1.0000 0.1404923563
H   H82       1.0  0.88139  0.50594  0.12145  1.0000 0.1404923563
H   H83       1.0  0.61861  0.49406  0.62145  1.0000 0.1404923563
H   H84       1.0  0.38139  0.99406  0.87855  1.0000 0.1404923563
H   H85       1.0  0.62145  0.88139  0.99406  1.0000 0.1404923563
H   H86       1.0  0.87855  0.11861  0.49406  1.0000 0.1404923563
H   H87       1.0  0.37855  0.38139  0.50594  1.0000 0.1404923563
H   H88       1.0  0.12145  0.61861  0.00594  1.0000 0.1404923563
H   H89       1.0  0.99406  0.62145  0.88139  1.0000 0.1404923563
H   H90       1.0  0.49406  0.87855  0.11861  1.0000 0.1404923563
H   H91       1.0  0.50594  0.37855  0.38139  1.0000 0.1404923563
H   H92       1.0  0.00594  0.12145  0.61861  1.0000 0.1404923563
H   H93       1.0  0.88139  0.99406  0.62145  1.0000 0.1404923563
H   H94       1.0  0.11861  0.49406  0.87855  1.0000 0.1404923563
H   H95       1.0  0.38139  0.50594  0.37855  1.0000 0.1404923563
H   H96       1.0  0.61861  0.00594  0.12145  1.0000 0.1404923563
H   H97       1.0  0.31394  0.19832  0.00487  1.0000 0.130440276
H   H98       1.0  0.18606  0.80168  0.50487  1.0000 0.130440276
H   H99       1.0  0.68606  0.69832  0.49513  1.0000 0.130440276
H   H100      1.0  0.81394  0.30168  0.99513  1.0000 0.130440276
H   H101      1.0  0.00487  0.31394  0.19832  1.0000 0.130440276
H   H102      1.0  0.50487  0.18606  0.80168  1.0000 0.130440276
H   H103      1.0  0.49513  0.68606  0.69832  1.0000 0.130440276
H   H104      1.0  0.99513  0.81394  0.30168  1.0000 0.130440276
H   H105      1.0  0.19832  0.00487  0.31394  1.0000 0.130440276
H   H106      1.0  0.80168  0.50487  0.18606  1.0000 0.130440276
H   H107      1.0  0.69832  0.49513  0.68606  1.0000 0.130440276
H   H108      1.0  0.30168  0.99513  0.81394  1.0000 0.130440276
H   H109      1.0  0.68606  0.80168  0.99513  1.0000 0.130440276
H   H110      1.0  0.81394  0.19832  0.49513  1.0000 0.130440276
H   H111      1.0  0.31394  0.30168  0.50487  1.0000 0.130440276
H   H112      1.0  0.18606  0.69832  0.00487  1.0000 0.130440276
H   H113      1.0  0.99513  0.68606  0.80168  1.0000 0.130440276
H   H114      1.0  0.49513  0.81394  0.19832  1.0000 0.130440276
H   H115      1.0  0.50487  0.31394  0.30168  1.0000 0.130440276
H   H116      1.0  0.00487  0.18606  0.69832  1.0000 0.130440276
H   H117      1.0  0.80168  0.99513  0.68606  1.0000 0.130440276
H   H118      1.0  0.19832  0.49513  0.81394  1.0000 0.130440276
H   H119      1.0  0.30168  0.50487  0.31394  1.0000 0.130440276
H   H120      1.0  0.69832  0.00487  0.18606  1.0000 0.130440276
H   H121      1.0  0.36275  0.20504  0.01919  1.0000 0.130440276
H   H122      1.0  0.13725  0.79496  0.51919  1.0000 0.130440276
H   H123      1.0  0.63725  0.70504  0.48081  1.0000 0.130440276
H   H124      1.0  0.86275  0.29496  0.98081  1.0000 0.130440276
H   H125      1.0  0.01919  0.36275  0.20504  1.0000 0.130440276
H   H126      1.0  0.51919  0.13725  0.79496  1.0000 0.130440276
H   H127      1.0  0.48081  0.63725  0.70504  1.0000 0.130440276
H   H128      1.0  0.98081  0.86275  0.29496  1.0000 0.130440276
H   H129      1.0  0.20504  0.01919  0.36275  1.0000 0.130440276
H   H130      1.0  0.79496  0.51919  0.13725  1.0000 0.130440276
H   H131      1.0  0.70504  0.48081  0.63725  1.0000 0.130440276
H   H132      1.0  0.29496  0.98081  0.86275  1.0000 0.130440276
H   H133      1.0  0.63725  0.79496  0.98081  1.0000 0.130440276
H   H134      1.0  0.86275  0.20504  0.48081  1.0000 0.130440276
H   H135      1.0  0.36275  0.29496  0.51919  1.0000 0.130440276
H   H136      1.0  0.13725  0.70504  0.01919  1.0000 0.130440276
H   H137      1.0  0.98081  0.63725  0.79496  1.0000 0.130440276
H   H138      1.0  0.48081  0.86275  0.20504  1.0000 0.130440276
H   H139      1.0  0.51919  0.36275  0.29496  1.0000 0.130440276
H   H140      1.0  0.01919  0.13725  0.70504  1.0000 0.130440276
H   H141      1.0  0.79496  0.98081  0.63725  1.0000 0.130440276
H   H142      1.0  0.20504  0.48081  0.86275  1.0000 0.130440276
H   H143      1.0  0.29496  0.51919  0.36275  1.0000 0.130440276
H   H144      1.0  0.70504  0.01919  0.13725  1.0000 0.130440276
H   H145      1.0  0.38703  0.95800  0.11337  1.0000 0.1404923563
H   H146      1.0  0.11297  0.04200  0.61337  1.0000 0.1404923563
H   H147      1.0  0.61297  0.45800  0.38663  1.0000 0.1404923563
H   H148      1.0  0.88703  0.54200  0.88663  1.0000 0.1404923563
H   H149      1.0  0.11337  0.38703  0.95800  1.0000 0.1404923563
H   H150      1.0  0.61337  0.11297  0.04200  1.0000 0.1404923563
H   H151      1.0  0.38663  0.61297  0.45800  1.0000 0.1404923563
H   H152      1.0  0.88663  0.88703  0.54200  1.0000 0.1404923563
H   H153      1.0  0.95800  0.11337  0.38703  1.0000 0.1404923563
H   H154      1.0  0.04200  0.61337  0.11297  1.0000 0.1404923563
H   H155      1.0  0.45800  0.38663  0.61297  1.0000 0.1404923563
H   H156      1.0  0.54200  0.88663  0.88703  1.0000 0.1404923563
H   H157      1.0  0.61297  0.04200  0.88663  1.0000 0.1404923563
H   H158      1.0  0.88703  0.95800  0.38663  1.0000 0.1404923563
H   H159      1.0  0.38703  0.54200  0.61337  1.0000 0.1404923563
H   H160      1.0  0.11297  0.45800  0.11337  1.0000 0.1404923563
H   H161      1.0  0.88663  0.61297  0.04200  1.0000 0.1404923563
H   H162      1.0  0.38663  0.88703  0.95800  1.0000 0.1404923563
H   H163      1.0  0.61337  0.38703  0.54200  1.0000 0.1404923563
H   H164      1.0  0.11337  0.11297  0.45800  1.0000 0.1404923563
H   H165      1.0  0.04200  0.88663  0.61297  1.0000 0.1404923563
H   H166      1.0  0.95800  0.38663  0.88703  1.0000 0.1404923563
H   H167      1.0  0.54200  0.61337  0.38703  1.0000 0.1404923563
H   H168      1.0  0.45800  0.11337  0.11297  1.0000 0.1404923563
H   H169      1.0  0.32173  0.95310  0.19236  1.0000 0.130440276
H   H170      1.0  0.17827  0.04690  0.69236  1.0000 0.130440276
H   H171      1.0  0.67827  0.45310  0.30764  1.0000 0.130440276
H   H172      1.0  0.82173  0.54690  0.80764  1.0000 0.130440276
H   H173      1.0  0.19236  0.32173  0.95310  1.0000 0.130440276
H   H174      1.0  0.69236  0.17827  0.04690  1.0000 0.130440276
H   H175      1.0  0.30764  0.67827  0.45310  1.0000 0.130440276
H   H176      1.0  0.80764  0.82173  0.54690  1.0000 0.130440276
H   H177      1.0  0.95310  0.19236  0.32173  1.0000 0.130440276
H   H178      1.0  0.04690  0.69236  0.17827  1.0000 0.130440276
H   H179      1.0  0.45310  0.30764  0.67827  1.0000 0.130440276
H   H180      1.0  0.54690  0.80764  0.82173  1.0000 0.130440276
H   H181      1.0  0.67827  0.04690  0.80764  1.0000 0.130440276
H   H182      1.0  0.82173  0.95310  0.30764  1.0000 0.130440276
H   H183      1.0  0.32173  0.54690  0.69236  1.0000 0.130440276
H   H184      1.0  0.17827  0.45310  0.19236  1.0000 0.130440276
H   H185      1.0  0.80764  0.67827  0.04690  1.0000 0.130440276
H   H186      1.0  0.30764  0.82173  0.95310  1.0000 0.130440276
H   H187      1.0  0.69236  0.32173  0.54690  1.0000 0.130440276
H   H188      1.0  0.19236  0.17827  0.45310  1.0000 0.130440276
H   H189      1.0  0.04690  0.80764  0.67827  1.0000 0.130440276
H   H190      1.0  0.95310  0.30764  0.82173  1.0000 0.130440276
H   H191      1.0  0.54690  0.69236  0.32173  1.0000 0.130440276
H   H192      1.0  0.45310  0.19236  0.17827  1.0000 0.130440276
H   H193      1.0  0.37231  0.95399  0.20091  1.0000 0.130440276
H   H194      1.0  0.12769  0.04601  0.70091  1.0000 0.130440276
H   H195      1.0  0.62769  0.45399  0.29909  1.0000 0.130440276
H   H196      1.0  0.87231  0.54601  0.79909  1.0000 0.130440276
H   H197      1.0  0.20091  0.37231  0.95399  1.0000 0.130440276
H   H198      1.0  0.70091  0.12769  0.04601  1.0000 0.130440276
H   H199      1.0  0.29909  0.62769  0.45399  1.0000 0.130440276
H   H200      1.0  0.79909  0.87231  0.54601  1.0000 0.130440276
H   H201      1.0  0.95399  0.20091  0.37231  1.0000 0.130440276
H   H202      1.0  0.04601  0.70091  0.12769  1.0000 0.130440276
H   H203      1.0  0.45399  0.29909  0.62769  1.0000 0.130440276
H   H204      1.0  0.54601  0.79909  0.87231  1.0000 0.130440276
H   H205      1.0  0.62769  0.04601  0.79909  1.0000 0.130440276
H   H206      1.0  0.87231  0.95399  0.29909  1.0000 0.130440276
H   H207      1.0  0.37231  0.54601  0.70091  1.0000 0.130440276
H   H208      1.0  0.12769  0.45399  0.20091  1.0000 0.130440276
H   H209      1.0  0.79909  0.62769  0.04601  1.0000 0.130440276
H   H210      1.0  0.29909  0.87231  0.95399  1.0000 0.130440276
H   H211      1.0  0.70091  0.37231  0.54601  1.0000 0.130440276
H   H212      1.0  0.20091  0.12769  0.45399  1.0000 0.130440276
H   H213      1.0  0.04601  0.79909  0.62769  1.0000 0.130440276
H   H214      1.0  0.95399  0.29909  0.87231  1.0000 0.130440276
H   H215      1.0  0.54601  0.70091  0.37231  1.0000 0.130440276
H   H216      1.0  0.45399  0.20091  0.12769  1.0000 0.130440276
H   H217      1.0  0.26317  0.96201  0.04472  1.0000 0.130440276
H   H218      1.0  0.23683  0.03799  0.54472  1.0000 0.130440276
H   H219      1.0  0.73683  0.46201  0.45528  1.0000 0.130440276
H   H220      1.0  0.76317  0.53799  0.95528  1.0000 0.130440276
H   H221      1.0  0.04472  0.26317  0.96201  1.0000 0.130440276
H   H222      1.0  0.54472  0.23683  0.03799  1.0000 0.130440276
H   H223      1.0  0.45528  0.73683  0.46201  1.0000 0.130440276
H   H224      1.0  0.95528  0.76317  0.53799  1.0000 0.130440276
H   H225      1.0  0.96201  0.04472  0.26317  1.0000 0.130440276
H   H226      1.0  0.03799  0.54472  0.23683  1.0000 0.130440276
H   H227      1.0  0.46201  0.45528  0.73683  1.0000 0.130440276
H   H228      1.0  0.53799  0.95528  0.76317  1.0000 0.130440276
H   H229      1.0  0.73683  0.03799  0.95528  1.0000 0.130440276
H   H230      1.0  0.76317  0.96201  0.45528  1.0000 0.130440276
H   H231      1.0  0.26317  0.53799  0.54472  1.0000 0.130440276
H   H232      1.0  0.23683  0.46201  0.04472  1.0000 0.130440276
H   H233      1.0  0.95528  0.73683  0.03799  1.0000 0.130440276
H   H234      1.0  0.45528  0.76317  0.96201  1.0000 0.130440276
H   H235      1.0  0.54472  0.26317  0.53799  1.0000 0.130440276
H   H236      1.0  0.04472  0.23683  0.46201  1.0000 0.130440276
H   H237      1.0  0.03799  0.95528  0.73683  1.0000 0.130440276
H   H238      1.0  0.96201  0.45528  0.76317  1.0000 0.130440276
H   H239      1.0  0.53799  0.54472  0.26317  1.0000 0.130440276
H   H240      1.0  0.46201  0.04472  0.23683  1.0000 0.130440276
H   H241      1.0  0.25359  0.95790  0.09495  1.0000 0.130440276
H   H242      1.0  0.24641  0.04210  0.59495  1.0000 0.130440276
H   H243      1.0  0.74641  0.45790  0.40505  1.0000 0.130440276
H   H244      1.0  0.75359  0.54210  0.90505  1.0000 0.130440276
H   H245      1.0  0.09495  0.25359  0.95790  1.0000 0.130440276
H   H246      1.0  0.59495  0.24641  0.04210  1.0000 0.130440276
H   H247      1.0  0.40505  0.74641  0.45790  1.0000 0.130440276
H   H248      1.0  0.90505  0.75359  0.54210  1.0000 0.130440276
H   H249      1.0  0.95790  0.09495  0.25359  1.0000 0.130440276
H   H250      1.0  0.04210  0.59495  0.24641  1.0000 0.130440276
H   H251      1.0  0.45790  0.40505  0.74641  1.0000 0.130440276
H   H252      1.0  0.54210  0.90505  0.75359  1.0000 0.130440276
H   H253      1.0  0.74641  0.04210  0.90505  1.0000 0.130440276
H   H254      1.0  0.75359  0.95790  0.40505  1.0000 0.130440276
H   H255      1.0  0.25359  0.54210  0.59495  1.0000 0.130440276
H   H256      1.0  0.24641  0.45790  0.09495  1.0000 0.130440276
H   H257      1.0  0.90505  0.74641  0.04210  1.0000 0.130440276
H   H258      1.0  0.40505  0.75359  0.95790  1.0000 0.130440276
H   H259      1.0  0.59495  0.25359  0.54210  1.0000 0.130440276
H   H260      1.0  0.09495  0.24641  0.45790  1.0000 0.130440276
H   H261      1.0  0.04210  0.90505  0.74641  1.0000 0.130440276
H   H262      1.0  0.95790  0.40505  0.75359  1.0000 0.130440276
H   H263      1.0  0.54210  0.59495  0.25359  1.0000 0.130440276
H   H264      1.0  0.45790  0.09495  0.24641  1.0000 0.130440276
H   H265      1.0  0.35047  0.96143  0.06131  1.0000 0.1404923563
H   H266      1.0  0.14953  0.03857  0.56131  1.0000 0.1404923563
H   H267      1.0  0.64953  0.46143  0.43869  1.0000 0.1404923563
H   H268      1.0  0.85047  0.53857  0.93869  1.0000 0.1404923563
H   H269      1.0  0.06131  0.35047  0.96143  1.0000 0.1404923563
H   H270      1.0  0.56131  0.14953  0.03857  1.0000 0.1404923563
H   H271      1.0  0.43869  0.64953  0.46143  1.0000 0.1404923563
H   H272      1.0  0.93869  0.85047  0.53857  1.0000 0.1404923563
H   H273      1.0  0.96143  0.06131  0.35047  1.0000 0.1404923563
H   H274      1.0  0.03857  0.56131  0.14953  1.0000 0.1404923563
H   H275      1.0  0.46143  0.43869  0.64953  1.0000 0.1404923563
H   H276      1.0  0.53857  0.93869  0.85047  1.0000 0.1404923563
H   H277      1.0  0.64953  0.03857  0.93869  1.0000 0.1404923563
H   H278      1.0  0.85047  0.96143  0.43869  1.0000 0.1404923563
H   H279      1.0  0.35047  0.53857  0.56131  1.0000 0.1404923563
H   H280      1.0  0.14953  0.46143  0.06131  1.0000 0.1404923563
H   H281      1.0  0.93869  0.64953  0.03857  1.0000 0.1404923563
H   H282      1.0  0.43869  0.85047  0.96143  1.0000 0.1404923563
H   H283      1.0  0.56131  0.35047  0.53857  1.0000 0.1404923563
H   H284      1.0  0.06131  0.14953  0.46143  1.0000 0.1404923563
H   H285      1.0  0.03857  0.93869  0.64953  1.0000 0.1404923563
H   H286      1.0  0.96143  0.43869  0.85047  1.0000 0.1404923563
H   H287      1.0  0.53857  0.56131  0.35047  1.0000 0.1404923563
H   H288      1.0  0.46143  0.06131  0.14953  1.0000 0.1404923563
H   H289      1.0  0.21973  0.00268  0.17521  1.0000 0.1118304427
H   H290      1.0  0.28027  0.99732  0.67521  1.0000 0.1118304427
H   H291      1.0  0.78027  0.50268  0.32479  1.0000 0.1118304427
H   H292      1.0  0.71973  0.49732  0.82479  1.0000 0.1118304427
H   H293      1.0  0.17521  0.21973  0.00268  1.0000 0.1118304427
H   H294      1.0  0.67521  0.28027  0.99732  1.0000 0.1118304427
H   H295      1.0  0.32479  0.78027  0.50268  1.0000 0.1118304427
H   H296      1.0  0.82479  0.71973  0.49732  1.0000 0.1118304427
H   H297      1.0  0.00268  0.17521  0.21973  1.0000 0.1118304427
H   H298      1.0  0.99732  0.67521  0.28027  1.0000 0.1118304427
H   H299      1.0  0.50268  0.32479  0.78027  1.0000 0.1118304427
H   H300      1.0  0.49732  0.82479  0.71973  1.0000 0.1118304427
H   H301      1.0  0.78027  0.99732  0.82479  1.0000 0.1118304427
H   H302      1.0  0.71973  0.00268  0.32479  1.0000 0.1118304427
H   H303      1.0  0.21973  0.49732  0.67521  1.0000 0.1118304427
H   H304      1.0  0.28027  0.50268  0.17521  1.0000 0.1118304427
H   H305      1.0  0.82479  0.78027  0.99732  1.0000 0.1118304427
H   H306      1.0  0.32479  0.71973  0.00268  1.0000 0.1118304427
H   H307      1.0  0.67521  0.21973  0.49732  1.0000 0.1118304427
H   H308      1.0  0.17521  0.28027  0.50268  1.0000 0.1118304427
H   H309      1.0  0.99732  0.82479  0.78027  1.0000 0.1118304427
H   H310      1.0  0.00268  0.32479  0.71973  1.0000 0.1118304427
H   H311      1.0  0.49732  0.67521  0.21973  1.0000 0.1118304427
H   H312      1.0  0.50268  0.17521  0.28027  1.0000 0.1118304427
H   H313      1.0  0.25853  0.99684  0.14215  1.0000 0.130440276
H   H314      1.0  0.24147  0.00316  0.64215  1.0000 0.130440276
H   H315      1.0  0.74147  0.49684  0.35785  1.0000 0.130440276
H   H316      1.0  0.75853  0.50316  0.85785  1.0000 0.130440276
H   H317      1.0  0.14215  0.25853  0.99684  1.0000 0.130440276
H   H318      1.0  0.64215  0.24147  0.00316  1.0000 0.130440276
H   H319      1.0  0.35785  0.74147  0.49684  1.0000 0.130440276
H   H320      1.0  0.85785  0.75853  0.50316  1.0000 0.130440276
H   H321      1.0  0.99684  0.14215  0.25853  1.0000 0.130440276
H   H322      1.0  0.00316  0.64215  0.24147  1.0000 0.130440276
H   H323      1.0  0.49684  0.35785  0.74147  1.0000 0.130440276
H   H324      1.0  0.50316  0.85785  0.75853  1.0000 0.130440276
H   H325      1.0  0.74147  0.00316  0.85785  1.0000 0.130440276
H   H326      1.0  0.75853  0.99684  0.35785  1.0000 0.130440276
H   H327      1.0  0.25853  0.50316  0.64215  1.0000 0.130440276
H   H328      1.0  0.24147  0.49684  0.14215  1.0000 0.130440276
H   H329      1.0  0.85785  0.74147  0.00316  1.0000 0.130440276
H   H330      1.0  0.35785  0.75853  0.99684  1.0000 0.130440276
H   H331      1.0  0.64215  0.25853  0.50316  1.0000 0.130440276
H   H332      1.0  0.14215  0.24147  0.49684  1.0000 0.130440276
H   H333      1.0  0.00316  0.85785  0.74147  1.0000 0.130440276
H   H334      1.0  0.99684  0.35785  0.75853  1.0000 0.130440276
H   H335      1.0  0.50316  0.64215  0.25853  1.0000 0.130440276
H   H336      1.0  0.49684  0.14215  0.24147  1.0000 0.130440276
H   H337      1.0  0.27732  0.91781  0.17818  1.0000 0.130440276
H   H338      1.0  0.22268  0.08219  0.67818  1.0000 0.130440276
H   H339      1.0  0.72268  0.41781  0.32182  1.0000 0.130440276
H   H340      1.0  0.77732  0.58219  0.82182  1.0000 0.130440276
H   H341      1.0  0.17818  0.27732  0.91781  1.0000 0.130440276
H   H342      1.0  0.67818  0.22268  0.08219  1.0000 0.130440276
H   H343      1.0  0.32182  0.72268  0.41781  1.0000 0.130440276
H   H344      1.0  0.82182  0.77732  0.58219  1.0000 0.130440276
H   H345      1.0  0.91781  0.17818  0.27732  1.0000 0.130440276
H   H346      1.0  0.08219  0.67818  0.22268  1.0000 0.130440276
H   H347      1.0  0.41781  0.32182  0.72268  1.0000 0.130440276
H   H348      1.0  0.58219  0.82182  0.77732  1.0000 0.130440276
H   H349      1.0  0.72268  0.08219  0.82182  1.0000 0.130440276
H   H350      1.0  0.77732  0.91781  0.32182  1.0000 0.130440276
H   H351      1.0  0.27732  0.58219  0.67818  1.0000 0.130440276
H   H352      1.0  0.22268  0.41781  0.17818  1.0000 0.130440276
H   H353      1.0  0.82182  0.72268  0.08219  1.0000 0.130440276
H   H354      1.0  0.32182  0.77732  0.91781  1.0000 0.130440276
H   H355      1.0  0.67818  0.27732  0.58219  1.0000 0.130440276
H   H356      1.0  0.17818  0.22268  0.41781  1.0000 0.130440276
H   H357      1.0  0.08219  0.82182  0.72268  1.0000 0.130440276
H   H358      1.0  0.91781  0.32182  0.77732  1.0000 0.130440276
H   H359      1.0  0.58219  0.67818  0.27732  1.0000 0.130440276
H   H360      1.0  0.41781  0.17818  0.22268  1.0000 0.130440276
H   H361      1.0  0.23853  0.92365  0.21124  1.0000 0.1118304427
H   H362      1.0  0.26147  0.07635  0.71124  1.0000 0.1118304427
H   H363      1.0  0.76147  0.42365  0.28876  1.0000 0.1118304427
H   H364      1.0  0.73853  0.57635  0.78876  1.0000 0.1118304427
H   H365      1.0  0.21124  0.23853  0.92365  1.0000 0.1118304427
H   H366      1.0  0.71124  0.26147  0.07635  1.0000 0.1118304427
H   H367      1.0  0.28876  0.76147  0.42365  1.0000 0.1118304427
H   H368      1.0  0.78876  0.73853  0.57635  1.0000 0.1118304427
H   H369      1.0  0.92365  0.21124  0.23853  1.0000 0.1118304427
H   H370      1.0  0.07635  0.71124  0.26147  1.0000 0.1118304427
H   H371      1.0  0.42365  0.28876  0.76147  1.0000 0.1118304427
H   H372      1.0  0.57635  0.78876  0.73853  1.0000 0.1118304427
H   H373      1.0  0.76147  0.07635  0.78876  1.0000 0.1118304427
H   H374      1.0  0.73853  0.92365  0.28876  1.0000 0.1118304427
H   H375      1.0  0.23853  0.57635  0.71124  1.0000 0.1118304427
H   H376      1.0  0.26147  0.42365  0.21124  1.0000 0.1118304427
H   H377      1.0  0.78876  0.76147  0.07635  1.0000 0.1118304427
H   H378      1.0  0.28876  0.73853  0.92365  1.0000 0.1118304427
H   H379      1.0  0.71124  0.23853  0.57635  1.0000 0.1118304427
H   H380      1.0  0.21124  0.26147  0.42365  1.0000 0.1118304427
H   H381      1.0  0.07635  0.78876  0.76147  1.0000 0.1118304427
H   H382      1.0  0.92365  0.28876  0.73853  1.0000 0.1118304427
H   H383      1.0  0.57635  0.71124  0.23853  1.0000 0.1118304427
H   H384      1.0  0.42365  0.21124  0.26147  1.0000 0.1118304427
H   H385      1.0  0.28647  0.18847  0.94629  1.0000 0.1404923563
H   H386      1.0  0.21353  0.81153  0.44629  1.0000 0.1404923563
H   H387      1.0  0.71353  0.68847  0.55371  1.0000 0.1404923563
H   H388      1.0  0.78647  0.31153  0.05371  1.0000 0.1404923563
H   H389      1.0  0.94629  0.28647  0.18847  1.0000 0.1404923563
H   H390      1.0  0.44629  0.21353  0.81153  1.0000 0.1404923563
H   H391      1.0  0.55371  0.71353  0.68847  1.0000 0.1404923563
H   H392      1.0  0.05371  0.78647  0.31153  1.0000 0.1404923563
H   H393      1.0  0.18847  0.94629  0.28647  1.0000 0.1404923563
H   H394      1.0  0.81153  0.44629  0.21353  1.0000 0.1404923563
H   H395      1.0  0.68847  0.55371  0.71353  1.0000 0.1404923563
H   H396      1.0  0.31153  0.05371  0.78647  1.0000 0.1404923563
H   H397      1.0  0.71353  0.81153  0.05371  1.0000 0.1404923563
H   H398      1.0  0.78647  0.18847  0.55371  1.0000 0.1404923563
H   H399      1.0  0.28647  0.31153  0.44629  1.0000 0.1404923563
H   H400      1.0  0.21353  0.68847  0.94629  1.0000 0.1404923563
H   H401      1.0  0.05371  0.71353  0.81153  1.0000 0.1404923563
H   H402      1.0  0.55371  0.78647  0.18847  1.0000 0.1404923563
H   H403      1.0  0.44629  0.28647  0.31153  1.0000 0.1404923563
H   H404      1.0  0.94629  0.21353  0.68847  1.0000 0.1404923563
H   H405      1.0  0.81153  0.05371  0.71353  1.0000 0.1404923563
H   H406      1.0  0.18847  0.55371  0.78647  1.0000 0.1404923563
H   H407      1.0  0.31153  0.44629  0.28647  1.0000 0.1404923563
H   H408      1.0  0.68847  0.94629  0.21353  1.0000 0.1404923563
H   H409      1.0  0.24749  0.22111  0.93936  1.0000 0.1118304427
H   H410      1.0  0.25251  0.77889  0.43936  1.0000 0.1118304427
H   H411      1.0  0.75251  0.72111  0.56064  1.0000 0.1118304427
H   H412      1.0  0.74749  0.27889  0.06064  1.0000 0.1118304427
H   H413      1.0  0.93936  0.24749  0.22111  1.0000 0.1118304427
H   H414      1.0  0.43936  0.25251  0.77889  1.0000 0.1118304427
H   H415      1.0  0.56064  0.75251  0.72111  1.0000 0.1118304427
H   H416      1.0  0.06064  0.74749  0.27889  1.0000 0.1118304427
H   H417      1.0  0.22111  0.93936  0.24749  1.0000 0.1118304427
H   H418      1.0  0.77889  0.43936  0.25251  1.0000 0.1118304427
H   H419      1.0  0.72111  0.56064  0.75251  1.0000 0.1118304427
H   H420      1.0  0.27889  0.06064  0.74749  1.0000 0.1118304427
H   H421      1.0  0.75251  0.77889  0.06064  1.0000 0.1118304427
H   H422      1.0  0.74749  0.22111  0.56064  1.0000 0.1118304427
H   H423      1.0  0.24749  0.27889  0.43936  1.0000 0.1118304427
H   H424      1.0  0.25251  0.72111  0.93936  1.0000 0.1118304427
H   H425      1.0  0.06064  0.75251  0.77889  1.0000 0.1118304427
H   H426      1.0  0.56064  0.74749  0.22111  1.0000 0.1118304427
H   H427      1.0  0.43936  0.24749  0.27889  1.0000 0.1118304427
H   H428      1.0  0.93936  0.25251  0.72111  1.0000 0.1118304427
H   H429      1.0  0.77889  0.06064  0.75251  1.0000 0.1118304427
H   H430      1.0  0.22111  0.56064  0.74749  1.0000 0.1118304427
H   H431      1.0  0.27889  0.43936  0.24749  1.0000 0.1118304427
H   H432      1.0  0.72111  0.93936  0.25251  1.0000 0.1118304427
H   H433      1.0  0.20269  0.18155  0.00512  1.0000 0.1118304427
H   H434      1.0  0.29731  0.81845  0.50512  1.0000 0.1118304427
H   H435      1.0  0.79731  0.68155  0.49488  1.0000 0.1118304427
H   H436      1.0  0.70269  0.31845  0.99488  1.0000 0.1118304427
H   H437      1.0  0.00512  0.20269  0.18155  1.0000 0.1118304427
H   H438      1.0  0.50512  0.29731  0.81845  1.0000 0.1118304427
H   H439      1.0  0.49488  0.79731  0.68155  1.0000 0.1118304427
H   H440      1.0  0.99488  0.70269  0.31845  1.0000 0.1118304427
H   H441      1.0  0.18155  0.00512  0.20269  1.0000 0.1118304427
H   H442      1.0  0.81845  0.50512  0.29731  1.0000 0.1118304427
H   H443      1.0  0.68155  0.49488  0.79731  1.0000 0.1118304427
H   H444      1.0  0.31845  0.99488  0.70269  1.0000 0.1118304427
H   H445      1.0  0.79731  0.81845  0.99488  1.0000 0.1118304427
H   H446      1.0  0.70269  0.18155  0.49488  1.0000 0.1118304427
H   H447      1.0  0.20269  0.31845  0.50512  1.0000 0.1118304427
H   H448      1.0  0.29731  0.68155  0.00512  1.0000 0.1118304427
H   H449      1.0  0.99488  0.79731  0.81845  1.0000 0.1118304427
H   H450      1.0  0.49488  0.70269  0.18155  1.0000 0.1118304427
H   H451      1.0  0.50512  0.20269  0.31845  1.0000 0.1118304427
H   H452      1.0  0.00512  0.29731  0.68155  1.0000 0.1118304427
H   H453      1.0  0.81845  0.99488  0.79731  1.0000 0.1118304427
H   H454      1.0  0.18155  0.49488  0.70269  1.0000 0.1118304427
H   H455      1.0  0.31845  0.50512  0.20269  1.0000 0.1118304427
H   H456      1.0  0.68155  0.00512  0.29731  1.0000 0.1118304427
H   H457      1.0  0.24166  0.14892  0.01205  1.0000 0.1404923563
H   H458      1.0  0.25834  0.85108  0.51205  1.0000 0.1404923563
H   H459      1.0  0.75834  0.64892  0.48795  1.0000 0.1404923563
H   H460      1.0  0.74166  0.35108  0.98795  1.0000 0.1404923563
H   H461      1.0  0.01205  0.24166  0.14892  1.0000 0.1404923563
H   H462      1.0  0.51205  0.25834  0.85108  1.0000 0.1404923563
H   H463      1.0  0.48795  0.75834  0.64892  1.0000 0.1404923563
H   H464      1.0  0.98795  0.74166  0.35108  1.0000 0.1404923563
H   H465      1.0  0.14892  0.01205  0.24166  1.0000 0.1404923563
H   H466      1.0  0.85108  0.51205  0.25834  1.0000 0.1404923563
H   H467      1.0  0.64892  0.48795  0.75834  1.0000 0.1404923563
H   H468      1.0  0.35108  0.98795  0.74166  1.0000 0.1404923563
H   H469      1.0  0.75834  0.85108  0.98795  1.0000 0.1404923563
H   H470      1.0  0.74166  0.14892  0.48795  1.0000 0.1404923563
H   H471      1.0  0.24166  0.35108  0.51205  1.0000 0.1404923563
H   H472      1.0  0.25834  0.64892  0.01205  1.0000 0.1404923563
H   H473      1.0  0.98795  0.75834  0.85108  1.0000 0.1404923563
H   H474      1.0  0.48795  0.74166  0.14892  1.0000 0.1404923563
H   H475      1.0  0.51205  0.24166  0.35108  1.0000 0.1404923563
H   H476      1.0  0.01205  0.25834  0.64892  1.0000 0.1404923563
H   H477      1.0  0.85108  0.98795  0.75834  1.0000 0.1404923563
H   H478      1.0  0.14892  0.48795  0.74166  1.0000 0.1404923563
H   H479      1.0  0.35108  0.51205  0.24166  1.0000 0.1404923563
H   H480      1.0  0.64892  0.01205  0.25834  1.0000 0.1404923563
C   C1        1.0  0.31190  0.02670  0.96830  1.0000 0.5779082529
C   C2        1.0  0.18810  0.97330  0.46830  1.0000 0.5779082529
C   C3        1.0  0.68810  0.52670  0.53170  1.0000 0.5779082529
C   C4        1.0  0.81190  0.47330  0.03170  1.0000 0.5779082529
C   C5        1.0  0.96830  0.31190  0.02670  1.0000 0.5779082529
C   C6        1.0  0.46830  0.18810  0.97330  1.0000 0.5779082529
C   C7        1.0  0.53170  0.68810  0.52670  1.0000 0.5779082529
C   C8        1.0  0.03170  0.81190  0.47330  1.0000 0.5779082529
C   C9        1.0  0.02670  0.96830  0.31190  1.0000 0.5779082529
C   C10       1.0  0.97330  0.46830  0.18810  1.0000 0.5779082529
C   C11       1.0  0.52670  0.53170  0.68810  1.0000 0.5779082529
C   C12       1.0  0.47330  0.03170  0.81190  1.0000 0.5779082529
C   C13       1.0  0.68810  0.97330  0.03170  1.0000 0.5779082529
C   C14       1.0  0.81190  0.02670  0.53170  1.0000 0.5779082529
C   C15       1.0  0.31190  0.47330  0.46830  1.0000 0.5779082529
C   C16       1.0  0.18810  0.52670  0.96830  1.0000 0.5779082529
C   C17       1.0  0.03170  0.68810  0.97330  1.0000 0.5779082529
C   C18       1.0  0.53170  0.81190  0.02670  1.0000 0.5779082529
C   C19       1.0  0.46830  0.31190  0.47330  1.0000 0.5779082529
C   C20       1.0  0.96830  0.18810  0.52670  1.0000 0.5779082529
C   C21       1.0  0.97330  0.03170  0.68810  1.0000 0.5779082529
C   C22       1.0  0.02670  0.53170  0.81190  1.0000 0.5779082529
C   C23       1.0  0.47330  0.46830  0.31190  1.0000 0.5779082529
C   C24       1.0  0.52670  0.96830  0.18810  1.0000 0.5779082529
C   C25       1.0  0.30452  0.05703  0.97132  1.0000 -0.0781038697
C   C26       1.0  0.19548  0.94297  0.47132  1.0000 -0.0781038697
C   C27       1.0  0.69548  0.55703  0.52868  1.0000 -0.0781038697
C   C28       1.0  0.80452  0.44297  0.02868  1.0000 -0.0781038697
C   C29       1.0  0.97132  0.30452  0.05703  1.0000 -0.0781038697
C   C30       1.0  0.47132  0.19548  0.94297  1.0000 -0.0781038697
C   C31       1.0  0.52868  0.69548  0.55703  1.0000 -0.0781038697
C   C32       1.0  0.02868  0.80452  0.44297  1.0000 -0.0781038697
C   C33       1.0  0.05703  0.97132  0.30452  1.0000 -0.0781038697
C   C34       1.0  0.94297  0.47132  0.19548  1.0000 -0.0781038697
C   C35       1.0  0.55703  0.52868  0.69548  1.0000 -0.0781038697
C   C36       1.0  0.44297  0.02868  0.80452  1.0000 -0.0781038697
C   C37       1.0  0.69548  0.94297  0.02868  1.0000 -0.0781038697
C   C38       1.0  0.80452  0.05703  0.52868  1.0000 -0.0781038697
C   C39       1.0  0.30452  0.44297  0.47132  1.0000 -0.0781038697
C   C40       1.0  0.19548  0.55703  0.97132  1.0000 -0.0781038697
C   C41       1.0  0.02868  0.69548  0.94297  1.0000 -0.0781038697
C   C42       1.0  0.52868  0.80452  0.05703  1.0000 -0.0781038697
C   C43       1.0  0.47132  0.30452  0.44297  1.0000 -0.0781038697
C   C44       1.0  0.97132  0.19548  0.55703  1.0000 -0.0781038697
C   C45       1.0  0.94297  0.02868  0.69548  1.0000 -0.0781038697
C   C46       1.0  0.05703  0.52868  0.80452  1.0000 -0.0781038697
C   C47       1.0  0.44297  0.47132  0.30452  1.0000 -0.0781038697
C   C48       1.0  0.55703  0.97132  0.19548  1.0000 -0.0781038697
C   C49       1.0  0.32581  0.07570  0.98258  1.0000 -0.1103695008
C   C50       1.0  0.17419  0.92430  0.48258  1.0000 -0.1103695008
C   C51       1.0  0.67419  0.57570  0.51742  1.0000 -0.1103695008
C   C52       1.0  0.82581  0.42430  0.01742  1.0000 -0.1103695008
C   C53       1.0  0.98258  0.32581  0.07570  1.0000 -0.1103695008
C   C54       1.0  0.48258  0.17419  0.92430  1.0000 -0.1103695008
C   C55       1.0  0.51742  0.67419  0.57570  1.0000 -0.1103695008
C   C56       1.0  0.01742  0.82581  0.42430  1.0000 -0.1103695008
C   C57       1.0  0.07570  0.98258  0.32581  1.0000 -0.1103695008
C   C58       1.0  0.92430  0.48258  0.17419  1.0000 -0.1103695008
C   C59       1.0  0.57570  0.51742  0.67419  1.0000 -0.1103695008
C   C60       1.0  0.42430  0.01742  0.82581  1.0000 -0.1103695008
C   C61       1.0  0.67419  0.92430  0.01742  1.0000 -0.1103695008
C   C62       1.0  0.82581  0.07570  0.51742  1.0000 -0.1103695008
C   C63       1.0  0.32581  0.42430  0.48258  1.0000 -0.1103695008
C   C64       1.0  0.17419  0.57570  0.98258  1.0000 -0.1103695008
C   C65       1.0  0.01742  0.67419  0.92430  1.0000 -0.1103695008
C   C66       1.0  0.51742  0.82581  0.07570  1.0000 -0.1103695008
C   C67       1.0  0.48258  0.32581  0.42430  1.0000 -0.1103695008
C   C68       1.0  0.98258  0.17419  0.57570  1.0000 -0.1103695008
C   C69       1.0  0.92430  0.01742  0.67419  1.0000 -0.1103695008
C   C70       1.0  0.07570  0.51742  0.82581  1.0000 -0.1103695008
C   C71       1.0  0.42430  0.48258  0.32581  1.0000 -0.1103695008
C   C72       1.0  0.57570  0.98258  0.17419  1.0000 -0.1103695008
C   C73       1.0  0.31923  0.10504  0.98760  1.0000 -0.0272615201
C   C74       1.0  0.18077  0.89496  0.48760  1.0000 -0.0272615201
C   C75       1.0  0.68077  0.60504  0.51240  1.0000 -0.0272615201
C   C76       1.0  0.81923  0.39496  0.01240  1.0000 -0.0272615201
C   C77       1.0  0.98760  0.31923  0.10504  1.0000 -0.0272615201
C   C78       1.0  0.48760  0.18077  0.89496  1.0000 -0.0272615201
C   C79       1.0  0.51240  0.68077  0.60504  1.0000 -0.0272615201
C   C80       1.0  0.01240  0.81923  0.39496  1.0000 -0.0272615201
C   C81       1.0  0.10504  0.98760  0.31923  1.0000 -0.0272615201
C   C82       1.0  0.89496  0.48760  0.18077  1.0000 -0.0272615201
C   C83       1.0  0.60504  0.51240  0.68077  1.0000 -0.0272615201
C   C84       1.0  0.39496  0.01240  0.81923  1.0000 -0.0272615201
C   C85       1.0  0.68077  0.89496  0.01240  1.0000 -0.0272615201
C   C86       1.0  0.81923  0.10504  0.51240  1.0000 -0.0272615201
C   C87       1.0  0.31923  0.39496  0.48760  1.0000 -0.0272615201
C   C88       1.0  0.18077  0.60504  0.98760  1.0000 -0.0272615201
C   C89       1.0  0.01240  0.68077  0.89496  1.0000 -0.0272615201
C   C90       1.0  0.51240  0.81923  0.10504  1.0000 -0.0272615201
C   C91       1.0  0.48760  0.31923  0.39496  1.0000 -0.0272615201
C   C92       1.0  0.98760  0.18077  0.60504  1.0000 -0.0272615201
C   C93       1.0  0.89496  0.01240  0.68077  1.0000 -0.0272615201
C   C94       1.0  0.10504  0.51240  0.81923  1.0000 -0.0272615201
C   C95       1.0  0.39496  0.48760  0.31923  1.0000 -0.0272615201
C   C96       1.0  0.60504  0.98760  0.18077  1.0000 -0.0272615201
C   C97       1.0  0.29137  0.11569  0.98140  1.0000 0.1485130825
C   C98       1.0  0.20863  0.88431  0.48140  1.0000 0.1485130825
C   C99       1.0  0.70863  0.61569  0.51860  1.0000 0.1485130825
C   C100      1.0  0.79137  0.38431  0.01860  1.0000 0.1485130825
C   C101      1.0  0.98140  0.29137  0.11569  1.0000 0.1485130825
C   C102      1.0  0.48140  0.20863  0.88431  1.0000 0.1485130825
C   C103      1.0  0.51860  0.70863  0.61569  1.0000 0.1485130825
C   C104      1.0  0.01860  0.79137  0.38431  1.0000 0.1485130825
C   C105      1.0  0.11569  0.98140  0.29137  1.0000 0.1485130825
C   C106      1.0  0.88431  0.48140  0.20863  1.0000 0.1485130825
C   C107      1.0  0.61569  0.51860  0.70863  1.0000 0.1485130825
C   C108      1.0  0.38431  0.01860  0.79137  1.0000 0.1485130825
C   C109      1.0  0.70863  0.88431  0.01860  1.0000 0.1485130825
C   C110      1.0  0.79137  0.11569  0.51860  1.0000 0.1485130825
C   C111      1.0  0.29137  0.38431  0.48140  1.0000 0.1485130825
C   C112      1.0  0.20863  0.61569  0.98140  1.0000 0.1485130825
C   C113      1.0  0.01860  0.70863  0.88431  1.0000 0.1485130825
C   C114      1.0  0.51860  0.79137  0.11569  1.0000 0.1485130825
C   C115      1.0  0.48140  0.29137  0.38431  1.0000 0.1485130825
C   C116      1.0  0.98140  0.20863  0.61569  1.0000 0.1485130825
C   C117      1.0  0.88431  0.01860  0.70863  1.0000 0.1485130825
C   C118      1.0  0.11569  0.51860  0.79137  1.0000 0.1485130825
C   C119      1.0  0.38431  0.48140  0.29137  1.0000 0.1485130825
C   C120      1.0  0.61569  0.98140  0.20863  1.0000 0.1485130825
C   C121      1.0  0.27008  0.09701  0.97010  1.0000 -0.2063243567
C   C122      1.0  0.22992  0.90299  0.47010  1.0000 -0.2063243567
C   C123      1.0  0.72992  0.59701  0.52990  1.0000 -0.2063243567
C   C124      1.0  0.77008  0.40299  0.02990  1.0000 -0.2063243567
C   C125      1.0  0.97010  0.27008  0.09701  1.0000 -0.2063243567
C   C126      1.0  0.47010  0.22992  0.90299  1.0000 -0.2063243567
C   C127      1.0  0.52990  0.72992  0.59701  1.0000 -0.2063243567
C   C128      1.0  0.02990  0.77008  0.40299  1.0000 -0.2063243567
C   C129      1.0  0.09701  0.97010  0.27008  1.0000 -0.2063243567
C   C130      1.0  0.90299  0.47010  0.22992  1.0000 -0.2063243567
C   C131      1.0  0.59701  0.52990  0.72992  1.0000 -0.2063243567
C   C132      1.0  0.40299  0.02990  0.77008  1.0000 -0.2063243567
C   C133      1.0  0.72992  0.90299  0.02990  1.0000 -0.2063243567
C   C134      1.0  0.77008  0.09701  0.52990  1.0000 -0.2063243567
C   C135      1.0  0.27008  0.40299  0.47010  1.0000 -0.2063243567
C   C136      1.0  0.22992  0.59701  0.97010  1.0000 -0.2063243567
C   C137      1.0  0.02990  0.72992  0.90299  1.0000 -0.2063243567
C   C138      1.0  0.52990  0.77008  0.09701  1.0000 -0.2063243567
C   C139      1.0  0.47010  0.27008  0.40299  1.0000 -0.2063243567
C   C140      1.0  0.97010  0.22992  0.59701  1.0000 -0.2063243567
C   C141      1.0  0.90299  0.02990  0.72992  1.0000 -0.2063243567
C   C142      1.0  0.09701  0.52990  0.77008  1.0000 -0.2063243567
C   C143      1.0  0.40299  0.47010  0.27008  1.0000 -0.2063243567
C   C144      1.0  0.59701  0.97010  0.22992  1.0000 -0.2063243567
C   C145      1.0  0.27666  0.06768  0.96508  1.0000 -0.0600122545
C   C146      1.0  0.22334  0.93232  0.46508  1.0000 -0.0600122545
C   C147      1.0  0.72334  0.56768  0.53492  1.0000 -0.0600122545
C   C148      1.0  0.77666  0.43232  0.03492  1.0000 -0.0600122545
C   C149      1.0  0.96508  0.27666  0.06768  1.0000 -0.0600122545
C   C150      1.0  0.46508  0.22334  0.93232  1.0000 -0.0600122545
C   C151      1.0  0.53492  0.72334  0.56768  1.0000 -0.0600122545
C   C152      1.0  0.03492  0.77666  0.43232  1.0000 -0.0600122545
C   C153      1.0  0.06768  0.96508  0.27666  1.0000 -0.0600122545
C   C154      1.0  0.93232  0.46508  0.22334  1.0000 -0.0600122545
C   C155      1.0  0.56768  0.53492  0.72334  1.0000 -0.0600122545
C   C156      1.0  0.43232  0.03492  0.77666  1.0000 -0.0600122545
C   C157      1.0  0.72334  0.93232  0.03492  1.0000 -0.0600122545
C   C158      1.0  0.77666  0.06768  0.53492  1.0000 -0.0600122545
C   C159      1.0  0.27666  0.43232  0.46508  1.0000 -0.0600122545
C   C160      1.0  0.22334  0.56768  0.96508  1.0000 -0.0600122545
C   C161      1.0  0.03492  0.72334  0.93232  1.0000 -0.0600122545
C   C162      1.0  0.53492  0.77666  0.06768  1.0000 -0.0600122545
C   C163      1.0  0.46508  0.27666  0.43232  1.0000 -0.0600122545
C   C164      1.0  0.96508  0.22334  0.56768  1.0000 -0.0600122545
C   C165      1.0  0.93232  0.03492  0.72334  1.0000 -0.0600122545
C   C166      1.0  0.06768  0.53492  0.77666  1.0000 -0.0600122545
C   C167      1.0  0.43232  0.46508  0.27666  1.0000 -0.0600122545
C   C168      1.0  0.56768  0.96508  0.22334  1.0000 -0.0600122545
C   C169      1.0  0.37524  0.16246  0.01391  1.0000 -0.0600122545
C   C170      1.0  0.12476  0.83754  0.51391  1.0000 -0.0600122545
C   C171      1.0  0.62476  0.66246  0.48609  1.0000 -0.0600122545
C   C172      1.0  0.87524  0.33754  0.98609  1.0000 -0.0600122545
C   C173      1.0  0.01391  0.37524  0.16246  1.0000 -0.0600122545
C   C174      1.0  0.51391  0.12476  0.83754  1.0000 -0.0600122545
C   C175      1.0  0.48609  0.62476  0.66246  1.0000 -0.0600122545
C   C176      1.0  0.98609  0.87524  0.33754  1.0000 -0.0600122545
C   C177      1.0  0.16246  0.01391  0.37524  1.0000 -0.0600122545
C   C178      1.0  0.83754  0.51391  0.12476  1.0000 -0.0600122545
C   C179      1.0  0.66246  0.48609  0.62476  1.0000 -0.0600122545
C   C180      1.0  0.33754  0.98609  0.87524  1.0000 -0.0600122545
C   C181      1.0  0.62476  0.83754  0.98609  1.0000 -0.0600122545
C   C182      1.0  0.87524  0.16246  0.48609  1.0000 -0.0600122545
C   C183      1.0  0.37524  0.33754  0.51391  1.0000 -0.0600122545
C   C184      1.0  0.12476  0.66246  0.01391  1.0000 -0.0600122545
C   C185      1.0  0.98609  0.62476  0.83754  1.0000 -0.0600122545
C   C186      1.0  0.48609  0.87524  0.16246  1.0000 -0.0600122545
C   C187      1.0  0.51391  0.37524  0.33754  1.0000 -0.0600122545
C   C188      1.0  0.01391  0.12476  0.66246  1.0000 -0.0600122545
C   C189      1.0  0.83754  0.98609  0.62476  1.0000 -0.0600122545
C   C190      1.0  0.16246  0.48609  0.87524  1.0000 -0.0600122545
C   C191      1.0  0.33754  0.51391  0.37524  1.0000 -0.0600122545
C   C192      1.0  0.66246  0.01391  0.12476  1.0000 -0.0600122545
C   C193      1.0  0.36543  0.13479  0.00572  1.0000 -0.118095155
C   C194      1.0  0.13457  0.86521  0.50572  1.0000 -0.118095155
C   C195      1.0  0.63457  0.63479  0.49428  1.0000 -0.118095155
C   C196      1.0  0.86543  0.36521  0.99428  1.0000 -0.118095155
C   C197      1.0  0.00572  0.36543  0.13479  1.0000 -0.118095155
C   C198      1.0  0.50572  0.13457  0.86521  1.0000 -0.118095155
C   C199      1.0  0.49428  0.63457  0.63479  1.0000 -0.118095155
C   C200      1.0  0.99428  0.86543  0.36521  1.0000 -0.118095155
C   C201      1.0  0.13479  0.00572  0.36543  1.0000 -0.118095155
C   C202      1.0  0.86521  0.50572  0.13457  1.0000 -0.118095155
C   C203      1.0  0.63479  0.49428  0.63457  1.0000 -0.118095155
C   C204      1.0  0.36521  0.99428  0.86543  1.0000 -0.118095155
C   C205      1.0  0.63457  0.86521  0.99428  1.0000 -0.118095155
C   C206      1.0  0.86543  0.13479  0.49428  1.0000 -0.118095155
C   C207      1.0  0.36543  0.36521  0.50572  1.0000 -0.118095155
C   C208      1.0  0.13457  0.63479  0.00572  1.0000 -0.118095155
C   C209      1.0  0.99428  0.63457  0.86521  1.0000 -0.118095155
C   C210      1.0  0.49428  0.86543  0.13479  1.0000 -0.118095155
C   C211      1.0  0.50572  0.36543  0.36521  1.0000 -0.118095155
C   C212      1.0  0.00572  0.13457  0.63479  1.0000 -0.118095155
C   C213      1.0  0.86521  0.99428  0.63457  1.0000 -0.118095155
C   C214      1.0  0.13479  0.49428  0.86543  1.0000 -0.118095155
C   C215      1.0  0.36521  0.50572  0.36543  1.0000 -0.118095155
C   C216      1.0  0.63479  0.00572  0.13457  1.0000 -0.118095155
C   C217      1.0  0.33644  0.13079  0.99722  1.0000 -0.020525625
C   C218      1.0  0.16356  0.86921  0.49722  1.0000 -0.020525625
C   C219      1.0  0.66356  0.63079  0.50278  1.0000 -0.020525625
C   C220      1.0  0.83644  0.36921  0.00278  1.0000 -0.020525625
C   C221      1.0  0.99722  0.33644  0.13079  1.0000 -0.020525625
C   C222      1.0  0.49722  0.16356  0.86921  1.0000 -0.020525625
C   C223      1.0  0.50278  0.66356  0.63079  1.0000 -0.020525625
C   C224      1.0  0.00278  0.83644  0.36921  1.0000 -0.020525625
C   C225      1.0  0.13079  0.99722  0.33644  1.0000 -0.020525625
C   C226      1.0  0.86921  0.49722  0.16356  1.0000 -0.020525625
C   C227      1.0  0.63079  0.50278  0.66356  1.0000 -0.020525625
C   C228      1.0  0.36921  0.00278  0.83644  1.0000 -0.020525625
C   C229      1.0  0.66356  0.86921  0.00278  1.0000 -0.020525625
C   C230      1.0  0.83644  0.13079  0.50278  1.0000 -0.020525625
C   C231      1.0  0.33644  0.36921  0.49722  1.0000 -0.020525625
C   C232      1.0  0.16356  0.63079  0.99722  1.0000 -0.020525625
C   C233      1.0  0.00278  0.66356  0.86921  1.0000 -0.020525625
C   C234      1.0  0.50278  0.83644  0.13079  1.0000 -0.020525625
C   C235      1.0  0.49722  0.33644  0.36921  1.0000 -0.020525625
C   C236      1.0  0.99722  0.16356  0.63079  1.0000 -0.020525625
C   C237      1.0  0.86921  0.00278  0.66356  1.0000 -0.020525625
C   C238      1.0  0.13079  0.50278  0.83644  1.0000 -0.020525625
C   C239      1.0  0.36921  0.49722  0.33644  1.0000 -0.020525625
C   C240      1.0  0.63079  0.99722  0.16356  1.0000 -0.020525625
C   C241      1.0  0.31725  0.15447  0.99690  1.0000 0.1404923563
C   C242      1.0  0.18275  0.84553  0.49690  1.0000 0.1404923563
C   C243      1.0  0.68275  0.65447  0.50310  1.0000 0.1404923563
C   C244      1.0  0.81725  0.34553  0.00310  1.0000 0.1404923563
C   C245      1.0  0.99690  0.31725  0.15447  1.0000 0.1404923563
C   C246      1.0  0.49690  0.18275  0.84553  1.0000 0.1404923563
C   C247      1.0  0.50310  0.68275  0.65447  1.0000 0.1404923563
C   C248      1.0  0.00310  0.81725  0.34553  1.0000 0.1404923563
C   C249      1.0  0.15447  0.99690  0.31725  1.0000 0.1404923563
C   C250      1.0  0.84553  0.49690  0.18275  1.0000 0.1404923563
C   C251      1.0  0.65447  0.50310  0.68275  1.0000 0.1404923563
C   C252      1.0  0.34553  0.00310  0.81725  1.0000 0.1404923563
C   C253      1.0  0.68275  0.84553  0.00310  1.0000 0.1404923563
C   C254      1.0  0.81725  0.15447  0.50310  1.0000 0.1404923563
C   C255      1.0  0.31725  0.34553  0.49690  1.0000 0.1404923563
C   C256      1.0  0.18275  0.65447  0.99690  1.0000 0.1404923563
C   C257      1.0  0.00310  0.68275  0.84553  1.0000 0.1404923563
C   C258      1.0  0.50310  0.81725  0.15447  1.0000 0.1404923563
C   C259      1.0  0.49690  0.31725  0.34553  1.0000 0.1404923563
C   C260      1.0  0.99690  0.18275  0.65447  1.0000 0.1404923563
C   C261      1.0  0.84553  0.00310  0.68275  1.0000 0.1404923563
C   C262      1.0  0.15447  0.50310  0.81725  1.0000 0.1404923563
C   C263      1.0  0.34553  0.49690  0.31725  1.0000 0.1404923563
C   C264      1.0  0.65447  0.99690  0.18275  1.0000 0.1404923563
C   C265      1.0  0.32706  0.18214  0.00510  1.0000 -0.2026253486
C   C266      1.0  0.17294  0.81786  0.50510  1.0000 -0.2026253486
C   C267      1.0  0.67294  0.68214  0.49490  1.0000 -0.2026253486
C   C268      1.0  0.82706  0.31786  0.99490  1.0000 -0.2026253486
C   C269      1.0  0.00510  0.32706  0.18214  1.0000 -0.2026253486
C   C270      1.0  0.50510  0.17294  0.81786  1.0000 -0.2026253486
C   C271      1.0  0.49490  0.67294  0.68214  1.0000 -0.2026253486
C   C272      1.0  0.99490  0.82706  0.31786  1.0000 -0.2026253486
C   C273      1.0  0.18214  0.00510  0.32706  1.0000 -0.2026253486
C   C274      1.0  0.81786  0.50510  0.17294  1.0000 -0.2026253486
C   C275      1.0  0.68214  0.49490  0.67294  1.0000 -0.2026253486
C   C276      1.0  0.31786  0.99490  0.82706  1.0000 -0.2026253486
C   C277      1.0  0.67294  0.81786  0.99490  1.0000 -0.2026253486
C   C278      1.0  0.82706  0.18214  0.49490  1.0000 -0.2026253486
C   C279      1.0  0.32706  0.31786  0.50510  1.0000 -0.2026253486
C   C280      1.0  0.17294  0.68214  0.00510  1.0000 -0.2026253486
C   C281      1.0  0.99490  0.67294  0.81786  1.0000 -0.2026253486
C   C282      1.0  0.49490  0.82706  0.18214  1.0000 -0.2026253486
C   C283      1.0  0.50510  0.32706  0.31786  1.0000 -0.2026253486
C   C284      1.0  0.00510  0.17294  0.68214  1.0000 -0.2026253486
C   C285      1.0  0.81786  0.99490  0.67294  1.0000 -0.2026253486
C   C286      1.0  0.18214  0.49490  0.82706  1.0000 -0.2026253486
C   C287      1.0  0.31786  0.50510  0.32706  1.0000 -0.2026253486
C   C288      1.0  0.68214  0.00510  0.17294  1.0000 -0.2026253486
C   C289      1.0  0.35605  0.18613  0.01359  1.0000 -0.0703822674
C   C290      1.0  0.14395  0.81387  0.51359  1.0000 -0.0703822674
C   C291      1.0  0.64395  0.68613  0.48641  1.0000 -0.0703822674
C   C292      1.0  0.85605  0.31387  0.98641  1.0000 -0.0703822674
C   C293      1.0  0.01359  0.35605  0.18613  1.0000 -0.0703822674
C   C294      1.0  0.51359  0.14395  0.81387  1.0000 -0.0703822674
C   C295      1.0  0.48641  0.64395  0.68613  1.0000 -0.0703822674
C   C296      1.0  0.98641  0.85605  0.31387  1.0000 -0.0703822674
C   C297      1.0  0.18613  0.01359  0.35605  1.0000 -0.0703822674
C   C298      1.0  0.81387  0.51359  0.14395  1.0000 -0.0703822674
C   C299      1.0  0.68613  0.48641  0.64395  1.0000 -0.0703822674
C   C300      1.0  0.31387  0.98641  0.85605  1.0000 -0.0703822674
C   C301      1.0  0.64395  0.81387  0.98641  1.0000 -0.0703822674
C   C302      1.0  0.85605  0.18613  0.48641  1.0000 -0.0703822674
C   C303      1.0  0.35605  0.31387  0.51359  1.0000 -0.0703822674
C   C304      1.0  0.14395  0.68613  0.01359  1.0000 -0.0703822674
C   C305      1.0  0.98641  0.64395  0.81387  1.0000 -0.0703822674
C   C306      1.0  0.48641  0.85605  0.18613  1.0000 -0.0703822674
C   C307      1.0  0.51359  0.35605  0.31387  1.0000 -0.0703822674
C   C308      1.0  0.01359  0.14395  0.68613  1.0000 -0.0703822674
C   C309      1.0  0.81387  0.98641  0.64395  1.0000 -0.0703822674
C   C310      1.0  0.18613  0.48641  0.85605  1.0000 -0.0703822674
C   C311      1.0  0.31387  0.51359  0.35605  1.0000 -0.0703822674
C   C312      1.0  0.68613  0.01359  0.14395  1.0000 -0.0703822674
C   C313      1.0  0.38442  0.95608  0.15794  1.0000 -0.0703822674
C   C314      1.0  0.11558  0.04392  0.65794  1.0000 -0.0703822674
C   C315      1.0  0.61558  0.45608  0.34206  1.0000 -0.0703822674
C   C316      1.0  0.88442  0.54392  0.84206  1.0000 -0.0703822674
C   C317      1.0  0.15794  0.38442  0.95608  1.0000 -0.0703822674
C   C318      1.0  0.65794  0.11558  0.04392  1.0000 -0.0703822674
C   C319      1.0  0.34206  0.61558  0.45608  1.0000 -0.0703822674
C   C320      1.0  0.84206  0.88442  0.54392  1.0000 -0.0703822674
C   C321      1.0  0.95608  0.15794  0.38442  1.0000 -0.0703822674
C   C322      1.0  0.04392  0.65794  0.11558  1.0000 -0.0703822674
C   C323      1.0  0.45608  0.34206  0.61558  1.0000 -0.0703822674
C   C324      1.0  0.54392  0.84206  0.88442  1.0000 -0.0703822674
C   C325      1.0  0.61558  0.04392  0.84206  1.0000 -0.0703822674
C   C326      1.0  0.88442  0.95608  0.34206  1.0000 -0.0703822674
C   C327      1.0  0.38442  0.54392  0.65794  1.0000 -0.0703822674
C   C328      1.0  0.11558  0.45608  0.15794  1.0000 -0.0703822674
C   C329      1.0  0.84206  0.61558  0.04392  1.0000 -0.0703822674
C   C330      1.0  0.34206  0.88442  0.95608  1.0000 -0.0703822674
C   C331      1.0  0.65794  0.38442  0.54392  1.0000 -0.0703822674
C   C332      1.0  0.15794  0.11558  0.45608  1.0000 -0.0703822674
C   C333      1.0  0.04392  0.84206  0.61558  1.0000 -0.0703822674
C   C334      1.0  0.95608  0.34206  0.88442  1.0000 -0.0703822674
C   C335      1.0  0.54392  0.65794  0.38442  1.0000 -0.0703822674
C   C336      1.0  0.45608  0.15794  0.11558  1.0000 -0.0703822674
C   C337      1.0  0.37377  0.95700  0.12940  1.0000 -0.1103695008
C   C338      1.0  0.12623  0.04300  0.62940  1.0000 -0.1103695008
C   C339      1.0  0.62623  0.45700  0.37060  1.0000 -0.1103695008
C   C340      1.0  0.87377  0.54300  0.87060  1.0000 -0.1103695008
C   C341      1.0  0.12940  0.37377  0.95700  1.0000 -0.1103695008
C   C342      1.0  0.62940  0.12623  0.04300  1.0000 -0.1103695008
C   C343      1.0  0.37060  0.62623  0.45700  1.0000 -0.1103695008
C   C344      1.0  0.87060  0.87377  0.54300  1.0000 -0.1103695008
C   C345      1.0  0.95700  0.12940  0.37377  1.0000 -0.1103695008
C   C346      1.0  0.04300  0.62940  0.12623  1.0000 -0.1103695008
C   C347      1.0  0.45700  0.37060  0.62623  1.0000 -0.1103695008
C   C348      1.0  0.54300  0.87060  0.87377  1.0000 -0.1103695008
C   C349      1.0  0.62623  0.04300  0.87060  1.0000 -0.1103695008
C   C350      1.0  0.87377  0.95700  0.37060  1.0000 -0.1103695008
C   C351      1.0  0.37377  0.54300  0.62940  1.0000 -0.1103695008
C   C352      1.0  0.12623  0.45700  0.12940  1.0000 -0.1103695008
C   C353      1.0  0.87060  0.62623  0.04300  1.0000 -0.1103695008
C   C354      1.0  0.37060  0.87377  0.95700  1.0000 -0.1103695008
C   C355      1.0  0.62940  0.37377  0.54300  1.0000 -0.1103695008
C   C356      1.0  0.12940  0.12623  0.45700  1.0000 -0.1103695008
C   C357      1.0  0.04300  0.87060  0.62623  1.0000 -0.1103695008
C   C358      1.0  0.95700  0.37060  0.87377  1.0000 -0.1103695008
C   C359      1.0  0.54300  0.62940  0.37377  1.0000 -0.1103695008
C   C360      1.0  0.45700  0.12940  0.12623  1.0000 -0.1103695008
C   C361      1.0  0.34373  0.95647  0.12433  1.0000 -0.020525625
C   C362      1.0  0.15627  0.04353  0.62433  1.0000 -0.020525625
C   C363      1.0  0.65627  0.45647  0.37567  1.0000 -0.020525625
C   C364      1.0  0.84373  0.54353  0.87567  1.0000 -0.020525625
C   C365      1.0  0.12433  0.34373  0.95647  1.0000 -0.020525625
C   C366      1.0  0.62433  0.15627  0.04353  1.0000 -0.020525625
C   C367      1.0  0.37567  0.65627  0.45647  1.0000 -0.020525625
C   C368      1.0  0.87567  0.84373  0.54353  1.0000 -0.020525625
C   C369      1.0  0.95647  0.12433  0.34373  1.0000 -0.020525625
C   C370      1.0  0.04353  0.62433  0.15627  1.0000 -0.020525625
C   C371      1.0  0.45647  0.37567  0.65627  1.0000 -0.020525625
C   C372      1.0  0.54353  0.87567  0.84373  1.0000 -0.020525625
C   C373      1.0  0.65627  0.04353  0.87567  1.0000 -0.020525625
C   C374      1.0  0.84373  0.95647  0.37567  1.0000 -0.020525625
C   C375      1.0  0.34373  0.54353  0.62433  1.0000 -0.020525625
C   C376      1.0  0.15627  0.45647  0.12433  1.0000 -0.020525625
C   C377      1.0  0.87567  0.65627  0.04353  1.0000 -0.020525625
C   C378      1.0  0.37567  0.84373  0.95647  1.0000 -0.020525625
C   C379      1.0  0.62433  0.34373  0.54353  1.0000 -0.020525625
C   C380      1.0  0.12433  0.15627  0.45647  1.0000 -0.020525625
C   C381      1.0  0.04353  0.87567  0.65627  1.0000 -0.020525625
C   C382      1.0  0.95647  0.37567  0.84373  1.0000 -0.020525625
C   C383      1.0  0.54353  0.62433  0.34373  1.0000 -0.020525625
C   C384      1.0  0.45647  0.12433  0.15627  1.0000 -0.020525625
C   C385      1.0  0.32433  0.95500  0.14779  1.0000 0.1404923563
C   C386      1.0  0.17567  0.04500  0.64779  1.0000 0.1404923563
C   C387      1.0  0.67567  0.45500  0.35221  1.0000 0.1404923563
C   C388      1.0  0.82433  0.54500  0.85221  1.0000 0.1404923563
C   C389      1.0  0.14779  0.32433  0.95500  1.0000 0.1404923563
C   C390      1.0  0.64779  0.17567  0.04500  1.0000 0.1404923563
C   C391      1.0  0.35221  0.67567  0.45500  1.0000 0.1404923563
C   C392      1.0  0.85221  0.82433  0.54500  1.0000 0.1404923563
C   C393      1.0  0.95500  0.14779  0.32433  1.0000 0.1404923563
C   C394      1.0  0.04500  0.64779  0.17567  1.0000 0.1404923563
C   C395      1.0  0.45500  0.35221  0.67567  1.0000 0.1404923563
C   C396      1.0  0.54500  0.85221  0.82433  1.0000 0.1404923563
C   C397      1.0  0.67567  0.04500  0.85221  1.0000 0.1404923563
C   C398      1.0  0.82433  0.95500  0.35221  1.0000 0.1404923563
C   C399      1.0  0.32433  0.54500  0.64779  1.0000 0.1404923563
C   C400      1.0  0.17567  0.45500  0.14779  1.0000 0.1404923563
C   C401      1.0  0.85221  0.67567  0.04500  1.0000 0.1404923563
C   C402      1.0  0.35221  0.82433  0.95500  1.0000 0.1404923563
C   C403      1.0  0.64779  0.32433  0.54500  1.0000 0.1404923563
C   C404      1.0  0.14779  0.17567  0.45500  1.0000 0.1404923563
C   C405      1.0  0.04500  0.85221  0.67567  1.0000 0.1404923563
C   C406      1.0  0.95500  0.35221  0.82433  1.0000 0.1404923563
C   C407      1.0  0.54500  0.64779  0.32433  1.0000 0.1404923563
C   C408      1.0  0.45500  0.14779  0.17567  1.0000 0.1404923563
C   C409      1.0  0.33498  0.95410  0.17633  1.0000 -0.2026253486
C   C410      1.0  0.16502  0.04590  0.67633  1.0000 -0.2026253486
C   C411      1.0  0.66502  0.45410  0.32367  1.0000 -0.2026253486
C   C412      1.0  0.83498  0.54590  0.82367  1.0000 -0.2026253486
C   C413      1.0  0.17633  0.33498  0.95410  1.0000 -0.2026253486
C   C414      1.0  0.67633  0.16502  0.04590  1.0000 -0.2026253486
C   C415      1.0  0.32367  0.66502  0.45410  1.0000 -0.2026253486
C   C416      1.0  0.82367  0.83498  0.54590  1.0000 -0.2026253486
C   C417      1.0  0.95410  0.17633  0.33498  1.0000 -0.2026253486
C   C418      1.0  0.04590  0.67633  0.16502  1.0000 -0.2026253486
C   C419      1.0  0.45410  0.32367  0.66502  1.0000 -0.2026253486
C   C420      1.0  0.54590  0.82367  0.83498  1.0000 -0.2026253486
C   C421      1.0  0.66502  0.04590  0.82367  1.0000 -0.2026253486
C   C422      1.0  0.83498  0.95410  0.32367  1.0000 -0.2026253486
C   C423      1.0  0.33498  0.54590  0.67633  1.0000 -0.2026253486
C   C424      1.0  0.16502  0.45410  0.17633  1.0000 -0.2026253486
C   C425      1.0  0.82367  0.66502  0.04590  1.0000 -0.2026253486
C   C426      1.0  0.32367  0.83498  0.95410  1.0000 -0.2026253486
C   C427      1.0  0.67633  0.33498  0.54590  1.0000 -0.2026253486
C   C428      1.0  0.17633  0.16502  0.45410  1.0000 -0.2026253486
C   C429      1.0  0.04590  0.82367  0.66502  1.0000 -0.2026253486
C   C430      1.0  0.95410  0.32367  0.83498  1.0000 -0.2026253486
C   C431      1.0  0.54590  0.67633  0.33498  1.0000 -0.2026253486
C   C432      1.0  0.45410  0.17633  0.16502  1.0000 -0.2026253486
C   C433      1.0  0.36503  0.95460  0.18141  1.0000 -0.0703822674
C   C434      1.0  0.13497  0.04540  0.68141  1.0000 -0.0703822674
C   C435      1.0  0.63497  0.45460  0.31859  1.0000 -0.0703822674
C   C436      1.0  0.86503  0.54540  0.81859  1.0000 -0.0703822674
C   C437      1.0  0.18141  0.36503  0.95460  1.0000 -0.0703822674
C   C438      1.0  0.68141  0.13497  0.04540  1.0000 -0.0703822674
C   C439      1.0  0.31859  0.63497  0.45460  1.0000 -0.0703822674
C   C440      1.0  0.81859  0.86503  0.54540  1.0000 -0.0703822674
C   C441      1.0  0.95460  0.18141  0.36503  1.0000 -0.0703822674
C   C442      1.0  0.04540  0.68141  0.13497  1.0000 -0.0703822674
C   C443      1.0  0.45460  0.31859  0.63497  1.0000 -0.0703822674
C   C444      1.0  0.54540  0.81859  0.86503  1.0000 -0.0703822674
C   C445      1.0  0.63497  0.04540  0.81859  1.0000 -0.0703822674
C   C446      1.0  0.86503  0.95460  0.31859  1.0000 -0.0703822674
C   C447      1.0  0.36503  0.54540  0.68141  1.0000 -0.0703822674
C   C448      1.0  0.13497  0.45460  0.18141  1.0000 -0.0703822674
C   C449      1.0  0.81859  0.63497  0.04540  1.0000 -0.0703822674
C   C450      1.0  0.31859  0.86503  0.95460  1.0000 -0.0703822674
C   C451      1.0  0.68141  0.36503  0.54540  1.0000 -0.0703822674
C   C452      1.0  0.18141  0.13497  0.45460  1.0000 -0.0703822674
C   C453      1.0  0.04540  0.81859  0.63497  1.0000 -0.0703822674
C   C454      1.0  0.95460  0.31859  0.86503  1.0000 -0.0703822674
C   C455      1.0  0.54540  0.68141  0.36503  1.0000 -0.0703822674
C   C456      1.0  0.45460  0.18141  0.13497  1.0000 -0.0703822674
C   C457      1.0  0.31470  0.96510  0.01770  1.0000 0.5779082529
C   C458      1.0  0.18530  0.03490  0.51770  1.0000 0.5779082529
C   C459      1.0  0.68530  0.46510  0.48230  1.0000 0.5779082529
C   C460      1.0  0.81470  0.53490  0.98230  1.0000 0.5779082529
C   C461      1.0  0.01770  0.31470  0.96510  1.0000 0.5779082529
C   C462      1.0  0.51770  0.18530  0.03490  1.0000 0.5779082529
C   C463      1.0  0.48230  0.68530  0.46510  1.0000 0.5779082529
C   C464      1.0  0.98230  0.81470  0.53490  1.0000 0.5779082529
C   C465      1.0  0.96510  0.01770  0.31470  1.0000 0.5779082529
C   C466      1.0  0.03490  0.51770  0.18530  1.0000 0.5779082529
C   C467      1.0  0.46510  0.48230  0.68530  1.0000 0.5779082529
C   C468      1.0  0.53490  0.98230  0.81470  1.0000 0.5779082529
C   C469      1.0  0.68530  0.03490  0.98230  1.0000 0.5779082529
C   C470      1.0  0.81470  0.96510  0.48230  1.0000 0.5779082529
C   C471      1.0  0.31470  0.53490  0.51770  1.0000 0.5779082529
C   C472      1.0  0.18530  0.46510  0.01770  1.0000 0.5779082529
C   C473      1.0  0.98230  0.68530  0.03490  1.0000 0.5779082529
C   C474      1.0  0.48230  0.81470  0.96510  1.0000 0.5779082529
C   C475      1.0  0.51770  0.31470  0.53490  1.0000 0.5779082529
C   C476      1.0  0.01770  0.18530  0.46510  1.0000 0.5779082529
C   C477      1.0  0.03490  0.98230  0.68530  1.0000 0.5779082529
C   C478      1.0  0.96510  0.48230  0.81470  1.0000 0.5779082529
C   C479      1.0  0.53490  0.51770  0.31470  1.0000 0.5779082529
C   C480      1.0  0.46510  0.01770  0.18530  1.0000 0.5779082529
C   C481      1.0  0.30772  0.96211  0.04829  1.0000 -0.0703822674
C   C482      1.0  0.19228  0.03789  0.54829  1.0000 -0.0703822674
C   C483      1.0  0.69228  0.46211  0.45171  1.0000 -0.0703822674
C   C484      1.0  0.80772  0.53789  0.95171  1.0000 -0.0703822674
C   C485      1.0  0.04829  0.30772  0.96211  1.0000 -0.0703822674
C   C486      1.0  0.54829  0.19228  0.03789  1.0000 -0.0703822674
C   C487      1.0  0.45171  0.69228  0.46211  1.0000 -0.0703822674
C   C488      1.0  0.95171  0.80772  0.53789  1.0000 -0.0703822674
C   C489      1.0  0.96211  0.04829  0.30772  1.0000 -0.0703822674
C   C490      1.0  0.03789  0.54829  0.19228  1.0000 -0.0703822674
C   C491      1.0  0.46211  0.45171  0.69228  1.0000 -0.0703822674
C   C492      1.0  0.53789  0.95171  0.80772  1.0000 -0.0703822674
C   C493      1.0  0.69228  0.03789  0.95171  1.0000 -0.0703822674
C   C494      1.0  0.80772  0.96211  0.45171  1.0000 -0.0703822674
C   C495      1.0  0.30772  0.53789  0.54829  1.0000 -0.0703822674
C   C496      1.0  0.19228  0.46211  0.04829  1.0000 -0.0703822674
C   C497      1.0  0.95171  0.69228  0.03789  1.0000 -0.0703822674
C   C498      1.0  0.45171  0.80772  0.96211  1.0000 -0.0703822674
C   C499      1.0  0.54829  0.30772  0.53789  1.0000 -0.0703822674
C   C500      1.0  0.04829  0.19228  0.46211  1.0000 -0.0703822674
C   C501      1.0  0.03789  0.95171  0.69228  1.0000 -0.0703822674
C   C502      1.0  0.96211  0.45171  0.80772  1.0000 -0.0703822674
C   C503      1.0  0.53789  0.54829  0.30772  1.0000 -0.0703822674
C   C504      1.0  0.46211  0.04829  0.19228  1.0000 -0.0703822674
C   C505      1.0  0.27894  0.96110  0.05828  1.0000 -0.0703822674
C   C506      1.0  0.22106  0.03890  0.55828  1.0000 -0.0703822674
C   C507      1.0  0.72106  0.46110  0.44172  1.0000 -0.0703822674
C   C508      1.0  0.77894  0.53890  0.94172  1.0000 -0.0703822674
C   C509      1.0  0.05828  0.27894  0.96110  1.0000 -0.0703822674
C   C510      1.0  0.55828  0.22106  0.03890  1.0000 -0.0703822674
C   C511      1.0  0.44172  0.72106  0.46110  1.0000 -0.0703822674
C   C512      1.0  0.94172  0.77894  0.53890  1.0000 -0.0703822674
C   C513      1.0  0.96110  0.05828  0.27894  1.0000 -0.0703822674
C   C514      1.0  0.03890  0.55828  0.22106  1.0000 -0.0703822674
C   C515      1.0  0.46110  0.44172  0.72106  1.0000 -0.0703822674
C   C516      1.0  0.53890  0.94172  0.77894  1.0000 -0.0703822674
C   C517      1.0  0.72106  0.03890  0.94172  1.0000 -0.0703822674
C   C518      1.0  0.77894  0.96110  0.44172  1.0000 -0.0703822674
C   C519      1.0  0.27894  0.53890  0.55828  1.0000 -0.0703822674
C   C520      1.0  0.22106  0.46110  0.05828  1.0000 -0.0703822674
C   C521      1.0  0.94172  0.72106  0.03890  1.0000 -0.0703822674
C   C522      1.0  0.44172  0.77894  0.96110  1.0000 -0.0703822674
C   C523      1.0  0.55828  0.27894  0.53890  1.0000 -0.0703822674
C   C524      1.0  0.05828  0.22106  0.46110  1.0000 -0.0703822674
C   C525      1.0  0.03890  0.94172  0.72106  1.0000 -0.0703822674
C   C526      1.0  0.96110  0.44172  0.77894  1.0000 -0.0703822674
C   C527      1.0  0.53890  0.55828  0.27894  1.0000 -0.0703822674
C   C528      1.0  0.46110  0.05828  0.22106  1.0000 -0.0703822674
C   C529      1.0  0.27326  0.95860  0.08812  1.0000 -0.1920466483
C   C530      1.0  0.22674  0.04140  0.58812  1.0000 -0.1920466483
C   C531      1.0  0.72674  0.45860  0.41188  1.0000 -0.1920466483
C   C532      1.0  0.77326  0.54140  0.91188  1.0000 -0.1920466483
C   C533      1.0  0.08812  0.27326  0.95860  1.0000 -0.1920466483
C   C534      1.0  0.58812  0.22674  0.04140  1.0000 -0.1920466483
C   C535      1.0  0.41188  0.72674  0.45860  1.0000 -0.1920466483
C   C536      1.0  0.91188  0.77326  0.54140  1.0000 -0.1920466483
C   C537      1.0  0.95860  0.08812  0.27326  1.0000 -0.1920466483
C   C538      1.0  0.04140  0.58812  0.22674  1.0000 -0.1920466483
C   C539      1.0  0.45860  0.41188  0.72674  1.0000 -0.1920466483
C   C540      1.0  0.54140  0.91188  0.77326  1.0000 -0.1920466483
C   C541      1.0  0.72674  0.04140  0.91188  1.0000 -0.1920466483
C   C542      1.0  0.77326  0.95860  0.41188  1.0000 -0.1920466483
C   C543      1.0  0.27326  0.54140  0.58812  1.0000 -0.1920466483
C   C544      1.0  0.22674  0.45860  0.08812  1.0000 -0.1920466483
C   C545      1.0  0.91188  0.72674  0.04140  1.0000 -0.1920466483
C   C546      1.0  0.41188  0.77326  0.95860  1.0000 -0.1920466483
C   C547      1.0  0.58812  0.27326  0.54140  1.0000 -0.1920466483
C   C548      1.0  0.08812  0.22674  0.45860  1.0000 -0.1920466483
C   C549      1.0  0.04140  0.91188  0.72674  1.0000 -0.1920466483
C   C550      1.0  0.95860  0.41188  0.77326  1.0000 -0.1920466483
C   C551      1.0  0.54140  0.58812  0.27326  1.0000 -0.1920466483
C   C552      1.0  0.45860  0.08812  0.22674  1.0000 -0.1920466483
C   C553      1.0  0.29634  0.95720  0.10797  1.0000 0.1208275934
C   C554      1.0  0.20366  0.04280  0.60797  1.0000 0.1208275934
C   C555      1.0  0.70366  0.45720  0.39203  1.0000 0.1208275934
C   C556      1.0  0.79634  0.54280  0.89203  1.0000 0.1208275934
C   C557      1.0  0.10797  0.29634  0.95720  1.0000 0.1208275934
C   C558      1.0  0.60797  0.20366  0.04280  1.0000 0.1208275934
C   C559      1.0  0.39203  0.70366  0.45720  1.0000 0.1208275934
C   C560      1.0  0.89203  0.79634  0.54280  1.0000 0.1208275934
C   C561      1.0  0.95720  0.10797  0.29634  1.0000 0.1208275934
C   C562      1.0  0.04280  0.60797  0.20366  1.0000 0.1208275934
C   C563      1.0  0.45720  0.39203  0.70366  1.0000 0.1208275934
C   C564      1.0  0.54280  0.89203  0.79634  1.0000 0.1208275934
C   C565      1.0  0.70366  0.04280  0.89203  1.0000 0.1208275934
C   C566      1.0  0.79634  0.95720  0.39203  1.0000 0.1208275934
C   C567      1.0  0.29634  0.54280  0.60797  1.0000 0.1208275934
C   C568      1.0  0.20366  0.45720  0.10797  1.0000 0.1208275934
C   C569      1.0  0.89203  0.70366  0.04280  1.0000 0.1208275934
C   C570      1.0  0.39203  0.79634  0.95720  1.0000 0.1208275934
C   C571      1.0  0.60797  0.29634  0.54280  1.0000 0.1208275934
C   C572      1.0  0.10797  0.20366  0.45720  1.0000 0.1208275934
C   C573      1.0  0.04280  0.89203  0.70366  1.0000 0.1208275934
C   C574      1.0  0.95720  0.39203  0.79634  1.0000 0.1208275934
C   C575      1.0  0.54280  0.60797  0.29634  1.0000 0.1208275934
C   C576      1.0  0.45720  0.10797  0.20366  1.0000 0.1208275934
C   C577      1.0  0.32511  0.95830  0.09798  1.0000 -0.020525625
C   C578      1.0  0.17489  0.04170  0.59798  1.0000 -0.020525625
C   C579      1.0  0.67489  0.45830  0.40202  1.0000 -0.020525625
C   C580      1.0  0.82511  0.54170  0.90202  1.0000 -0.020525625
C   C581      1.0  0.09798  0.32511  0.95830  1.0000 -0.020525625
C   C582      1.0  0.59798  0.17489  0.04170  1.0000 -0.020525625
C   C583      1.0  0.40202  0.67489  0.45830  1.0000 -0.020525625
C   C584      1.0  0.90202  0.82511  0.54170  1.0000 -0.020525625
C   C585      1.0  0.95830  0.09798  0.32511  1.0000 -0.020525625
C   C586      1.0  0.04170  0.59798  0.17489  1.0000 -0.020525625
C   C587      1.0  0.45830  0.40202  0.67489  1.0000 -0.020525625
C   C588      1.0  0.54170  0.90202  0.82511  1.0000 -0.020525625
C   C589      1.0  0.67489  0.04170  0.90202  1.0000 -0.020525625
C   C590      1.0  0.82511  0.95830  0.40202  1.0000 -0.020525625
C   C591      1.0  0.32511  0.54170  0.59798  1.0000 -0.020525625
C   C592      1.0  0.17489  0.45830  0.09798  1.0000 -0.020525625
C   C593      1.0  0.90202  0.67489  0.04170  1.0000 -0.020525625
C   C594      1.0  0.40202  0.82511  0.95830  1.0000 -0.020525625
C   C595      1.0  0.59798  0.32511  0.54170  1.0000 -0.020525625
C   C596      1.0  0.09798  0.17489  0.45830  1.0000 -0.020525625
C   C597      1.0  0.04170  0.90202  0.67489  1.0000 -0.020525625
C   C598      1.0  0.95830  0.40202  0.82511  1.0000 -0.020525625
C   C599      1.0  0.54170  0.59798  0.32511  1.0000 -0.020525625
C   C600      1.0  0.45830  0.09798  0.17489  1.0000 -0.020525625
C   C601      1.0  0.33080  0.96072  0.06814  1.0000 -0.1103695008
C   C602      1.0  0.16920  0.03928  0.56814  1.0000 -0.1103695008
C   C603      1.0  0.66920  0.46072  0.43186  1.0000 -0.1103695008
C   C604      1.0  0.83080  0.53928  0.93186  1.0000 -0.1103695008
C   C605      1.0  0.06814  0.33080  0.96072  1.0000 -0.1103695008
C   C606      1.0  0.56814  0.16920  0.03928  1.0000 -0.1103695008
C   C607      1.0  0.43186  0.66920  0.46072  1.0000 -0.1103695008
C   C608      1.0  0.93186  0.83080  0.53928  1.0000 -0.1103695008
C   C609      1.0  0.96072  0.06814  0.33080  1.0000 -0.1103695008
C   C610      1.0  0.03928  0.56814  0.16920  1.0000 -0.1103695008
C   C611      1.0  0.46072  0.43186  0.66920  1.0000 -0.1103695008
C   C612      1.0  0.53928  0.93186  0.83080  1.0000 -0.1103695008
C   C613      1.0  0.66920  0.03928  0.93186  1.0000 -0.1103695008
C   C614      1.0  0.83080  0.96072  0.43186  1.0000 -0.1103695008
C   C615      1.0  0.33080  0.53928  0.56814  1.0000 -0.1103695008
C   C616      1.0  0.16920  0.46072  0.06814  1.0000 -0.1103695008
C   C617      1.0  0.93186  0.66920  0.03928  1.0000 -0.1103695008
C   C618      1.0  0.43186  0.83080  0.96072  1.0000 -0.1103695008
C   C619      1.0  0.56814  0.33080  0.53928  1.0000 -0.1103695008
C   C620      1.0  0.06814  0.16920  0.46072  1.0000 -0.1103695008
C   C621      1.0  0.03928  0.93186  0.66920  1.0000 -0.1103695008
C   C622      1.0  0.96072  0.43186  0.83080  1.0000 -0.1103695008
C   C623      1.0  0.53928  0.56814  0.33080  1.0000 -0.1103695008
C   C624      1.0  0.46072  0.06814  0.16920  1.0000 -0.1103695008
C   C625      1.0  0.33310  0.98050  0.90650  1.0000 0.5902416783
C   C626      1.0  0.16690  0.01950  0.40650  1.0000 0.5902416783
C   C627      1.0  0.66690  0.48050  0.59350  1.0000 0.5902416783
C   C628      1.0  0.83310  0.51950  0.09350  1.0000 0.5902416783
C   C629      1.0  0.90650  0.33310  0.98050  1.0000 0.5902416783
C   C630      1.0  0.40650  0.16690  0.01950  1.0000 0.5902416783
C   C631      1.0  0.59350  0.66690  0.48050  1.0000 0.5902416783
C   C632      1.0  0.09350  0.83310  0.51950  1.0000 0.5902416783
C   C633      1.0  0.98050  0.90650  0.33310  1.0000 0.5902416783
C   C634      1.0  0.01950  0.40650  0.16690  1.0000 0.5902416783
C   C635      1.0  0.48050  0.59350  0.66690  1.0000 0.5902416783
C   C636      1.0  0.51950  0.09350  0.83310  1.0000 0.5902416783
C   C637      1.0  0.66690  0.01950  0.09350  1.0000 0.5902416783
C   C638      1.0  0.83310  0.98050  0.59350  1.0000 0.5902416783
C   C639      1.0  0.33310  0.51950  0.40650  1.0000 0.5902416783
C   C640      1.0  0.16690  0.48050  0.90650  1.0000 0.5902416783
C   C641      1.0  0.09350  0.66690  0.01950  1.0000 0.5902416783
C   C642      1.0  0.59350  0.83310  0.98050  1.0000 0.5902416783
C   C643      1.0  0.40650  0.33310  0.51950  1.0000 0.5902416783
C   C644      1.0  0.90650  0.16690  0.48050  1.0000 0.5902416783
C   C645      1.0  0.01950  0.09350  0.66690  1.0000 0.5902416783
C   C646      1.0  0.98050  0.59350  0.83310  1.0000 0.5902416783
C   C647      1.0  0.51950  0.40650  0.33310  1.0000 0.5902416783
C   C648      1.0  0.48050  0.90650  0.16690  1.0000 0.5902416783
C   C649      1.0  0.41580  0.95673  0.16360  1.0000 0.5902416783
C   C650      1.0  0.08420  0.04327  0.66360  1.0000 0.5902416783
C   C651      1.0  0.58420  0.45673  0.33640  1.0000 0.5902416783
C   C652      1.0  0.91580  0.54327  0.83640  1.0000 0.5902416783
C   C653      1.0  0.16360  0.41580  0.95673  1.0000 0.5902416783
C   C654      1.0  0.66360  0.08420  0.04327  1.0000 0.5902416783
C   C655      1.0  0.33640  0.58420  0.45673  1.0000 0.5902416783
C   C656      1.0  0.83640  0.91580  0.54327  1.0000 0.5902416783
C   C657      1.0  0.95673  0.16360  0.41580  1.0000 0.5902416783
C   C658      1.0  0.04327  0.66360  0.08420  1.0000 0.5902416783
C   C659      1.0  0.45673  0.33640  0.58420  1.0000 0.5902416783
C   C660      1.0  0.54327  0.83640  0.91580  1.0000 0.5902416783
C   C661      1.0  0.58420  0.04327  0.83640  1.0000 0.5902416783
C   C662      1.0  0.91580  0.95673  0.33640  1.0000 0.5902416783
C   C663      1.0  0.41580  0.54327  0.66360  1.0000 0.5902416783
C   C664      1.0  0.08420  0.45673  0.16360  1.0000 0.5902416783
C   C665      1.0  0.83640  0.58420  0.04327  1.0000 0.5902416783
C   C666      1.0  0.33640  0.91580  0.95673  1.0000 0.5902416783
C   C667      1.0  0.66360  0.41580  0.54327  1.0000 0.5902416783
C   C668      1.0  0.16360  0.08420  0.45673  1.0000 0.5902416783
C   C669      1.0  0.04327  0.83640  0.58420  1.0000 0.5902416783
C   C670      1.0  0.95673  0.33640  0.91580  1.0000 0.5902416783
C   C671      1.0  0.54327  0.66360  0.41580  1.0000 0.5902416783
C   C672      1.0  0.45673  0.16360  0.08420  1.0000 0.5902416783
C   C673      1.0  0.22548  0.96370  0.19633  1.0000 0.0665310484
C   C674      1.0  0.27452  0.03630  0.69633  1.0000 0.0665310484
C   C675      1.0  0.77452  0.46370  0.30367  1.0000 0.0665310484
C   C676      1.0  0.72548  0.53630  0.80367  1.0000 0.0665310484
C   C677      1.0  0.19633  0.22548  0.96370  1.0000 0.0665310484
C   C678      1.0  0.69633  0.27452  0.03630  1.0000 0.0665310484
C   C679      1.0  0.30367  0.77452  0.46370  1.0000 0.0665310484
C   C680      1.0  0.80367  0.72548  0.53630  1.0000 0.0665310484
C   C681      1.0  0.96370  0.19633  0.22548  1.0000 0.0665310484
C   C682      1.0  0.03630  0.69633  0.27452  1.0000 0.0665310484
C   C683      1.0  0.46370  0.30367  0.77452  1.0000 0.0665310484
C   C684      1.0  0.53630  0.80367  0.72548  1.0000 0.0665310484
C   C685      1.0  0.77452  0.03630  0.80367  1.0000 0.0665310484
C   C686      1.0  0.72548  0.96370  0.30367  1.0000 0.0665310484
C   C687      1.0  0.22548  0.53630  0.69633  1.0000 0.0665310484
C   C688      1.0  0.27452  0.46370  0.19633  1.0000 0.0665310484
C   C689      1.0  0.80367  0.77452  0.03630  1.0000 0.0665310484
C   C690      1.0  0.30367  0.72548  0.96370  1.0000 0.0665310484
C   C691      1.0  0.69633  0.22548  0.53630  1.0000 0.0665310484
C   C692      1.0  0.19633  0.27452  0.46370  1.0000 0.0665310484
C   C693      1.0  0.03630  0.80367  0.77452  1.0000 0.0665310484
C   C694      1.0  0.96370  0.30367  0.72548  1.0000 0.0665310484
C   C695      1.0  0.53630  0.69633  0.22548  1.0000 0.0665310484
C   C696      1.0  0.46370  0.19633  0.27452  1.0000 0.0665310484
C   C697      1.0  0.23142  0.98545  0.17580  1.0000 -0.1479001671
C   C698      1.0  0.26858  0.01455  0.67580  1.0000 -0.1479001671
C   C699      1.0  0.76858  0.48545  0.32420  1.0000 -0.1479001671
C   C700      1.0  0.73142  0.51455  0.82420  1.0000 -0.1479001671
C   C701      1.0  0.17580  0.23142  0.98545  1.0000 -0.1479001671
C   C702      1.0  0.67580  0.26858  0.01455  1.0000 -0.1479001671
C   C703      1.0  0.32420  0.76858  0.48545  1.0000 -0.1479001671
C   C704      1.0  0.82420  0.73142  0.51455  1.0000 -0.1479001671
C   C705      1.0  0.98545  0.17580  0.23142  1.0000 -0.1479001671
C   C706      1.0  0.01455  0.67580  0.26858  1.0000 -0.1479001671
C   C707      1.0  0.48545  0.32420  0.76858  1.0000 -0.1479001671
C   C708      1.0  0.51455  0.82420  0.73142  1.0000 -0.1479001671
C   C709      1.0  0.76858  0.01455  0.82420  1.0000 -0.1479001671
C   C710      1.0  0.73142  0.98545  0.32420  1.0000 -0.1479001671
C   C711      1.0  0.23142  0.51455  0.67580  1.0000 -0.1479001671
C   C712      1.0  0.26858  0.48545  0.17580  1.0000 -0.1479001671
C   C713      1.0  0.82420  0.76858  0.01455  1.0000 -0.1479001671
C   C714      1.0  0.32420  0.73142  0.98545  1.0000 -0.1479001671
C   C715      1.0  0.67580  0.23142  0.51455  1.0000 -0.1479001671
C   C716      1.0  0.17580  0.26858  0.48545  1.0000 -0.1479001671
C   C717      1.0  0.01455  0.82420  0.76858  1.0000 -0.1479001671
C   C718      1.0  0.98545  0.32420  0.73142  1.0000 -0.1479001671
C   C719      1.0  0.51455  0.67580  0.23142  1.0000 -0.1479001671
C   C720      1.0  0.48545  0.17580  0.26858  1.0000 -0.1479001671
C   C721      1.0  0.25450  0.98200  0.15617  1.0000 -0.1920466483
C   C722      1.0  0.24550  0.01800  0.65617  1.0000 -0.1920466483
C   C723      1.0  0.74550  0.48200  0.34383  1.0000 -0.1920466483
C   C724      1.0  0.75450  0.51800  0.84383  1.0000 -0.1920466483
C   C725      1.0  0.15617  0.25450  0.98200  1.0000 -0.1920466483
C   C726      1.0  0.65617  0.24550  0.01800  1.0000 -0.1920466483
C   C727      1.0  0.34383  0.74550  0.48200  1.0000 -0.1920466483
C   C728      1.0  0.84383  0.75450  0.51800  1.0000 -0.1920466483
C   C729      1.0  0.98200  0.15617  0.25450  1.0000 -0.1920466483
C   C730      1.0  0.01800  0.65617  0.24550  1.0000 -0.1920466483
C   C731      1.0  0.48200  0.34383  0.74550  1.0000 -0.1920466483
C   C732      1.0  0.51800  0.84383  0.75450  1.0000 -0.1920466483
C   C733      1.0  0.74550  0.01800  0.84383  1.0000 -0.1920466483
C   C734      1.0  0.75450  0.98200  0.34383  1.0000 -0.1920466483
C   C735      1.0  0.25450  0.51800  0.65617  1.0000 -0.1920466483
C   C736      1.0  0.24550  0.48200  0.15617  1.0000 -0.1920466483
C   C737      1.0  0.84383  0.74550  0.01800  1.0000 -0.1920466483
C   C738      1.0  0.34383  0.75450  0.98200  1.0000 -0.1920466483
C   C739      1.0  0.65617  0.25450  0.51800  1.0000 -0.1920466483
C   C740      1.0  0.15617  0.24550  0.48200  1.0000 -0.1920466483
C   C741      1.0  0.01800  0.84383  0.74550  1.0000 -0.1920466483
C   C742      1.0  0.98200  0.34383  0.75450  1.0000 -0.1920466483
C   C743      1.0  0.51800  0.65617  0.25450  1.0000 -0.1920466483
C   C744      1.0  0.48200  0.15617  0.24550  1.0000 -0.1920466483
C   C745      1.0  0.27157  0.95680  0.15706  1.0000 0.1485130825
C   C746      1.0  0.22843  0.04320  0.65706  1.0000 0.1485130825
C   C747      1.0  0.72843  0.45680  0.34294  1.0000 0.1485130825
C   C748      1.0  0.77157  0.54320  0.84294  1.0000 0.1485130825
C   C749      1.0  0.15706  0.27157  0.95680  1.0000 0.1485130825
C   C750      1.0  0.65706  0.22843  0.04320  1.0000 0.1485130825
C   C751      1.0  0.34294  0.72843  0.45680  1.0000 0.1485130825
C   C752      1.0  0.84294  0.77157  0.54320  1.0000 0.1485130825
C   C753      1.0  0.95680  0.15706  0.27157  1.0000 0.1485130825
C   C754      1.0  0.04320  0.65706  0.22843  1.0000 0.1485130825
C   C755      1.0  0.45680  0.34294  0.72843  1.0000 0.1485130825
C   C756      1.0  0.54320  0.84294  0.77157  1.0000 0.1485130825
C   C757      1.0  0.72843  0.04320  0.84294  1.0000 0.1485130825
C   C758      1.0  0.77157  0.95680  0.34294  1.0000 0.1485130825
C   C759      1.0  0.27157  0.54320  0.65706  1.0000 0.1485130825
C   C760      1.0  0.22843  0.45680  0.15706  1.0000 0.1485130825
C   C761      1.0  0.84294  0.72843  0.04320  1.0000 0.1485130825
C   C762      1.0  0.34294  0.77157  0.95680  1.0000 0.1485130825
C   C763      1.0  0.65706  0.27157  0.54320  1.0000 0.1485130825
C   C764      1.0  0.15706  0.22843  0.45680  1.0000 0.1485130825
C   C765      1.0  0.04320  0.84294  0.72843  1.0000 0.1485130825
C   C766      1.0  0.95680  0.34294  0.77157  1.0000 0.1485130825
C   C767      1.0  0.54320  0.65706  0.27157  1.0000 0.1485130825
C   C768      1.0  0.45680  0.15706  0.22843  1.0000 0.1485130825
C   C769      1.0  0.26563  0.93500  0.17760  1.0000 -0.183073826
C   C770      1.0  0.23437  0.06500  0.67760  1.0000 -0.183073826
C   C771      1.0  0.73437  0.43500  0.32240  1.0000 -0.183073826
C   C772      1.0  0.76563  0.56500  0.82240  1.0000 -0.183073826
C   C773      1.0  0.17760  0.26563  0.93500  1.0000 -0.183073826
C   C774      1.0  0.67760  0.23437  0.06500  1.0000 -0.183073826
C   C775      1.0  0.32240  0.73437  0.43500  1.0000 -0.183073826
C   C776      1.0  0.82240  0.76563  0.56500  1.0000 -0.183073826
C   C777      1.0  0.93500  0.17760  0.26563  1.0000 -0.183073826
C   C778      1.0  0.06500  0.67760  0.23437  1.0000 -0.183073826
C   C779      1.0  0.43500  0.32240  0.73437  1.0000 -0.183073826
C   C780      1.0  0.56500  0.82240  0.76563  1.0000 -0.183073826
C   C781      1.0  0.73437  0.06500  0.82240  1.0000 -0.183073826
C   C782      1.0  0.76563  0.93500  0.32240  1.0000 -0.183073826
C   C783      1.0  0.26563  0.56500  0.67760  1.0000 -0.183073826
C   C784      1.0  0.23437  0.43500  0.17760  1.0000 -0.183073826
C   C785      1.0  0.82240  0.73437  0.06500  1.0000 -0.183073826
C   C786      1.0  0.32240  0.76563  0.93500  1.0000 -0.183073826
C   C787      1.0  0.67760  0.26563  0.56500  1.0000 -0.183073826
C   C788      1.0  0.17760  0.23437  0.43500  1.0000 -0.183073826
C   C789      1.0  0.06500  0.82240  0.73437  1.0000 -0.183073826
C   C790      1.0  0.93500  0.32240  0.76563  1.0000 -0.183073826
C   C791      1.0  0.56500  0.67760  0.26563  1.0000 -0.183073826
C   C792      1.0  0.43500  0.17760  0.23437  1.0000 -0.183073826
C   C793      1.0  0.24259  0.93850  0.19721  1.0000 -0.1559866951
C   C794      1.0  0.25741  0.06150  0.69721  1.0000 -0.1559866951
C   C795      1.0  0.75741  0.43850  0.30279  1.0000 -0.1559866951
C   C796      1.0  0.74259  0.56150  0.80279  1.0000 -0.1559866951
C   C797      1.0  0.19721  0.24259  0.93850  1.0000 -0.1559866951
C   C798      1.0  0.69721  0.25741  0.06150  1.0000 -0.1559866951
C   C799      1.0  0.30279  0.75741  0.43850  1.0000 -0.1559866951
C   C800      1.0  0.80279  0.74259  0.56150  1.0000 -0.1559866951
C   C801      1.0  0.93850  0.19721  0.24259  1.0000 -0.1559866951
C   C802      1.0  0.06150  0.69721  0.25741  1.0000 -0.1559866951
C   C803      1.0  0.43850  0.30279  0.75741  1.0000 -0.1559866951
C   C804      1.0  0.56150  0.80279  0.74259  1.0000 -0.1559866951
C   C805      1.0  0.75741  0.06150  0.80279  1.0000 -0.1559866951
C   C806      1.0  0.74259  0.93850  0.30279  1.0000 -0.1559866951
C   C807      1.0  0.24259  0.56150  0.69721  1.0000 -0.1559866951
C   C808      1.0  0.25741  0.43850  0.19721  1.0000 -0.1559866951
C   C809      1.0  0.80279  0.75741  0.06150  1.0000 -0.1559866951
C   C810      1.0  0.30279  0.74259  0.93850  1.0000 -0.1559866951
C   C811      1.0  0.69721  0.24259  0.56150  1.0000 -0.1559866951
C   C812      1.0  0.19721  0.25741  0.43850  1.0000 -0.1559866951
C   C813      1.0  0.06150  0.80279  0.75741  1.0000 -0.1559866951
C   C814      1.0  0.93850  0.30279  0.74259  1.0000 -0.1559866951
C   C815      1.0  0.56150  0.69721  0.24259  1.0000 -0.1559866951
C   C816      1.0  0.43850  0.19721  0.25741  1.0000 -0.1559866951
C   C817      1.0  0.26770  0.16560  0.97980  1.0000 0.1404923563
C   C818      1.0  0.23230  0.83440  0.47980  1.0000 0.1404923563
C   C819      1.0  0.73230  0.66560  0.52020  1.0000 0.1485130825
C   C820      1.0  0.76770  0.33440  0.02020  1.0000 0.1485130825
C   C821      1.0  0.97980  0.26770  0.16560  1.0000 0.1485130825
C   C822      1.0  0.47980  0.23230  0.83440  1.0000 0.1485130825
C   C823      1.0  0.52020  0.73230  0.66560  1.0000 0.1485130825
C   C824      1.0  0.02020  0.76770  0.33440  1.0000 0.1404923563
C   C825      1.0  0.16560  0.97980  0.26770  1.0000 0.1404923563
C   C826      1.0  0.83440  0.47980  0.23230  1.0000 0.1485130825
C   C827      1.0  0.66560  0.52020  0.73230  1.0000 0.1485130825
C   C828      1.0  0.33440  0.02020  0.76770  1.0000 0.1404923563
C   C829      1.0  0.73230  0.83440  0.02020  1.0000 0.1485130825
C   C830      1.0  0.76770  0.16560  0.52020  1.0000 0.1485130825
C   C831      1.0  0.26770  0.33440  0.47980  1.0000 0.1404923563
C   C832      1.0  0.23230  0.66560  0.97980  1.0000 0.1485130825
C   C833      1.0  0.02020  0.73230  0.83440  1.0000 0.1404923563
C   C834      1.0  0.52020  0.76770  0.16560  1.0000 0.1485130825
C   C835      1.0  0.47980  0.26770  0.33440  1.0000 0.1404923563
C   C836      1.0  0.97980  0.23230  0.66560  1.0000 0.1485130825
C   C837      1.0  0.83440  0.02020  0.73230  1.0000 0.1485130825
C   C838      1.0  0.16560  0.52020  0.76770  1.0000 0.1404923563
C   C839      1.0  0.33440  0.47980  0.26770  1.0000 0.1404923563
C   C840      1.0  0.66560  0.97980  0.23230  1.0000 0.1485130825
C   C841      1.0  0.26950  0.18710  0.95820  1.0000 -0.1920466483
C   C842      1.0  0.23050  0.81290  0.45820  1.0000 -0.1920466483
C   C843      1.0  0.73050  0.68710  0.54180  1.0000 -0.1920466483
C   C844      1.0  0.76950  0.31290  0.04180  1.0000 -0.1920466483
C   C845      1.0  0.95820  0.26950  0.18710  1.0000 -0.1920466483
C   C846      1.0  0.45820  0.23050  0.81290  1.0000 -0.1920466483
C   C847      1.0  0.54180  0.73050  0.68710  1.0000 -0.1920466483
C   C848      1.0  0.04180  0.76950  0.31290  1.0000 -0.1920466483
C   C849      1.0  0.18710  0.95820  0.26950  1.0000 -0.1920466483
C   C850      1.0  0.81290  0.45820  0.23050  1.0000 -0.1920466483
C   C851      1.0  0.68710  0.54180  0.73050  1.0000 -0.1920466483
C   C852      1.0  0.31290  0.04180  0.76950  1.0000 -0.1920466483
C   C853      1.0  0.73050  0.81290  0.04180  1.0000 -0.1920466483
C   C854      1.0  0.76950  0.18710  0.54180  1.0000 -0.1920466483
C   C855      1.0  0.26950  0.31290  0.45820  1.0000 -0.1920466483
C   C856      1.0  0.23050  0.68710  0.95820  1.0000 -0.1920466483
C   C857      1.0  0.04180  0.73050  0.81290  1.0000 -0.1920466483
C   C858      1.0  0.54180  0.76950  0.18710  1.0000 -0.1920466483
C   C859      1.0  0.45820  0.26950  0.31290  1.0000 -0.1920466483
C   C860      1.0  0.95820  0.23050  0.68710  1.0000 -0.1920466483
C   C861      1.0  0.81290  0.04180  0.73050  1.0000 -0.1920466483
C   C862      1.0  0.18710  0.54180  0.76950  1.0000 -0.1920466483
C   C863      1.0  0.31290  0.45820  0.26950  1.0000 -0.1920466483
C   C864      1.0  0.68710  0.95820  0.23050  1.0000 -0.1920466483
C   C865      1.0  0.24630  0.20650  0.95410  1.0000 -0.1431093786
C   C866      1.0  0.25370  0.79350  0.45410  1.0000 -0.1431093786
C   C867      1.0  0.75370  0.70650  0.54590  1.0000 -0.1431093786
C   C868      1.0  0.74630  0.29350  0.04590  1.0000 -0.1431093786
C   C869      1.0  0.95410  0.24630  0.20650  1.0000 -0.1431093786
C   C870      1.0  0.45410  0.25370  0.79350  1.0000 -0.1431093786
C   C871      1.0  0.54590  0.75370  0.70650  1.0000 -0.1431093786
C   C872      1.0  0.04590  0.74630  0.29350  1.0000 -0.1431093786
C   C873      1.0  0.20650  0.95410  0.24630  1.0000 -0.1431093786
C   C874      1.0  0.79350  0.45410  0.25370  1.0000 -0.1431093786
C   C875      1.0  0.70650  0.54590  0.75370  1.0000 -0.1431093786
C   C876      1.0  0.29350  0.04590  0.74630  1.0000 -0.1431093786
C   C877      1.0  0.75370  0.79350  0.04590  1.0000 -0.1431093786
C   C878      1.0  0.74630  0.20650  0.54590  1.0000 -0.1431093786
C   C879      1.0  0.24630  0.29350  0.45410  1.0000 -0.1431093786
C   C880      1.0  0.25370  0.70650  0.95410  1.0000 -0.1431093786
C   C881      1.0  0.04590  0.75370  0.79350  1.0000 -0.1431093786
C   C882      1.0  0.54590  0.74630  0.20650  1.0000 -0.1431093786
C   C883      1.0  0.45410  0.24630  0.29350  1.0000 -0.1431093786
C   C884      1.0  0.95410  0.25370  0.70650  1.0000 -0.1431093786
C   C885      1.0  0.79350  0.04590  0.75370  1.0000 -0.1431093786
C   C886      1.0  0.20650  0.54590  0.74630  1.0000 -0.1431093786
C   C887      1.0  0.29350  0.45410  0.24630  1.0000 -0.1431093786
C   C888      1.0  0.70650  0.95410  0.25370  1.0000 -0.1431093786
C   C889      1.0  0.22140  0.20440  0.97160  1.0000 0.0665310484
C   C890      1.0  0.27860  0.79560  0.47160  1.0000 0.0665310484
C   C891      1.0  0.77860  0.70440  0.52840  1.0000 0.0665310484
C   C892      1.0  0.72140  0.29560  0.02840  1.0000 0.0665310484
C   C893      1.0  0.97160  0.22140  0.20440  1.0000 0.0665310484
C   C894      1.0  0.47160  0.27860  0.79560  1.0000 0.0665310484
C   C895      1.0  0.52840  0.77860  0.70440  1.0000 0.0665310484
C   C896      1.0  0.02840  0.72140  0.29560  1.0000 0.0665310484
C   C897      1.0  0.20440  0.97160  0.22140  1.0000 0.0665310484
C   C898      1.0  0.79560  0.47160  0.27860  1.0000 0.0665310484
C   C899      1.0  0.70440  0.52840  0.77860  1.0000 0.0665310484
C   C900      1.0  0.29560  0.02840  0.72140  1.0000 0.0665310484
C   C901      1.0  0.77860  0.79560  0.02840  1.0000 0.0665310484
C   C902      1.0  0.72140  0.20440  0.52840  1.0000 0.0665310484
C   C903      1.0  0.22140  0.29560  0.47160  1.0000 0.0665310484
C   C904      1.0  0.27860  0.70440  0.97160  1.0000 0.0665310484
C   C905      1.0  0.02840  0.77860  0.79560  1.0000 0.0665310484
C   C906      1.0  0.52840  0.72140  0.20440  1.0000 0.0665310484
C   C907      1.0  0.47160  0.22140  0.29560  1.0000 0.0665310484
C   C908      1.0  0.97160  0.27860  0.70440  1.0000 0.0665310484
C   C909      1.0  0.79560  0.02840  0.77860  1.0000 0.0665310484
C   C910      1.0  0.20440  0.52840  0.72140  1.0000 0.0665310484
C   C911      1.0  0.29560  0.47160  0.22140  1.0000 0.0665310484
C   C912      1.0  0.70440  0.97160  0.27860  1.0000 0.0665310484
C   C913      1.0  0.21970  0.18300  0.99320  1.0000 -0.1479001671
C   C914      1.0  0.28030  0.81700  0.49320  1.0000 -0.1479001671
C   C915      1.0  0.78030  0.68300  0.50680  1.0000 -0.1479001671
C   C916      1.0  0.71970  0.31700  0.00680  1.0000 -0.1479001671
C   C917      1.0  0.99320  0.21970  0.18300  1.0000 -0.1479001671
C   C918      1.0  0.49320  0.28030  0.81700  1.0000 -0.1479001671
C   C919      1.0  0.50680  0.78030  0.68300  1.0000 -0.1479001671
C   C920      1.0  0.00680  0.71970  0.31700  1.0000 -0.1479001671
C   C921      1.0  0.18300  0.99320  0.21970  1.0000 -0.1479001671
C   C922      1.0  0.81700  0.49320  0.28030  1.0000 -0.1479001671
C   C923      1.0  0.68300  0.50680  0.78030  1.0000 -0.1479001671
C   C924      1.0  0.31700  0.00680  0.71970  1.0000 -0.1479001671
C   C925      1.0  0.78030  0.81700  0.00680  1.0000 -0.1479001671
C   C926      1.0  0.71970  0.18300  0.50680  1.0000 -0.1479001671
C   C927      1.0  0.21970  0.31700  0.49320  1.0000 -0.1479001671
C   C928      1.0  0.28030  0.68300  0.99320  1.0000 -0.1479001671
C   C929      1.0  0.00680  0.78030  0.81700  1.0000 -0.1479001671
C   C930      1.0  0.50680  0.71970  0.18300  1.0000 -0.1479001671
C   C931      1.0  0.49320  0.21970  0.31700  1.0000 -0.1479001671
C   C932      1.0  0.99320  0.28030  0.68300  1.0000 -0.1479001671
C   C933      1.0  0.81700  0.00680  0.78030  1.0000 -0.1479001671
C   C934      1.0  0.18300  0.50680  0.71970  1.0000 -0.1479001671
C   C935      1.0  0.31700  0.49320  0.21970  1.0000 -0.1479001671
C   C936      1.0  0.68300  0.99320  0.28030  1.0000 -0.1479001671
C   C937      1.0  0.24280  0.16360  0.99730  1.0000 -0.183073826
C   C938      1.0  0.25720  0.83640  0.49730  1.0000 -0.183073826
C   C939      1.0  0.75720  0.66360  0.50270  1.0000 -0.183073826
C   C940      1.0  0.74280  0.33640  0.00270  1.0000 -0.183073826
C   C941      1.0  0.99730  0.24280  0.16360  1.0000 -0.183073826
C   C942      1.0  0.49730  0.25720  0.83640  1.0000 -0.183073826
C   C943      1.0  0.50270  0.75720  0.66360  1.0000 -0.183073826
C   C944      1.0  0.00270  0.74280  0.33640  1.0000 -0.183073826
C   C945      1.0  0.16360  0.99730  0.24280  1.0000 -0.183073826
C   C946      1.0  0.83640  0.49730  0.25720  1.0000 -0.183073826
C   C947      1.0  0.66360  0.50270  0.75720  1.0000 -0.183073826
C   C948      1.0  0.33640  0.00270  0.74280  1.0000 -0.183073826
C   C949      1.0  0.75720  0.83640  0.00270  1.0000 -0.183073826
C   C950      1.0  0.74280  0.16360  0.50270  1.0000 -0.183073826
C   C951      1.0  0.24280  0.33640  0.49730  1.0000 -0.183073826
C   C952      1.0  0.25720  0.66360  0.99730  1.0000 -0.183073826
C   C953      1.0  0.00270  0.75720  0.83640  1.0000 -0.183073826
C   C954      1.0  0.50270  0.74280  0.16360  1.0000 -0.183073826
C   C955      1.0  0.49730  0.24280  0.33640  1.0000 -0.183073826
C   C956      1.0  0.99730  0.25720  0.66360  1.0000 -0.183073826
C   C957      1.0  0.83640  0.00270  0.75720  1.0000 -0.183073826
C   C958      1.0  0.16360  0.50270  0.74280  1.0000 -0.183073826
C   C959      1.0  0.33640  0.49730  0.24280  1.0000 -0.183073826
C   C960      1.0  0.66360  0.99730  0.25720  1.0000 -0.183073826
N   N1        1.0  0.29082  0.14449  0.98810  1.0000 -0.0781038697
N   N2        1.0  0.20918  0.85551  0.48810  1.0000 -0.0781038697
N   N3        1.0  0.70918  0.64449  0.51190  1.0000 -0.0781038697
N   N4        1.0  0.79082  0.35551  0.01190  1.0000 -0.0781038697
N   N5        1.0  0.98810  0.29082  0.14449  1.0000 -0.0781038697
N   N6        1.0  0.48810  0.20918  0.85551  1.0000 -0.0781038697
N   N7        1.0  0.51190  0.70918  0.64449  1.0000 -0.0781038697
N   N8        1.0  0.01190  0.79082  0.35551  1.0000 -0.0781038697
N   N9        1.0  0.14449  0.98810  0.29082  1.0000 -0.0781038697
N   N10       1.0  0.85551  0.48810  0.20918  1.0000 -0.0781038697
N   N11       1.0  0.64449  0.51190  0.70918  1.0000 -0.0781038697
N   N12       1.0  0.35551  0.01190  0.79082  1.0000 -0.0781038697
N   N13       1.0  0.70918  0.85551  0.01190  1.0000 -0.0781038697
N   N14       1.0  0.79082  0.14449  0.51190  1.0000 -0.0781038697
N   N15       1.0  0.29082  0.35551  0.48810  1.0000 -0.0781038697
N   N16       1.0  0.20918  0.64449  0.98810  1.0000 -0.0781038697
N   N17       1.0  0.01190  0.70918  0.85551  1.0000 -0.0781038697
N   N18       1.0  0.51190  0.79082  0.14449  1.0000 -0.0781038697
N   N19       1.0  0.48810  0.29082  0.35551  1.0000 -0.0781038697
N   N20       1.0  0.98810  0.20918  0.64449  1.0000 -0.0781038697
N   N21       1.0  0.85551  0.01190  0.70918  1.0000 -0.0781038697
N   N22       1.0  0.14449  0.51190  0.79082  1.0000 -0.0781038697
N   N23       1.0  0.35551  0.48810  0.29082  1.0000 -0.0781038697
N   N24       1.0  0.64449  0.98810  0.20918  1.0000 -0.0781038697
N   N25       1.0  0.29648  0.95230  0.13831  1.0000 -0.0919140433
N   N26       1.0  0.20352  0.04770  0.63831  1.0000 -0.0919140433
N   N27       1.0  0.70352  0.45230  0.36169  1.0000 -0.0919140433
N   N28       1.0  0.79648  0.54770  0.86169  1.0000 -0.0919140433
N   N29       1.0  0.13831  0.29648  0.95230  1.0000 -0.0919140433
N   N30       1.0  0.63831  0.20352  0.04770  1.0000 -0.0919140433
N   N31       1.0  0.36169  0.70352  0.45230  1.0000 -0.0919140433
N   N32       1.0  0.86169  0.79648  0.54770  1.0000 -0.0919140433
N   N33       1.0  0.95230  0.13831  0.29648  1.0000 -0.0919140433
N   N34       1.0  0.04770  0.63831  0.20352  1.0000 -0.0919140433
N   N35       1.0  0.45230  0.36169  0.70352  1.0000 -0.0919140433
N   N36       1.0  0.54770  0.86169  0.79648  1.0000 -0.0919140433
N   N37       1.0  0.70352  0.04770  0.86169  1.0000 -0.0919140433
N   N38       1.0  0.79648  0.95230  0.36169  1.0000 -0.0919140433
N   N39       1.0  0.29648  0.54770  0.63831  1.0000 -0.0919140433
N   N40       1.0  0.20352  0.45230  0.13831  1.0000 -0.0919140433
N   N41       1.0  0.86169  0.70352  0.04770  1.0000 -0.0919140433
N   N42       1.0  0.36169  0.79648  0.95230  1.0000 -0.0919140433
N   N43       1.0  0.63831  0.29648  0.54770  1.0000 -0.0919140433
N   N44       1.0  0.13831  0.20352  0.45230  1.0000 -0.0919140433
N   N45       1.0  0.04770  0.86169  0.70352  1.0000 -0.0919140433
N   N46       1.0  0.95230  0.36169  0.79648  1.0000 -0.0919140433
N   N47       1.0  0.54770  0.63831  0.29648  1.0000 -0.0919140433
N   N48       1.0  0.45230  0.13831  0.20352  1.0000 -0.0919140433
O   O1        1.0  0.34093  0.96667  0.00888  1.0000 -0.5303841207
O   O2        1.0  0.15907  0.03333  0.50888  1.0000 -0.5303841207
O   O3        1.0  0.65907  0.46667  0.49112  1.0000 -0.5303841207
O   O4        1.0  0.84093  0.53333  0.99112  1.0000 -0.5303841207
O   O5        1.0  0.00888  0.34093  0.96667  1.0000 -0.5303841207
O   O6        1.0  0.50888  0.15907  0.03333  1.0000 -0.5303841207
O   O7        1.0  0.49112  0.65907  0.46667  1.0000 -0.5303841207
O   O8        1.0  0.99112  0.84093  0.53333  1.0000 -0.5303841207
O   O9        1.0  0.96667  0.00888  0.34093  1.0000 -0.5303841207
O   O10       1.0  0.03333  0.50888  0.15907  1.0000 -0.5303841207
O   O11       1.0  0.46667  0.49112  0.65907  1.0000 -0.5303841207
O   O12       1.0  0.53333  0.99112  0.84093  1.0000 -0.5303841207
O   O13       1.0  0.65907  0.03333  0.99112  1.0000 -0.5303841207
O   O14       1.0  0.84093  0.96667  0.49112  1.0000 -0.5303841207
O   O15       1.0  0.34093  0.53333  0.50888  1.0000 -0.5303841207
O   O16       1.0  0.15907  0.46667  0.00888  1.0000 -0.5303841207
O   O17       1.0  0.99112  0.65907  0.03333  1.0000 -0.5303841207
O   O18       1.0  0.49112  0.84093  0.96667  1.0000 -0.5303841207
O   O19       1.0  0.50888  0.34093  0.53333  1.0000 -0.5303841207
O   O20       1.0  0.00888  0.15907  0.46667  1.0000 -0.5303841207
O   O21       1.0  0.03333  0.99112  0.65907  1.0000 -0.5303841207
O   O22       1.0  0.96667  0.49112  0.84093  1.0000 -0.5303841207
O   O23       1.0  0.53333  0.50888  0.34093  1.0000 -0.5303841207
O   O24       1.0  0.46667  0.00888  0.15907  1.0000 -0.5303841207
O   O25       1.0  0.29182  0.96445  0.99910  1.0000 -0.5717015761
O   O26       1.0  0.20818  0.03555  0.49910  1.0000 -0.5717015761
O   O27       1.0  0.70818  0.46445  0.50090  1.0000 -0.5717015761
O   O28       1.0  0.79182  0.53555  0.00090  1.0000 -0.5717015761
O   O29       1.0  0.99910  0.29182  0.96445  1.0000 -0.5717015761
O   O30       1.0  0.49910  0.20818  0.03555  1.0000 -0.5717015761
O   O31       1.0  0.50090  0.70818  0.46445  1.0000 -0.5717015761
O   O32       1.0  0.00090  0.79182  0.53555  1.0000 -0.5717015761
O   O33       1.0  0.96445  0.99910  0.29182  1.0000 -0.5717015761
O   O34       1.0  0.03555  0.49910  0.20818  1.0000 -0.5717015761
O   O35       1.0  0.46445  0.50090  0.70818  1.0000 -0.5717015761
O   O36       1.0  0.53555  0.00090  0.79182  1.0000 -0.5717015761
O   O37       1.0  0.70818  0.03555  0.00090  1.0000 -0.5717015761
O   O38       1.0  0.79182  0.96445  0.50090  1.0000 -0.5717015761
O   O39       1.0  0.29182  0.53555  0.49910  1.0000 -0.5717015761
O   O40       1.0  0.20818  0.46445  0.99910  1.0000 -0.5717015761
O   O41       1.0  0.00090  0.70818  0.03555  1.0000 -0.5717015761
O   O42       1.0  0.50090  0.79182  0.96445  1.0000 -0.5717015761
O   O43       1.0  0.49910  0.29182  0.53555  1.0000 -0.5717015761
O   O44       1.0  0.99910  0.20818  0.46445  1.0000 -0.5717015761
O   O45       1.0  0.03555  0.00090  0.70818  1.0000 -0.5717015761
O   O46       1.0  0.96445  0.50090  0.79182  1.0000 -0.5717015761
O   O47       1.0  0.53555  0.49910  0.29182  1.0000 -0.5717015761
O   O48       1.0  0.46445  0.99910  0.20818  1.0000 -0.5717015761
O   O49       1.0  0.35407  0.98415  0.92531  1.0000 -0.55791152
O   O50       1.0  0.14593  0.01585  0.42531  1.0000 -0.55791152
O   O51       1.0  0.64593  0.48415  0.57469  1.0000 -0.55791152
O   O52       1.0  0.85407  0.51585  0.07469  1.0000 -0.55791152
O   O53       1.0  0.92531  0.35407  0.98415  1.0000 -0.55791152
O   O54       1.0  0.42531  0.14593  0.01585  1.0000 -0.55791152
O   O55       1.0  0.57469  0.64593  0.48415  1.0000 -0.55791152
O   O56       1.0  0.07469  0.85407  0.51585  1.0000 -0.55791152
O   O57       1.0  0.98415  0.92531  0.35407  1.0000 -0.55791152
O   O58       1.0  0.01585  0.42531  0.14593  1.0000 -0.55791152
O   O59       1.0  0.48415  0.57469  0.64593  1.0000 -0.55791152
O   O60       1.0  0.51585  0.07469  0.85407  1.0000 -0.55791152
O   O61       1.0  0.64593  0.01585  0.07469  1.0000 -0.55791152
O   O62       1.0  0.85407  0.98415  0.57469  1.0000 -0.55791152
O   O63       1.0  0.35407  0.51585  0.42531  1.0000 -0.55791152
O   O64       1.0  0.14593  0.48415  0.92531  1.0000 -0.55791152
O   O65       1.0  0.07469  0.64593  0.01585  1.0000 -0.55791152
O   O66       1.0  0.57469  0.85407  0.98415  1.0000 -0.55791152
O   O67       1.0  0.42531  0.35407  0.51585  1.0000 -0.55791152
O   O68       1.0  0.92531  0.14593  0.48415  1.0000 -0.55791152
O   O69       1.0  0.01585  0.07469  0.64593  1.0000 -0.55791152
O   O70       1.0  0.98415  0.57469  0.85407  1.0000 -0.55791152
O   O71       1.0  0.51585  0.42531  0.35407  1.0000 -0.55791152
O   O72       1.0  0.48415  0.92531  0.14593  1.0000 -0.55791152
O   O73       1.0  0.30696  0.96966  0.91454  1.0000 -0.5810701647
O   O74       1.0  0.19304  0.03034  0.41454  1.0000 -0.5810701647
O   O75       1.0  0.69304  0.46966  0.58546  1.0000 -0.5810701647
O   O76       1.0  0.80696  0.53034  0.08546  1.0000 -0.5810701647
O   O77       1.0  0.91454  0.30696  0.96966  1.0000 -0.5810701647
O   O78       1.0  0.41454  0.19304  0.03034  1.0000 -0.5810701647
O   O79       1.0  0.58546  0.69304  0.46966  1.0000 -0.5810701647
O   O80       1.0  0.08546  0.80696  0.53034  1.0000 -0.5810701647
O   O81       1.0  0.96966  0.91454  0.30696  1.0000 -0.5810701647
O   O82       1.0  0.03034  0.41454  0.19304  1.0000 -0.5810701647
O   O83       1.0  0.46966  0.58546  0.69304  1.0000 -0.5810701647
O   O84       1.0  0.53034  0.08546  0.80696  1.0000 -0.5810701647
O   O85       1.0  0.69304  0.03034  0.08546  1.0000 -0.5810701647
O   O86       1.0  0.80696  0.96966  0.58546  1.0000 -0.5810701647
O   O87       1.0  0.30696  0.53034  0.41454  1.0000 -0.5810701647
O   O88       1.0  0.19304  0.46966  0.91454  1.0000 -0.5810701647
O   O89       1.0  0.08546  0.69304  0.03034  1.0000 -0.5810701647
O   O90       1.0  0.58546  0.80696  0.96966  1.0000 -0.5810701647
O   O91       1.0  0.41454  0.30696  0.53034  1.0000 -0.5810701647
O   O92       1.0  0.91454  0.19304  0.46966  1.0000 -0.5810701647
O   O93       1.0  0.03034  0.08546  0.69304  1.0000 -0.5810701647
O   O94       1.0  0.96966  0.58546  0.80696  1.0000 -0.5810701647
O   O95       1.0  0.53034  0.41454  0.30696  1.0000 -0.5810701647
O   O96       1.0  0.46966  0.91454  0.19304  1.0000 -0.5810701647
O   O97       1.0  0.33746  0.01739  0.97445  1.0000 -0.5303841207
O   O98       1.0  0.16254  0.98261  0.47445  1.0000 -0.5303841207
O   O99       1.0  0.66254  0.51739  0.52555  1.0000 -0.5303841207
O   O100      1.0  0.83746  0.48261  0.02555  1.0000 -0.5303841207
O   O101      1.0  0.97445  0.33746  0.01739  1.0000 -0.5303841207
O   O102      1.0  0.47445  0.16254  0.98261  1.0000 -0.5303841207
O   O103      1.0  0.52555  0.66254  0.51739  1.0000 -0.5303841207
O   O104      1.0  0.02555  0.83746  0.48261  1.0000 -0.5303841207
O   O105      1.0  0.01739  0.97445  0.33746  1.0000 -0.5303841207
O   O106      1.0  0.98261  0.47445  0.16254  1.0000 -0.5303841207
O   O107      1.0  0.51739  0.52555  0.66254  1.0000 -0.5303841207
O   O108      1.0  0.48261  0.02555  0.83746  1.0000 -0.5303841207
O   O109      1.0  0.66254  0.98261  0.02555  1.0000 -0.5303841207
O   O110      1.0  0.83746  0.01739  0.52555  1.0000 -0.5303841207
O   O111      1.0  0.33746  0.48261  0.47445  1.0000 -0.5303841207
O   O112      1.0  0.16254  0.51739  0.97445  1.0000 -0.5303841207
O   O113      1.0  0.02555  0.66254  0.98261  1.0000 -0.5303841207
O   O114      1.0  0.52555  0.83746  0.01739  1.0000 -0.5303841207
O   O115      1.0  0.47445  0.33746  0.48261  1.0000 -0.5303841207
O   O116      1.0  0.97445  0.16254  0.51739  1.0000 -0.5303841207
O   O117      1.0  0.98261  0.02555  0.66254  1.0000 -0.5303841207
O   O118      1.0  0.01739  0.52555  0.83746  1.0000 -0.5303841207
O   O119      1.0  0.48261  0.47445  0.33746  1.0000 -0.5303841207
O   O120      1.0  0.51739  0.97445  0.16254  1.0000 -0.5303841207
O   O121      1.0  0.29118  0.00859  0.95835  1.0000 -0.5717015761
O   O122      1.0  0.20882  0.99141  0.45835  1.0000 -0.5717015761
O   O123      1.0  0.70882  0.50859  0.54165  1.0000 -0.5717015761
O   O124      1.0  0.79118  0.49141  0.04165  1.0000 -0.5717015761
O   O125      1.0  0.95835  0.29118  0.00859  1.0000 -0.5717015761
O   O126      1.0  0.45835  0.20882  0.99141  1.0000 -0.5717015761
O   O127      1.0  0.54165  0.70882  0.50859  1.0000 -0.5717015761
O   O128      1.0  0.04165  0.79118  0.49141  1.0000 -0.5717015761
O   O129      1.0  0.00859  0.95835  0.29118  1.0000 -0.5717015761
O   O130      1.0  0.99141  0.45835  0.20882  1.0000 -0.5717015761
O   O131      1.0  0.50859  0.54165  0.70882  1.0000 -0.5717015761
O   O132      1.0  0.49141  0.04165  0.79118  1.0000 -0.5717015761
O   O133      1.0  0.70882  0.99141  0.04165  1.0000 -0.5717015761
O   O134      1.0  0.79118  0.00859  0.54165  1.0000 -0.5717015761
O   O135      1.0  0.29118  0.49141  0.45835  1.0000 -0.5717015761
O   O136      1.0  0.20882  0.50859  0.95835  1.0000 -0.5717015761
O   O137      1.0  0.04165  0.70882  0.99141  1.0000 -0.5717015761
O   O138      1.0  0.54165  0.79118  0.00859  1.0000 -0.5717015761
O   O139      1.0  0.45835  0.29118  0.49141  1.0000 -0.5717015761
O   O140      1.0  0.95835  0.20882  0.50859  1.0000 -0.5717015761
O   O141      1.0  0.99141  0.04165  0.70882  1.0000 -0.5717015761
O   O142      1.0  0.00859  0.54165  0.79118  1.0000 -0.5717015761
O   O143      1.0  0.49141  0.45835  0.29118  1.0000 -0.5717015761
O   O144      1.0  0.50859  0.95835  0.20882  1.0000 -0.5717015761
O   O145      1.0  0.43361  0.95957  0.14113  1.0000 -0.55791152
O   O146      1.0  0.06639  0.04043  0.64113  1.0000 -0.55791152
O   O147      1.0  0.56639  0.45957  0.35887  1.0000 -0.55791152
O   O148      1.0  0.93361  0.54043  0.85887  1.0000 -0.55791152
O   O149      1.0  0.14113  0.43361  0.95957  1.0000 -0.55791152
O   O150      1.0  0.64113  0.06639  0.04043  1.0000 -0.55791152
O   O151      1.0  0.35887  0.56639  0.45957  1.0000 -0.55791152
O   O152      1.0  0.85887  0.93361  0.54043  1.0000 -0.55791152
O   O153      1.0  0.95957  0.14113  0.43361  1.0000 -0.55791152
O   O154      1.0  0.04043  0.64113  0.06639  1.0000 -0.55791152
O   O155      1.0  0.45957  0.35887  0.56639  1.0000 -0.55791152
O   O156      1.0  0.54043  0.85887  0.93361  1.0000 -0.55791152
O   O157      1.0  0.56639  0.04043  0.85887  1.0000 -0.55791152
O   O158      1.0  0.93361  0.95957  0.35887  1.0000 -0.55791152
O   O159      1.0  0.43361  0.54043  0.64113  1.0000 -0.55791152
O   O160      1.0  0.06639  0.45957  0.14113  1.0000 -0.55791152
O   O161      1.0  0.85887  0.56639  0.04043  1.0000 -0.55791152
O   O162      1.0  0.35887  0.93361  0.95957  1.0000 -0.55791152
O   O163      1.0  0.64113  0.43361  0.54043  1.0000 -0.55791152
O   O164      1.0  0.14113  0.06639  0.45957  1.0000 -0.55791152
O   O165      1.0  0.04043  0.85887  0.56639  1.0000 -0.55791152
O   O166      1.0  0.95957  0.35887  0.93361  1.0000 -0.55791152
O   O167      1.0  0.54043  0.64113  0.43361  1.0000 -0.55791152
O   O168      1.0  0.45957  0.14113  0.06639  1.0000 -0.55791152
O   O169      1.0  0.42479  0.95690  0.19009  1.0000 -0.5456511426
O   O170      1.0  0.07521  0.04310  0.69009  1.0000 -0.5456511426
O   O171      1.0  0.57521  0.45690  0.30991  1.0000 -0.5456511426
O   O172      1.0  0.92479  0.54310  0.80991  1.0000 -0.5456511426
O   O173      1.0  0.19009  0.42479  0.95690  1.0000 -0.5456511426
O   O174      1.0  0.69009  0.07521  0.04310  1.0000 -0.5456511426
O   O175      1.0  0.30991  0.57521  0.45690  1.0000 -0.5456511426
O   O176      1.0  0.80991  0.92479  0.54310  1.0000 -0.5456511426
O   O177      1.0  0.95690  0.19009  0.42479  1.0000 -0.5456511426
O   O178      1.0  0.04310  0.69009  0.07521  1.0000 -0.5456511426
O   O179      1.0  0.45690  0.30991  0.57521  1.0000 -0.5456511426
O   O180      1.0  0.54310  0.80991  0.92479  1.0000 -0.5456511426
O   O181      1.0  0.57521  0.04310  0.80991  1.0000 -0.5456511426
O   O182      1.0  0.92479  0.95690  0.30991  1.0000 -0.5456511426
O   O183      1.0  0.42479  0.54310  0.69009  1.0000 -0.5456511426
O   O184      1.0  0.07521  0.45690  0.19009  1.0000 -0.5456511426
O   O185      1.0  0.80991  0.57521  0.04310  1.0000 -0.5456511426
O   O186      1.0  0.30991  0.92479  0.95690  1.0000 -0.5456511426
O   O187      1.0  0.69009  0.42479  0.54310  1.0000 -0.5456511426
O   O188      1.0  0.19009  0.07521  0.45690  1.0000 -0.5456511426
O   O189      1.0  0.04310  0.80991  0.57521  1.0000 -0.5456511426
O   O190      1.0  0.95690  0.30991  0.92479  1.0000 -0.5456511426
O   O191      1.0  0.54310  0.69009  0.42479  1.0000 -0.5456511426
O   O192      1.0  0.45690  0.19009  0.07521  1.0000 -0.5456511426
