# generated by PACMAN-DDEC6 charge (https://github.com/sxm13/PACMAN/)
data_structure
_chemical_formula_sum              "Al16 H136 C216 S8 O96"
_cell_length_a       18.1729
_cell_length_b       18.1729
_cell_length_c       37.6737
_cell_angle_alpha    90
_cell_angle_beta     90
_cell_angle_gamma    90

_symmetry_space_group_name_H-M    "P 1"
_symmetry_Int_Tables_number       1

loop_
  _symmetry_equiv_pos_as_xyz
  'x, y, z'

loop_
  _atom_site_type_symbol
  _atom_site_label
  _atom_site_symmetry_multiplicity
  _atom_site_fract_x
  _atom_site_fract_y
  _atom_site_fract_z
  _atom_site_occupancy
  _atom_site_charge
Al  Al1       1.0  0.90880  0.14214  0.07729  1.0000 1.6729008177
Al  Al2       1.0  0.09120  0.85786  0.07729  1.0000 1.6729008177
Al  Al3       1.0  0.35786  0.40880  0.57729  1.0000 1.6729008177
Al  Al4       1.0  0.64214  0.59120  0.57729  1.0000 1.6729008177
Al  Al5       1.0  0.59120  0.64214  0.42271  1.0000 1.6729008177
Al  Al6       1.0  0.40880  0.35786  0.42271  1.0000 1.6729008177
Al  Al7       1.0  0.14214  0.90880  0.92271  1.0000 1.6729008177
Al  Al8       1.0  0.85786  0.09120  0.92271  1.0000 1.6729008177
Al  Al9       1.0  0.82609  0.17391  0.00000  1.0000 1.6814682702
Al  Al10      1.0  0.17391  0.82609  0.00000  1.0000 1.6814682702
Al  Al11      1.0  0.32609  0.32609  0.50000  1.0000 1.6814682702
Al  Al12      1.0  0.67391  0.67391  0.50000  1.0000 1.6814682702
Al  Al13      1.0  0.00000  0.00000  0.10915  1.0000 1.638656191
Al  Al14      1.0  0.50000  0.50000  0.60915  1.0000 1.638656191
Al  Al15      1.0  0.50000  0.50000  0.39085  1.0000 1.638656191
Al  Al16      1.0  0.00000  0.00000  0.89085  1.0000 1.638656191
H   H1        1.0  0.01071  0.07006  0.05520  1.0000 0.4300431694
H   H2        1.0  0.87043  0.06447  0.02945  1.0000 0.4300431694
H   H3        1.0  0.16592  0.28850  0.32567  1.0000 0.1200060596
H   H4        1.0  0.12975  0.27960  0.44774  1.0000 0.1390232885
H   H5        1.0  0.26681  0.27786  0.36299  1.0000 0.1323256767
H   H6        1.0  0.01265  0.08950  0.21035  1.0000 0.1390232885
H   H7        1.0  0.91143  0.26534  0.16708  1.0000 0.1390232885
H   H8        1.0  0.03030  0.28827  0.41122  1.0000 0.1200060596
H   H9        1.0  0.06086  0.23841  0.30008  1.0000 0.1200060596
H   H10       1.0  0.90988  0.32302  0.22262  1.0000 0.1200060596
H   H11       1.0  0.01235  0.14719  0.26527  1.0000 0.1200060596
H   H12       1.0  0.79934  0.55025  0.38673  1.0000 0.1323256767
H   H13       1.0  0.96868  0.37500  0.37229  1.0000 0.1200060596
H   H14       1.0  0.66354  0.39255  0.34825  1.0000 0.1323256767
H   H15       1.0  0.86094  0.32806  0.28091  1.0000 0.1200060596
H   H16       1.0  0.89987  0.48749  0.36237  1.0000 0.1200060596
H   H17       1.0  0.76198  0.33219  0.32306  1.0000 0.1200060596
H   H18       1.0  0.98929  0.92994  0.05520  1.0000 0.4353822986
H   H19       1.0  0.12957  0.93553  0.02945  1.0000 0.4300431694
H   H20       1.0  0.83408  0.71150  0.32567  1.0000 0.1200060596
H   H21       1.0  0.87025  0.72040  0.44774  1.0000 0.1390232885
H   H22       1.0  0.73319  0.72214  0.36299  1.0000 0.1323256767
H   H23       1.0  0.98735  0.91050  0.21035  1.0000 0.1390232885
H   H24       1.0  0.08857  0.73466  0.16708  1.0000 0.1390232885
H   H25       1.0  0.96970  0.71173  0.41122  1.0000 0.1200060596
H   H26       1.0  0.93914  0.76159  0.30008  1.0000 0.1200060596
H   H27       1.0  0.09012  0.67698  0.22262  1.0000 0.1200060596
H   H28       1.0  0.98765  0.85281  0.26527  1.0000 0.1200060596
H   H29       1.0  0.20066  0.44975  0.38673  1.0000 0.1323256767
H   H30       1.0  0.03132  0.62500  0.37229  1.0000 0.1200060596
H   H31       1.0  0.33646  0.60745  0.34825  1.0000 0.1323256767
H   H32       1.0  0.13906  0.67194  0.28091  1.0000 0.1200060596
H   H33       1.0  0.10013  0.51251  0.36237  1.0000 0.1200060596
H   H34       1.0  0.23802  0.66781  0.32306  1.0000 0.1200060596
H   H35       1.0  0.42994  0.51071  0.55520  1.0000 0.4353822986
H   H36       1.0  0.43553  0.37043  0.52945  1.0000 0.4300431694
H   H37       1.0  0.21150  0.66592  0.82567  1.0000 0.1200060596
H   H38       1.0  0.22040  0.62975  0.94774  1.0000 0.1390232885
H   H39       1.0  0.22214  0.76681  0.86299  1.0000 0.1323256767
H   H40       1.0  0.41050  0.51265  0.71035  1.0000 0.1390232885
H   H41       1.0  0.23466  0.41143  0.66708  1.0000 0.1390232885
H   H42       1.0  0.21173  0.53030  0.91122  1.0000 0.1200060596
H   H43       1.0  0.26159  0.56086  0.80008  1.0000 0.1200060596
H   H44       1.0  0.17698  0.40988  0.72262  1.0000 0.1200060596
H   H45       1.0  0.35281  0.51235  0.76527  1.0000 0.1200060596
H   H46       1.0  0.94975  0.29934  0.88673  1.0000 0.1323256767
H   H47       1.0  0.12500  0.46868  0.87229  1.0000 0.1200060596
H   H48       1.0  0.10745  0.16354  0.84825  1.0000 0.1323256767
H   H49       1.0  0.17194  0.36094  0.78091  1.0000 0.1200060596
H   H50       1.0  0.01251  0.39987  0.86237  1.0000 0.1200060596
H   H51       1.0  0.16781  0.26198  0.82306  1.0000 0.1200060596
H   H52       1.0  0.57006  0.48929  0.55520  1.0000 0.4353822986
H   H53       1.0  0.56447  0.62957  0.52945  1.0000 0.4300431694
H   H54       1.0  0.78850  0.33408  0.82567  1.0000 0.1200060596
H   H55       1.0  0.77960  0.37025  0.94774  1.0000 0.1390232885
H   H56       1.0  0.77786  0.23319  0.86299  1.0000 0.1323256767
H   H57       1.0  0.58950  0.48735  0.71035  1.0000 0.1390232885
H   H58       1.0  0.76534  0.58857  0.66708  1.0000 0.1390232885
H   H59       1.0  0.78827  0.46970  0.91122  1.0000 0.1200060596
H   H60       1.0  0.73841  0.43914  0.80008  1.0000 0.1200060596
H   H61       1.0  0.82302  0.59012  0.72262  1.0000 0.1200060596
H   H62       1.0  0.64719  0.48765  0.76527  1.0000 0.1200060596
H   H63       1.0  0.05025  0.70066  0.88673  1.0000 0.1323256767
H   H64       1.0  0.87500  0.53132  0.87229  1.0000 0.1200060596
H   H65       1.0  0.89255  0.83646  0.84825  1.0000 0.1323256767
H   H66       1.0  0.82806  0.63906  0.78091  1.0000 0.1200060596
H   H67       1.0  0.98749  0.60013  0.86237  1.0000 0.1200060596
H   H68       1.0  0.83219  0.73802  0.82306  1.0000 0.1200060596
H   H69       1.0  0.48929  0.57006  0.44480  1.0000 0.4353822986
H   H70       1.0  0.62957  0.56447  0.47055  1.0000 0.4300431694
H   H71       1.0  0.33408  0.78850  0.17433  1.0000 0.1200060596
H   H72       1.0  0.37025  0.77960  0.05226  1.0000 0.1390232885
H   H73       1.0  0.23319  0.77786  0.13701  1.0000 0.1323256767
H   H74       1.0  0.48735  0.58950  0.28965  1.0000 0.1390232885
H   H75       1.0  0.58857  0.76534  0.33292  1.0000 0.1390232885
H   H76       1.0  0.46970  0.78827  0.08878  1.0000 0.1200060596
H   H77       1.0  0.43914  0.73841  0.19992  1.0000 0.1200060596
H   H78       1.0  0.59012  0.82302  0.27738  1.0000 0.1200060596
H   H79       1.0  0.48765  0.64719  0.23473  1.0000 0.1200060596
H   H80       1.0  0.70066  0.05025  0.11327  1.0000 0.1323256767
H   H81       1.0  0.53132  0.87500  0.12771  1.0000 0.1200060596
H   H82       1.0  0.83646  0.89255  0.15175  1.0000 0.1323256767
H   H83       1.0  0.63906  0.82806  0.21909  1.0000 0.1200060596
H   H84       1.0  0.60013  0.98749  0.13763  1.0000 0.1200060596
H   H85       1.0  0.73802  0.83219  0.17694  1.0000 0.1200060596
H   H86       1.0  0.51071  0.42994  0.44480  1.0000 0.4353822986
H   H87       1.0  0.37043  0.43553  0.47055  1.0000 0.4300431694
H   H88       1.0  0.66592  0.21150  0.17433  1.0000 0.1200060596
H   H89       1.0  0.62975  0.22040  0.05226  1.0000 0.1390232885
H   H90       1.0  0.76681  0.22214  0.13701  1.0000 0.1323256767
H   H91       1.0  0.51265  0.41050  0.28965  1.0000 0.1390232885
H   H92       1.0  0.41143  0.23466  0.33292  1.0000 0.1390232885
H   H93       1.0  0.53030  0.21173  0.08878  1.0000 0.1200060596
H   H94       1.0  0.56086  0.26159  0.19992  1.0000 0.1200060596
H   H95       1.0  0.40988  0.17698  0.27738  1.0000 0.1200060596
H   H96       1.0  0.51235  0.35281  0.23473  1.0000 0.1200060596
H   H97       1.0  0.29934  0.94975  0.11327  1.0000 0.1323256767
H   H98       1.0  0.46868  0.12500  0.12771  1.0000 0.1200060596
H   H99       1.0  0.16354  0.10745  0.15175  1.0000 0.1323256767
H   H100      1.0  0.36094  0.17194  0.21909  1.0000 0.1200060596
H   H101      1.0  0.39987  0.01251  0.13763  1.0000 0.1200060596
H   H102      1.0  0.26198  0.16781  0.17694  1.0000 0.1200060596
H   H103      1.0  0.07006  0.01071  0.94480  1.0000 0.4353822986
H   H104      1.0  0.06447  0.87043  0.97055  1.0000 0.4300431694
H   H105      1.0  0.28850  0.16592  0.67433  1.0000 0.1200060596
H   H106      1.0  0.27960  0.12975  0.55226  1.0000 0.1390232885
H   H107      1.0  0.27786  0.26681  0.63701  1.0000 0.1323256767
H   H108      1.0  0.08950  0.01265  0.78965  1.0000 0.1390232885
H   H109      1.0  0.26534  0.91143  0.83292  1.0000 0.1390232885
H   H110      1.0  0.28827  0.03030  0.58878  1.0000 0.1200060596
H   H111      1.0  0.23841  0.06086  0.69992  1.0000 0.1200060596
H   H112      1.0  0.32302  0.90988  0.77738  1.0000 0.1200060596
H   H113      1.0  0.14719  0.01235  0.73473  1.0000 0.1200060596
H   H114      1.0  0.55025  0.79934  0.61327  1.0000 0.1323256767
H   H115      1.0  0.37500  0.96868  0.62771  1.0000 0.1200060596
H   H116      1.0  0.39255  0.66354  0.65175  1.0000 0.1323256767
H   H117      1.0  0.32806  0.86094  0.71909  1.0000 0.1200060596
H   H118      1.0  0.48749  0.89987  0.63763  1.0000 0.1200060596
H   H119      1.0  0.33219  0.76198  0.67694  1.0000 0.1200060596
H   H120      1.0  0.92994  0.98929  0.94480  1.0000 0.4353822986
H   H121      1.0  0.93553  0.12957  0.97055  1.0000 0.4300431694
H   H122      1.0  0.71150  0.83408  0.67433  1.0000 0.1200060596
H   H123      1.0  0.72040  0.87025  0.55226  1.0000 0.1390232885
H   H124      1.0  0.72214  0.73319  0.63701  1.0000 0.1323256767
H   H125      1.0  0.91050  0.98735  0.78965  1.0000 0.1390232885
H   H126      1.0  0.73466  0.08857  0.83292  1.0000 0.1390232885
H   H127      1.0  0.71173  0.96970  0.58878  1.0000 0.1200060596
H   H128      1.0  0.76159  0.93914  0.69992  1.0000 0.1200060596
H   H129      1.0  0.67698  0.09012  0.77738  1.0000 0.1200060596
H   H130      1.0  0.85281  0.98765  0.73473  1.0000 0.1200060596
H   H131      1.0  0.44975  0.20066  0.61327  1.0000 0.1323256767
H   H132      1.0  0.62500  0.03132  0.62771  1.0000 0.1200060596
H   H133      1.0  0.60745  0.33646  0.65175  1.0000 0.1323256767
H   H134      1.0  0.67194  0.13906  0.71909  1.0000 0.1200060596
H   H135      1.0  0.51251  0.10013  0.63763  1.0000 0.1200060596
H   H136      1.0  0.66781  0.23802  0.67694  1.0000 0.1200060596
C   C1        1.0  0.96207  0.13541  0.14802  1.0000 0.6360772556
C   C2        1.0  0.65590  0.51151  0.38709  1.0000 0.6320676544
C   C3        1.0  0.15852  0.28726  0.35062  1.0000 -0.1476468003
C   C4        1.0  0.13699  0.28127  0.42278  1.0000 -0.0802253425
C   C5        1.0  0.72151  0.47620  0.37088  1.0000 -0.0327755136
C   C6        1.0  0.21865  0.28045  0.37272  1.0000 -0.0802253425
C   C7        1.0  0.96106  0.24106  0.24958  1.0000 0.0882000132
C   C8        1.0  0.27311  0.28158  0.43297  1.0000 0.6360772556
C   C9        1.0  0.99185  0.13722  0.21268  1.0000 -0.0898372816
C   C10       1.0  0.96066  0.27713  0.28539  1.0000 0.0882000132
C   C11       1.0  0.08839  0.29228  0.36375  1.0000 0.0818907721
C   C12       1.0  0.02402  0.30301  0.34040  1.0000 0.0818907721
C   C13       1.0  0.96241  0.17153  0.18358  1.0000 -0.0422430437
C   C14       1.0  0.20859  0.27738  0.40924  1.0000 -0.0327755136
C   C15       1.0  0.93184  0.24115  0.18715  1.0000 -0.0802253425
C   C16       1.0  0.07845  0.28730  0.40142  1.0000 -0.1390751768
C   C17       1.0  0.84105  0.40204  0.34176  1.0000 0.0882000132
C   C18       1.0  0.02096  0.26846  0.30751  1.0000 -0.1911347644
C   C19       1.0  0.93113  0.27551  0.22023  1.0000 -0.1390751768
C   C20       1.0  0.99147  0.17153  0.24535  1.0000 -0.1476468003
C   C21       1.0  0.79201  0.50520  0.37444  1.0000 -0.0802253425
C   C22       1.0  0.96611  0.34911  0.35042  1.0000 -0.1973720096
C   C23       1.0  0.71177  0.41164  0.35137  1.0000 -0.0802253425
C   C24       1.0  0.90238  0.32182  0.29598  1.0000 -0.1973720096
C   C25       1.0  0.90504  0.35746  0.32885  1.0000 0.0882000132
C   C26       1.0  0.85167  0.46791  0.35990  1.0000 -0.1476468003
C   C27       1.0  0.76990  0.37544  0.33670  1.0000 -0.1390751768
C   C28       1.0  0.03793  0.86459  0.14802  1.0000 0.6360772556
C   C29       1.0  0.34410  0.48849  0.38709  1.0000 0.6320676544
C   C30       1.0  0.84148  0.71274  0.35062  1.0000 -0.1476468003
C   C31       1.0  0.86301  0.71873  0.42278  1.0000 -0.0802253425
C   C32       1.0  0.27849  0.52380  0.37088  1.0000 -0.0327755136
C   C33       1.0  0.78135  0.71955  0.37272  1.0000 -0.0802253425
C   C34       1.0  0.03894  0.75894  0.24958  1.0000 0.0818907721
C   C35       1.0  0.72689  0.71842  0.43297  1.0000 0.6360772556
C   C36       1.0  0.00815  0.86278  0.21268  1.0000 -0.0898372816
C   C37       1.0  0.03934  0.72287  0.28539  1.0000 0.0882000132
C   C38       1.0  0.91161  0.70772  0.36375  1.0000 0.0818907721
C   C39       1.0  0.97598  0.69699  0.34040  1.0000 0.0818907721
C   C40       1.0  0.03759  0.82847  0.18358  1.0000 -0.0422430437
C   C41       1.0  0.79141  0.72262  0.40924  1.0000 -0.0327755136
C   C42       1.0  0.06816  0.75885  0.18715  1.0000 -0.0802253425
C   C43       1.0  0.92155  0.71270  0.40142  1.0000 -0.1390751768
C   C44       1.0  0.15895  0.59796  0.34176  1.0000 0.0882000132
C   C45       1.0  0.97904  0.73154  0.30751  1.0000 -0.1911347644
C   C46       1.0  0.06887  0.72449  0.22023  1.0000 -0.1390751768
C   C47       1.0  0.00853  0.82847  0.24535  1.0000 -0.1476468003
C   C48       1.0  0.20799  0.49480  0.37444  1.0000 -0.0802253425
C   C49       1.0  0.03389  0.65089  0.35042  1.0000 -0.1973720096
C   C50       1.0  0.28823  0.58836  0.35137  1.0000 -0.0802253425
C   C51       1.0  0.09762  0.67818  0.29598  1.0000 -0.1973720096
C   C52       1.0  0.09496  0.64254  0.32885  1.0000 0.0882000132
C   C53       1.0  0.14833  0.53209  0.35990  1.0000 -0.1476468003
C   C54       1.0  0.23010  0.62456  0.33670  1.0000 -0.1390751768
C   C55       1.0  0.36459  0.46207  0.64802  1.0000 0.6360772556
C   C56       1.0  0.98849  0.15590  0.88709  1.0000 0.6320676544
C   C57       1.0  0.21274  0.65852  0.85062  1.0000 -0.1476468003
C   C58       1.0  0.21873  0.63699  0.92278  1.0000 -0.0802253425
C   C59       1.0  0.02380  0.22151  0.87088  1.0000 -0.0327755136
C   C60       1.0  0.21955  0.71865  0.87272  1.0000 -0.0802253425
C   C61       1.0  0.25894  0.46106  0.74958  1.0000 0.0818907721
C   C62       1.0  0.21842  0.77311  0.93297  1.0000 0.6360772556
C   C63       1.0  0.36278  0.49185  0.71268  1.0000 -0.0898372816
C   C64       1.0  0.22287  0.46066  0.78539  1.0000 0.0882000132
C   C65       1.0  0.20772  0.58839  0.86375  1.0000 0.0818907721
C   C66       1.0  0.19699  0.52402  0.84040  1.0000 0.0818907721
C   C67       1.0  0.32847  0.46241  0.68358  1.0000 -0.0422430437
C   C68       1.0  0.22262  0.70859  0.90924  1.0000 -0.0327755136
C   C69       1.0  0.25885  0.43184  0.68715  1.0000 -0.0802253425
C   C70       1.0  0.21270  0.57845  0.90142  1.0000 -0.1390751768
C   C71       1.0  0.09796  0.34105  0.84176  1.0000 0.0882000132
C   C72       1.0  0.23154  0.52096  0.80751  1.0000 -0.1911347644
C   C73       1.0  0.22449  0.43113  0.72023  1.0000 -0.1390751768
C   C74       1.0  0.32847  0.49147  0.74535  1.0000 -0.1476468003
C   C75       1.0  0.99480  0.29201  0.87444  1.0000 -0.0802253425
C   C76       1.0  0.15089  0.46611  0.85042  1.0000 -0.1973720096
C   C77       1.0  0.08836  0.21177  0.85137  1.0000 -0.0802253425
C   C78       1.0  0.17818  0.40238  0.79598  1.0000 -0.1973720096
C   C79       1.0  0.14254  0.40504  0.82885  1.0000 0.0882000132
C   C80       1.0  0.03209  0.35167  0.85990  1.0000 -0.1476468003
C   C81       1.0  0.12456  0.26990  0.83670  1.0000 -0.1390751768
C   C82       1.0  0.63541  0.53793  0.64802  1.0000 0.6360772556
C   C83       1.0  0.01151  0.84410  0.88709  1.0000 0.6320676544
C   C84       1.0  0.78726  0.34148  0.85062  1.0000 -0.1476468003
C   C85       1.0  0.78127  0.36301  0.92278  1.0000 -0.0802253425
C   C86       1.0  0.97620  0.77849  0.87088  1.0000 -0.0327755136
C   C87       1.0  0.78045  0.28135  0.87272  1.0000 -0.0802253425
C   C88       1.0  0.74106  0.53894  0.74958  1.0000 0.0818907721
C   C89       1.0  0.78158  0.22689  0.93297  1.0000 0.6360772556
C   C90       1.0  0.63722  0.50815  0.71268  1.0000 -0.0898372816
C   C91       1.0  0.77713  0.53934  0.78539  1.0000 0.0882000132
C   C92       1.0  0.79228  0.41161  0.86375  1.0000 0.0818907721
C   C93       1.0  0.80301  0.47598  0.84040  1.0000 0.0818907721
C   C94       1.0  0.67153  0.53759  0.68358  1.0000 -0.0422430437
C   C95       1.0  0.77738  0.29141  0.90924  1.0000 -0.0422430437
C   C96       1.0  0.74115  0.56816  0.68715  1.0000 -0.0802253425
C   C97       1.0  0.78730  0.42155  0.90142  1.0000 -0.1390751768
C   C98       1.0  0.90204  0.65895  0.84176  1.0000 0.0882000132
C   C99       1.0  0.76846  0.47904  0.80751  1.0000 -0.1911347644
C   C100      1.0  0.77551  0.56887  0.72023  1.0000 -0.1390751768
C   C101      1.0  0.67153  0.50853  0.74535  1.0000 -0.1476468003
C   C102      1.0  0.00520  0.70799  0.87444  1.0000 -0.0802253425
C   C103      1.0  0.84911  0.53389  0.85042  1.0000 -0.1973720096
C   C104      1.0  0.91164  0.78823  0.85137  1.0000 -0.0802253425
C   C105      1.0  0.82182  0.59762  0.79598  1.0000 -0.1973720096
C   C106      1.0  0.85746  0.59496  0.82885  1.0000 0.0882000132
C   C107      1.0  0.96791  0.64833  0.85990  1.0000 -0.1476468003
C   C108      1.0  0.87544  0.73010  0.83670  1.0000 -0.1390751768
C   C109      1.0  0.53793  0.63541  0.35198  1.0000 0.6360772556
C   C110      1.0  0.84410  0.01151  0.11291  1.0000 0.6320676544
C   C111      1.0  0.34148  0.78726  0.14938  1.0000 -0.1476468003
C   C112      1.0  0.36301  0.78127  0.07722  1.0000 -0.0802253425
C   C113      1.0  0.77849  0.97620  0.12912  1.0000 -0.0327755136
C   C114      1.0  0.28135  0.78045  0.12728  1.0000 -0.0802253425
C   C115      1.0  0.53894  0.74106  0.25042  1.0000 0.0818907721
C   C116      1.0  0.22689  0.78158  0.06703  1.0000 0.6320676544
C   C117      1.0  0.50815  0.63722  0.28732  1.0000 -0.0898372816
C   C118      1.0  0.53934  0.77713  0.21461  1.0000 0.0882000132
C   C119      1.0  0.41161  0.79228  0.13625  1.0000 0.0818907721
C   C120      1.0  0.47598  0.80301  0.15960  1.0000 0.0818907721
C   C121      1.0  0.53759  0.67153  0.31642  1.0000 -0.0422430437
C   C122      1.0  0.29141  0.77738  0.09076  1.0000 -0.0327755136
C   C123      1.0  0.56816  0.74115  0.31285  1.0000 -0.0802253425
C   C124      1.0  0.42155  0.78730  0.09858  1.0000 -0.1390751768
C   C125      1.0  0.65895  0.90204  0.15824  1.0000 0.0882000132
C   C126      1.0  0.47904  0.76846  0.19249  1.0000 -0.1911347644
C   C127      1.0  0.56887  0.77551  0.27977  1.0000 -0.1476468003
C   C128      1.0  0.50853  0.67153  0.25465  1.0000 -0.1476468003
C   C129      1.0  0.70799  0.00520  0.12556  1.0000 -0.0802253425
C   C130      1.0  0.53389  0.84911  0.14958  1.0000 -0.1973720096
C   C131      1.0  0.78823  0.91164  0.14863  1.0000 -0.0802253425
C   C132      1.0  0.59762  0.82182  0.20402  1.0000 -0.1973720096
C   C133      1.0  0.59496  0.85746  0.17115  1.0000 0.0882000132
C   C134      1.0  0.64833  0.96791  0.14010  1.0000 -0.1476468003
C   C135      1.0  0.73010  0.87544  0.16330  1.0000 -0.1390751768
C   C136      1.0  0.46207  0.36459  0.35198  1.0000 0.6360772556
C   C137      1.0  0.15590  0.98849  0.11291  1.0000 0.6320676544
C   C138      1.0  0.65852  0.21274  0.14938  1.0000 -0.1476468003
C   C139      1.0  0.63699  0.21873  0.07722  1.0000 -0.0802253425
C   C140      1.0  0.22151  0.02380  0.12912  1.0000 -0.0327755136
C   C141      1.0  0.71865  0.21955  0.12728  1.0000 -0.0802253425
C   C142      1.0  0.46106  0.25894  0.25042  1.0000 0.0818907721
C   C143      1.0  0.77311  0.21842  0.06703  1.0000 0.6320676544
C   C144      1.0  0.49185  0.36278  0.28732  1.0000 -0.0898372816
C   C145      1.0  0.46066  0.22287  0.21461  1.0000 0.0882000132
C   C146      1.0  0.58839  0.20772  0.13625  1.0000 0.0818907721
C   C147      1.0  0.52402  0.19699  0.15960  1.0000 0.0818907721
C   C148      1.0  0.46241  0.32847  0.31642  1.0000 -0.0422430437
C   C149      1.0  0.70859  0.22262  0.09076  1.0000 -0.0327755136
C   C150      1.0  0.43184  0.25885  0.31285  1.0000 -0.0802253425
C   C151      1.0  0.57845  0.21270  0.09858  1.0000 -0.1390751768
C   C152      1.0  0.34105  0.09796  0.15824  1.0000 0.0882000132
C   C153      1.0  0.52096  0.23154  0.19249  1.0000 -0.1911347644
C   C154      1.0  0.43113  0.22449  0.27977  1.0000 -0.1476468003
C   C155      1.0  0.49147  0.32847  0.25465  1.0000 -0.1476468003
C   C156      1.0  0.29201  0.99480  0.12556  1.0000 -0.0802253425
C   C157      1.0  0.46611  0.15089  0.14958  1.0000 -0.1973720096
C   C158      1.0  0.21177  0.08836  0.14863  1.0000 -0.0802253425
C   C159      1.0  0.40238  0.17818  0.20402  1.0000 -0.1973720096
C   C160      1.0  0.40504  0.14254  0.17115  1.0000 0.0882000132
C   C161      1.0  0.35167  0.03209  0.14010  1.0000 -0.1476468003
C   C162      1.0  0.26990  0.12456  0.16330  1.0000 -0.1390751768
C   C163      1.0  0.13541  0.96207  0.85198  1.0000 0.6360772556
C   C164      1.0  0.51151  0.65590  0.61291  1.0000 0.6320676544
C   C165      1.0  0.28726  0.15852  0.64938  1.0000 -0.1476468003
C   C166      1.0  0.28127  0.13699  0.57722  1.0000 -0.0802253425
C   C167      1.0  0.47620  0.72151  0.62912  1.0000 -0.0327755136
C   C168      1.0  0.28045  0.21865  0.62728  1.0000 -0.0802253425
C   C169      1.0  0.24106  0.96106  0.75042  1.0000 0.0818907721
C   C170      1.0  0.28158  0.27311  0.56703  1.0000 0.6360772556
C   C171      1.0  0.13722  0.99185  0.78732  1.0000 -0.0898372816
C   C172      1.0  0.27713  0.96066  0.71461  1.0000 0.0882000132
C   C173      1.0  0.29228  0.08839  0.63625  1.0000 0.0818907721
C   C174      1.0  0.30301  0.02402  0.65960  1.0000 0.0818907721
C   C175      1.0  0.17153  0.96241  0.81642  1.0000 -0.0422430437
C   C176      1.0  0.27738  0.20859  0.59076  1.0000 -0.0327755136
C   C177      1.0  0.24115  0.93184  0.81285  1.0000 -0.0802253425
C   C178      1.0  0.28730  0.07845  0.59858  1.0000 -0.1390751768
C   C179      1.0  0.40204  0.84105  0.65824  1.0000 0.0882000132
C   C180      1.0  0.26846  0.02096  0.69249  1.0000 -0.1911347644
C   C181      1.0  0.27551  0.93113  0.77977  1.0000 -0.1390751768
C   C182      1.0  0.17153  0.99147  0.75465  1.0000 -0.1476468003
C   C183      1.0  0.50520  0.79201  0.62556  1.0000 -0.0802253425
C   C184      1.0  0.34911  0.96611  0.64958  1.0000 -0.1973720096
C   C185      1.0  0.41164  0.71177  0.64863  1.0000 -0.0802253425
C   C186      1.0  0.32182  0.90238  0.70402  1.0000 -0.1973720096
C   C187      1.0  0.35746  0.90504  0.67115  1.0000 0.0882000132
C   C188      1.0  0.46791  0.85167  0.64010  1.0000 -0.1476468003
C   C189      1.0  0.37544  0.76990  0.66330  1.0000 -0.1390751768
C   C190      1.0  0.86459  0.03793  0.85198  1.0000 0.6360772556
C   C191      1.0  0.48849  0.34410  0.61291  1.0000 0.6320676544
C   C192      1.0  0.71274  0.84148  0.64938  1.0000 -0.1476468003
C   C193      1.0  0.71873  0.86301  0.57722  1.0000 -0.0802253425
C   C194      1.0  0.52380  0.27849  0.62912  1.0000 -0.0327755136
C   C195      1.0  0.71955  0.78135  0.62728  1.0000 -0.0802253425
C   C196      1.0  0.75894  0.03894  0.75042  1.0000 0.0882000132
C   C197      1.0  0.71842  0.72689  0.56703  1.0000 0.6360772556
C   C198      1.0  0.86278  0.00815  0.78732  1.0000 -0.0898372816
C   C199      1.0  0.72287  0.03934  0.71461  1.0000 0.0882000132
C   C200      1.0  0.70772  0.91161  0.63625  1.0000 0.0818907721
C   C201      1.0  0.69699  0.97598  0.65960  1.0000 0.0818907721
C   C202      1.0  0.82847  0.03759  0.81642  1.0000 -0.0422430437
C   C203      1.0  0.72262  0.79141  0.59076  1.0000 -0.0327755136
C   C204      1.0  0.75885  0.06816  0.81285  1.0000 -0.0802253425
C   C205      1.0  0.71270  0.92155  0.59858  1.0000 -0.1390751768
C   C206      1.0  0.59796  0.15895  0.65824  1.0000 0.0882000132
C   C207      1.0  0.73154  0.97904  0.69249  1.0000 -0.1911347644
C   C208      1.0  0.72449  0.06887  0.77977  1.0000 -0.1390751768
C   C209      1.0  0.82847  0.00853  0.75465  1.0000 -0.1476468003
C   C210      1.0  0.49480  0.20799  0.62556  1.0000 -0.0802253425
C   C211      1.0  0.65089  0.03389  0.64958  1.0000 -0.1973720096
C   C212      1.0  0.58836  0.28823  0.64863  1.0000 -0.0802253425
C   C213      1.0  0.67818  0.09762  0.70402  1.0000 -0.1973720096
C   C214      1.0  0.64254  0.09496  0.67115  1.0000 0.0882000132
C   C215      1.0  0.53209  0.14833  0.64010  1.0000 -0.1476468003
C   C216      1.0  0.62456  0.23010  0.66330  1.0000 -0.1390751768
S   S1        1.0  0.97357  0.24453  0.01961  0.8600 1.4538564304
S   S2        1.0  0.02643  0.75547  0.01961  0.8600 1.4557112077
S   S3        1.0  0.25547  0.47357  0.51961  0.8600 1.4557112077
S   S4        1.0  0.74453  0.52643  0.51961  0.8600 1.4557112077
S   S5        1.0  0.52643  0.74453  0.48039  0.8600 1.4557112077
S   S6        1.0  0.47357  0.25547  0.48039  0.8600 1.4557112077
S   S7        1.0  0.24453  0.97357  0.98039  0.8600 1.4557112077
S   S8        1.0  0.75547  0.02643  0.98039  0.8600 1.4538564304
O   O1        1.0  0.89691  0.25046  0.00814  0.8600 -0.6788137188
O   O2        1.0  0.01346  0.19718  0.99466  0.8600 -0.6100293925
O   O3        1.0  0.00766  0.31490  0.02055  0.8600 -0.5349023124
O   O4        1.0  0.10309  0.74954  0.00814  0.8600 -0.6788137188
O   O5        1.0  0.98654  0.80282  0.99466  0.8600 -0.6100293925
O   O6        1.0  0.99234  0.68510  0.02055  0.8600 -0.5349023124
O   O7        1.0  0.24954  0.39691  0.50814  0.8600 -0.6788137188
O   O8        1.0  0.30282  0.51346  0.49466  0.8600 -0.6100293925
O   O9        1.0  0.18510  0.50766  0.52055  0.8600 -0.5349023124
O   O10       1.0  0.75046  0.60309  0.50814  0.8600 -0.6788137188
O   O11       1.0  0.69718  0.48654  0.49466  0.8600 -0.6100293925
O   O12       1.0  0.81490  0.49234  0.52055  0.8600 -0.5349023124
O   O13       1.0  0.60309  0.75046  0.49186  0.8600 -0.6788137188
O   O14       1.0  0.48654  0.69718  0.50534  0.8600 -0.6100293925
O   O15       1.0  0.49234  0.81490  0.47945  0.8600 -0.539777864
O   O16       1.0  0.39691  0.24954  0.49186  0.8600 -0.6788137188
O   O17       1.0  0.51346  0.30282  0.50534  0.8600 -0.6100293925
O   O18       1.0  0.50766  0.18510  0.47945  0.8600 -0.539777864
O   O19       1.0  0.25046  0.89691  0.99186  0.8600 -0.6788137188
O   O20       1.0  0.19718  0.01346  0.00534  0.8600 -0.6100293925
O   O21       1.0  0.31490  0.00766  0.97945  0.8600 -0.5349023124
O   O22       1.0  0.74954  0.10309  0.99186  0.8600 -0.6788137188
O   O23       1.0  0.80282  0.98654  0.00534  0.8600 -0.6100293925
O   O24       1.0  0.68510  0.99234  0.97945  0.8600 -0.539777864
O   O25       1.0  0.98040  0.07050  0.07574  1.0000 -0.9877893558
O   O26       1.0  0.94098  0.17400  0.12224  1.0000 -0.5525803348
O   O27       1.0  0.98201  0.06912  0.14682  1.0000 -0.5702443029
O   O28       1.0  0.86895  0.11561  0.03462  1.0000 -1.0100602886
O   O29       1.0  0.66047  0.57679  0.39803  1.0000 -0.5702443029
O   O30       1.0  0.59896  0.47220  0.38824  1.0000 -0.578521811
O   O31       1.0  0.33577  0.28444  0.41838  1.0000 -0.5702443029
O   O32       1.0  0.26132  0.28387  0.46598  1.0000 -0.539777864
O   O33       1.0  0.97518  0.21156  0.05615  1.0000 -0.7089740565
O   O34       1.0  0.01960  0.92950  0.07574  1.0000 -0.9877893558
O   O35       1.0  0.05902  0.82600  0.12224  1.0000 -0.5525803348
O   O36       1.0  0.01799  0.93088  0.14682  1.0000 -0.5702443029
O   O37       1.0  0.13105  0.88439  0.03462  1.0000 -1.0100602886
O   O38       1.0  0.33953  0.42321  0.39803  1.0000 -0.5702443029
O   O39       1.0  0.40104  0.52780  0.38824  1.0000 -0.578521811
O   O40       1.0  0.66423  0.71556  0.41838  1.0000 -0.5702443029
O   O41       1.0  0.73868  0.71613  0.46598  1.0000 -0.539777864
O   O42       1.0  0.02482  0.78844  0.05615  1.0000 -0.7089740565
O   O43       1.0  0.42950  0.48040  0.57574  1.0000 -0.9877893558
O   O44       1.0  0.32600  0.44098  0.62224  1.0000 -0.5525803348
O   O45       1.0  0.43088  0.48201  0.64682  1.0000 -0.5702443029
O   O46       1.0  0.38439  0.36895  0.53462  1.0000 -1.0100602886
O   O47       1.0  0.92321  0.16047  0.89803  1.0000 -0.5702443029
O   O48       1.0  0.02780  0.09896  0.88824  1.0000 -0.578521811
O   O49       1.0  0.21556  0.83577  0.91838  1.0000 -0.5702443029
O   O50       1.0  0.21613  0.76132  0.96598  1.0000 -0.539777864
O   O51       1.0  0.28844  0.47518  0.55615  1.0000 -0.7089740565
O   O52       1.0  0.57050  0.51960  0.57574  1.0000 -0.9877893558
O   O53       1.0  0.67400  0.55902  0.62224  1.0000 -0.5525803348
O   O54       1.0  0.56912  0.51799  0.64682  1.0000 -0.5702443029
O   O55       1.0  0.61561  0.63105  0.53462  1.0000 -1.0100602886
O   O56       1.0  0.07679  0.83953  0.89803  1.0000 -0.5702443029
O   O57       1.0  0.97220  0.90104  0.88824  1.0000 -0.578521811
O   O58       1.0  0.78444  0.16423  0.91838  1.0000 -0.5702443029
O   O59       1.0  0.78387  0.23868  0.96598  1.0000 -0.539777864
O   O60       1.0  0.71156  0.52482  0.55615  1.0000 -0.7089740565
O   O61       1.0  0.51960  0.57050  0.42426  1.0000 -0.9877893558
O   O62       1.0  0.55902  0.67400  0.37776  1.0000 -0.5525803348
O   O63       1.0  0.51799  0.56912  0.35318  1.0000 -0.5702443029
O   O64       1.0  0.63105  0.61561  0.46538  1.0000 -1.0100602886
O   O65       1.0  0.83953  0.07679  0.10197  1.0000 -0.5702443029
O   O66       1.0  0.90104  0.97220  0.11176  1.0000 -0.578521811
O   O67       1.0  0.16423  0.78444  0.08162  1.0000 -0.5702443029
O   O68       1.0  0.23868  0.78387  0.03402  1.0000 -0.539777864
O   O69       1.0  0.52482  0.71156  0.44385  1.0000 -0.7089740565
O   O70       1.0  0.48040  0.42950  0.42426  1.0000 -0.9877893558
O   O71       1.0  0.44098  0.32600  0.37776  1.0000 -0.5525803348
O   O72       1.0  0.48201  0.43088  0.35318  1.0000 -0.5702443029
O   O73       1.0  0.36895  0.38439  0.46538  1.0000 -1.0100602886
O   O74       1.0  0.16047  0.92321  0.10197  1.0000 -0.5702443029
O   O75       1.0  0.09896  0.02780  0.11176  1.0000 -0.578521811
O   O76       1.0  0.83577  0.21556  0.08162  1.0000 -0.5702443029
O   O77       1.0  0.76132  0.21613  0.03402  1.0000 -0.539777864
O   O78       1.0  0.47518  0.28844  0.44385  1.0000 -0.7089740565
O   O79       1.0  0.07050  0.98040  0.92426  1.0000 -0.9877893558
O   O80       1.0  0.17400  0.94098  0.87776  1.0000 -0.5525803348
O   O81       1.0  0.06912  0.98201  0.85318  1.0000 -0.5702443029
O   O82       1.0  0.11561  0.86895  0.96538  1.0000 -1.0100602886
O   O83       1.0  0.57679  0.66047  0.60197  1.0000 -0.5702443029
O   O84       1.0  0.47220  0.59896  0.61176  1.0000 -0.578521811
O   O85       1.0  0.28444  0.33577  0.58162  1.0000 -0.5702443029
O   O86       1.0  0.28387  0.26132  0.53402  1.0000 -0.539777864
O   O87       1.0  0.21156  0.97518  0.94385  1.0000 -0.7089740565
O   O88       1.0  0.92950  0.01960  0.92426  1.0000 -0.9877893558
O   O89       1.0  0.82600  0.05902  0.87776  1.0000 -0.5525803348
O   O90       1.0  0.93088  0.01799  0.85318  1.0000 -0.5702443029
O   O91       1.0  0.88439  0.13105  0.96538  1.0000 -1.0100602886
O   O92       1.0  0.42321  0.33953  0.60197  1.0000 -0.5702443029
O   O93       1.0  0.52780  0.40104  0.61176  1.0000 -0.578521811
O   O94       1.0  0.71556  0.66423  0.58162  1.0000 -0.5702443029
O   O95       1.0  0.71613  0.73868  0.53402  1.0000 -0.539777864
O   O96       1.0  0.78844  0.02482  0.94385  1.0000 -0.7089740565
