# DDEC6 charges by PACMAN v1.1 (https://github.com/mtap-research/PACMAN-charge/)
data_c7cc06022j2_3_FSR_pacman
_symmetry_space_group_name_H-M   'P 1'
_cell_length_a   24.53410000
_cell_length_b   13.24620000
_cell_length_c   27.71340000
_cell_angle_alpha   90.00000000
_cell_angle_beta   90.00000000
_cell_angle_gamma   90.00000000
_symmetry_Int_Tables_number   1
_chemical_formula_structural   Zn12Si7H96(C21O8)8
_chemical_formula_sum   'Zn12 Si7 H96 C168 O64'
_cell_volume   9006.40037331
_cell_formula_units_Z   1
loop_
 _symmetry_equiv_pos_site_id
 _symmetry_equiv_pos_as_xyz
  1  'x, y, z'
loop_
 _atom_site_type_symbol
 _atom_site_label
 _atom_site_symmetry_multiplicity
 _atom_site_fract_x
 _atom_site_fract_y
 _atom_site_fract_z
 _atom_site_occupancy
 _atom_site_charge
Zn  Zn1  1  0.72324000  0.00000000  0.48374000  1.0 0.6586367658
Zn  Zn2  1  0.22324000  0.00000000  0.51626000  1.0 0.6586367658
Zn  Zn3  1  0.73352000  0.00000000  0.37706000  1.0 0.6803943983
Zn  Zn4  1  0.23352000  0.00000000  0.62294000  1.0 0.6803943983
Zn  Zn5  1  0.21229000  0.61352000  0.25035000  1.0 0.6586367658
Zn  Zn6  1  0.71229000  0.38648000  0.74965000  1.0 0.6586367658
Zn  Zn7  1  0.21229000  0.38648000  0.25035000  1.0 0.6586367658
Zn  Zn8  1  0.71229000  0.61352000  0.74965000  1.0 0.6586367658
Zn  Zn9  1  0.20320000  0.94540000  0.98339000  0.5 0.5018045774
Zn  Zn10  1  0.70320000  0.05460000  0.01661000  0.5 0.5018045774
Zn  Zn11  1  0.20320000  0.05460000  0.98339000  0.5 0.5018045774
Zn  Zn12  1  0.70320000  0.94540000  0.01661000  0.5 0.5018045774
Zn  Zn13  1  0.19120000  0.94500000  0.87809000  0.5 0.4200676999
Zn  Zn14  1  0.69120000  0.05500000  0.12191000  0.5 0.4200676999
Zn  Zn15  1  0.19120000  0.05500000  0.87809000  0.5 0.4200676999
Zn  Zn16  1  0.69120000  0.94500000  0.12191000  0.5 0.4200676999
Si  Si1  1  0.50100000  0.50450000  0.42981000  0.5 0.9315349331
Si  Si2  1  0.00100000  0.49550000  0.57019000  0.5 0.9315349331
Si  Si3  1  0.50100000  0.49550000  0.42981000  0.5 0.9315349331
Si  Si4  1  0.00100000  0.50450000  0.57019000  0.5 0.9315349331
Si  Si5  1  0.45387000  0.49960000  0.53851000  0.5 0.7491008511
Si  Si6  1  0.95387000  0.50040000  0.46149000  0.5 0.7491008511
Si  Si7  1  0.42270000  0.44550000  0.92830000  0.5 0.2389762832
Si  Si8  1  0.92270000  0.55450000  0.07170000  0.5 0.2389762832
Si  Si9  1  0.42270000  0.55450000  0.92830000  0.5 0.2389762832
Si  Si10  1  0.92270000  0.44550000  0.07170000  0.5 0.2389762832
Si  Si11  1  0.47250000  0.44680000  0.03860000  0.5 0.2389762832
Si  Si12  1  0.97250000  0.55320000  0.96140000  0.5 0.2389762832
Si  Si13  1  0.47250000  0.55320000  0.03860000  0.5 0.2389762832
Si  Si14  1  0.97250000  0.44680000  0.96140000  0.5 0.2389762832
H  H1  1  0.52130000  0.68240000  0.49050000  0.5 0.0707778992
H  H2  1  0.02130000  0.31760000  0.50950000  0.5 0.0707778992
H  H3  1  0.52130000  0.31760000  0.49050000  0.5 0.0707778992
H  H4  1  0.02130000  0.68240000  0.50950000  0.5 0.0707778992
H  H5  1  0.57990000  0.82110000  0.48440000  0.5 0.0795342118
H  H6  1  0.07990000  0.17890000  0.51560000  0.5 0.0795342118
H  H7  1  0.57990000  0.17890000  0.48440000  0.5 0.0795342118
H  H8  1  0.07990000  0.82110000  0.51560000  0.5 0.0795342118
H  H9  1  0.63840000  0.71190000  0.35800000  0.5 0.0707778992
H  H10  1  0.13840000  0.28810000  0.64200000  0.5 0.0707778992
H  H11  1  0.63840000  0.28810000  0.35800000  0.5 0.0707778992
H  H12  1  0.13840000  0.71190000  0.64200000  0.5 0.0707778992
H  H13  1  0.57980000  0.57320000  0.36410000  0.5 0.0404467101
H  H14  1  0.07980000  0.42680000  0.63590000  0.5 0.0404467101
H  H15  1  0.57980000  0.42680000  0.36410000  0.5 0.0404467101
H  H16  1  0.07980000  0.57320000  0.63590000  0.5 0.0404467101
H  H17  1  0.43790000  0.65660000  0.37300000  0.5 0.0707778992
H  H18  1  0.93790000  0.34340000  0.62700000  0.5 0.0707778992
H  H19  1  0.43790000  0.34340000  0.37300000  0.5 0.0707778992
H  H20  1  0.93790000  0.65660000  0.62700000  0.5 0.0707778992
H  H21  1  0.36010000  0.64810000  0.32440000  0.5 0.089473668
H  H22  1  0.86010000  0.35190000  0.67560000  0.5 0.089473668
H  H23  1  0.36010000  0.35190000  0.32440000  0.5 0.089473668
H  H24  1  0.86010000  0.64810000  0.67560000  0.5 0.089473668
H  H25  1  0.35020000  0.34690000  0.34880000  0.5 0.100585755
H  H26  1  0.85020000  0.65310000  0.65120000  0.5 0.100585755
H  H27  1  0.35020000  0.65310000  0.34880000  0.5 0.100585755
H  H28  1  0.85020000  0.34690000  0.65120000  0.5 0.100585755
H  H29  1  0.42810000  0.35550000  0.39750000  0.5 0.0795342118
H  H30  1  0.92810000  0.64450000  0.60250000  0.5 0.0795342118
H  H31  1  0.42810000  0.64450000  0.39750000  0.5 0.0795342118
H  H32  1  0.92810000  0.35550000  0.60250000  0.5 0.0795342118
H  H33  1  0.54270000  0.36050000  0.35310000  0.5 0.0404467101
H  H34  1  0.04270000  0.63950000  0.64690000  0.5 0.0404467101
H  H35  1  0.54270000  0.63950000  0.35310000  0.5 0.0404467101
H  H36  1  0.04270000  0.36050000  0.64690000  0.5 0.0404467101
H  H37  1  0.60240000  0.22280000  0.35350000  0.5 0.0707778992
H  H38  1  0.10240000  0.77720000  0.64650000  0.5 0.0707778992
H  H39  1  0.60240000  0.77720000  0.35350000  0.5 0.0707778992
H  H40  1  0.10240000  0.22280000  0.64650000  0.5 0.0707778992
H  H41  1  0.62490000  0.25770000  0.49740000  0.5 0.0795342118
H  H42  1  0.12490000  0.74230000  0.50260000  0.5 0.0795342118
H  H43  1  0.62490000  0.74230000  0.49740000  0.5 0.0795342118
H  H44  1  0.12490000  0.25770000  0.50260000  0.5 0.0795342118
H  H45  1  0.56510000  0.39550000  0.49710000  0.5 0.0795342118
H  H46  1  0.06510000  0.60450000  0.50290000  0.5 0.0795342118
H  H47  1  0.56510000  0.60450000  0.49710000  0.5 0.0795342118
H  H48  1  0.06510000  0.39550000  0.50290000  0.5 0.0795342118
H  H49  1  0.38350000  0.60710000  0.47700000  0.5 0.0536035786
H  H50  1  0.88350000  0.39290000  0.52300000  0.5 0.0536035786
H  H51  1  0.38350000  0.39290000  0.47700000  0.5 0.0536035786
H  H52  1  0.88350000  0.60710000  0.52300000  0.5 0.0536035786
H  H53  1  0.32260000  0.74240000  0.48350000  0.5 0.0795342118
H  H54  1  0.82260000  0.25760000  0.51650000  0.5 0.0795342118
H  H55  1  0.32260000  0.25760000  0.48350000  0.5 0.0795342118
H  H56  1  0.82260000  0.74240000  0.51650000  0.5 0.0795342118
H  H57  1  0.35880000  0.76860000  0.62560000  0.5 0.089473668
H  H58  1  0.85880000  0.23140000  0.37440000  0.5 0.089473668
H  H59  1  0.35880000  0.23140000  0.62560000  0.5 0.089473668
H  H60  1  0.85880000  0.76860000  0.37440000  0.5 0.089473668
H  H61  1  0.41970000  0.63330000  0.61910000  0.5 0.0628963798
H  H62  1  0.91970000  0.36670000  0.38090000  0.5 0.0628963798
H  H63  1  0.41970000  0.36670000  0.61910000  0.5 0.0628963798
H  H64  1  0.91970000  0.63330000  0.38090000  0.5 0.0628963798
H  H65  1  0.52040000  0.65880000  0.57790000  0.5 0.089473668
H  H66  1  0.02040000  0.34120000  0.42210000  0.5 0.089473668
H  H67  1  0.52040000  0.34120000  0.57790000  0.5 0.089473668
H  H68  1  0.02040000  0.65880000  0.42210000  0.5 0.089473668
H  H69  1  0.59490000  0.66970000  0.63040000  0.5 0.0707778992
H  H70  1  0.09490000  0.33030000  0.36960000  0.5 0.0707778992
H  H71  1  0.59490000  0.33030000  0.63040000  0.5 0.0707778992
H  H72  1  0.09490000  0.66970000  0.36960000  0.5 0.0707778992
H  H73  1  0.59460000  0.36520000  0.64510000  0.5 0.0795342118
H  H74  1  0.09460000  0.63480000  0.35490000  0.5 0.0795342118
H  H75  1  0.59460000  0.63480000  0.64510000  0.5 0.0795342118
H  H76  1  0.09460000  0.36520000  0.35490000  0.5 0.0795342118
H  H77  1  0.52010000  0.35430000  0.59260000  0.5 0.1087253711
H  H78  1  0.02010000  0.64570000  0.40740000  0.5 0.1087253711
H  H79  1  0.52010000  0.64570000  0.59260000  0.5 0.1087253711
H  H80  1  0.02010000  0.35430000  0.40740000  0.5 0.1087253711
H  H81  1  0.41880000  0.32620000  0.47790000  0.5 0.0404467101
H  H82  1  0.91880000  0.67380000  0.52210000  0.5 0.0404467101
H  H83  1  0.41880000  0.67380000  0.47790000  0.5 0.0404467101
H  H84  1  0.91880000  0.32620000  0.52210000  0.5 0.0404467101
H  H85  1  0.36230000  0.18590000  0.48940000  0.5 0.0707778992
H  H86  1  0.86230000  0.81410000  0.51060000  0.5 0.0707778992
H  H87  1  0.36230000  0.81410000  0.48940000  0.5 0.0707778992
H  H88  1  0.86230000  0.18590000  0.51060000  0.5 0.0707778992
H  H89  1  0.33333333  0.27560000  0.62690000  0.5 0.089473668
H  H90  1  0.83333000  0.72440000  0.37310000  0.5 0.089473668
H  H91  1  0.33333333  0.72440000  0.62690000  0.5 0.089473668
H  H92  1  0.83333000  0.27560000  0.37310000  0.5 0.089473668
H  H93  1  0.38980000  0.41580000  0.61530000  0.5 0.0707778992
H  H94  1  0.88980000  0.58420000  0.38470000  0.5 0.0707778992
H  H95  1  0.38980000  0.58420000  0.61530000  0.5 0.0707778992
H  H96  1  0.88980000  0.41580000  0.38470000  0.5 0.0628963798
H  H97  1  0.41690000  0.63800000  0.97740000  0.5 0.089473668
H  H98  1  0.91690000  0.36200000  0.02260000  0.5 0.089473668
H  H99  1  0.41690000  0.36200000  0.97740000  0.5 0.089473668
H  H100  1  0.91690000  0.63800000  0.02260000  0.5 0.089473668
H  H101  1  0.35790000  0.77640000  0.97310000  0.5 0.0795342118
H  H102  1  0.85790000  0.22360000  0.02690000  0.5 0.0795342118
H  H103  1  0.35790000  0.22360000  0.97310000  0.5 0.0795342118
H  H104  1  0.85790000  0.77640000  0.02690000  0.5 0.0795342118
H  H105  1  0.27000000  0.63360000  0.86980000  0.5 0.100585755
H  H106  1  0.77000000  0.36640000  0.13020000  0.5 0.100585755
H  H107  1  0.27000000  0.36640000  0.86980000  0.5 0.100585755
H  H108  1  0.77000000  0.63360000  0.13020000  0.5 0.100585755
H  H109  1  0.32910000  0.49520000  0.87410000  0.5 0.1181768374
H  H110  1  0.82910000  0.50480000  0.12590000  0.5 0.1181768374
H  H111  1  0.32910000  0.50480000  0.87410000  0.5 0.1181768374
H  H112  1  0.82910000  0.49520000  0.12590000  0.5 0.1181768374
H  H113  1  0.48620000  0.60410000  0.88380000  0.5 0.1087253711
H  H114  1  0.98620000  0.39590000  0.11620000  0.5 0.1087253711
H  H115  1  0.48620000  0.39590000  0.88380000  0.5 0.1087253711
H  H116  1  0.98620000  0.60410000  0.11620000  0.5 0.1087253711
H  H117  1  0.56470000  0.61110000  0.83600000  0.5 0.089473668
H  H118  1  0.06470000  0.38890000  0.16400000  0.5 0.089473668
H  H119  1  0.56470000  0.38890000  0.83600000  0.5 0.089473668
H  H120  1  0.06470000  0.61110000  0.16400000  0.5 0.089473668
H  H121  1  0.57570000  0.30590000  0.84000000  0.5 0.0795342118
H  H122  1  0.07570000  0.69410000  0.16000000  0.5 0.0795342118
H  H123  1  0.57570000  0.69410000  0.84000000  0.5 0.0795342118
H  H124  1  0.07570000  0.30590000  0.16000000  0.5 0.0795342118
H  H125  1  0.49720000  0.29890000  0.88780000  0.5 0.089473668
H  H126  1  0.99720000  0.70110000  0.11220000  0.5 0.089473668
H  H127  1  0.49720000  0.70110000  0.88780000  0.5 0.089473668
H  H128  1  0.99720000  0.29890000  0.11220000  0.5 0.089473668
H  H129  1  0.35580000  0.34130000  0.99350000  0.5 0.0795342118
H  H130  1  0.85580000  0.65870000  0.00650000  0.5 0.0795342118
H  H131  1  0.35580000  0.65870000  0.99350000  0.5 0.0795342118
H  H132  1  0.85580000  0.34130000  0.00650000  0.5 0.0795342118
H  H133  1  0.29520000  0.20490000  0.99420000  0.5 0.1181768374
H  H134  1  0.79520000  0.79510000  0.00580000  0.5 0.1181768374
H  H135  1  0.29520000  0.79510000  0.99420000  0.5 0.1181768374
H  H136  1  0.79520000  0.20490000  0.00580000  0.5 0.1181768374
H  H137  1  0.32190000  0.16090000  0.85140000  0.5 0.1181768374
H  H138  1  0.82190000  0.83910000  0.14860000  0.5 0.1181768374
H  H139  1  0.32190000  0.83910000  0.85140000  0.5 0.1181768374
H  H140  1  0.82190000  0.16090000  0.14860000  0.5 0.1181768374
H  H141  1  0.38250000  0.29720000  0.85070000  0.5 0.100585755
H  H142  1  0.88250000  0.70280000  0.14930000  0.5 0.100585755
H  H143  1  0.38250000  0.70280000  0.85070000  0.5 0.100585755
H  H144  1  0.88250000  0.29720000  0.14930000  0.5 0.100585755
H  H145  1  0.53120000  0.35390000  0.11650000  0.5 0.0795342118
H  H146  1  0.03120000  0.64610000  0.88350000  0.5 0.0795342118
H  H147  1  0.53120000  0.64610000  0.11650000  0.5 0.0795342118
H  H148  1  0.03120000  0.35390000  0.88350000  0.5 0.0795342118
H  H149  1  0.58480000  0.20910000  0.12610000  0.5 0.100585755
H  H150  1  0.08480000  0.79090000  0.87390000  0.5 0.100585755
H  H151  1  0.58480000  0.79090000  0.12610000  0.5 0.100585755
H  H152  1  0.08480000  0.20910000  0.87390000  0.5 0.100585755
H  H153  1  0.56070000  0.13760000  0.98550000  0.5 0.1087253711
H  H154  1  0.06070000  0.86240000  0.01450000  0.5 0.1087253711
H  H155  1  0.56070000  0.86240000  0.98550000  0.5 0.1087253711
H  H156  1  0.06070000  0.13760000  0.01450000  0.5 0.1087253711
H  H157  1  0.50710000  0.28240000  0.97590000  0.5 0.089473668
H  H158  1  0.00710000  0.71760000  0.02410000  0.5 0.089473668
H  H159  1  0.50710000  0.71760000  0.97590000  0.5 0.089473668
H  H160  1  0.00710000  0.28240000  0.02410000  0.5 0.089473668
H  H161  1  0.54130000  0.56360000  0.98150000  0.5 0.089473668
H  H162  1  0.04130000  0.43640000  0.01850000  0.5 0.089473668
H  H163  1  0.54130000  0.43640000  0.98150000  0.5 0.089473668
H  H164  1  0.04130000  0.56360000  0.01850000  0.5 0.089473668
H  H165  1  0.60320000  0.69690000  0.99000000  0.5 0.1087253711
H  H166  1  0.10320000  0.30310000  0.01000000  0.5 0.1087253711
H  H167  1  0.60320000  0.30310000  0.99000000  0.5 0.1087253711
H  H168  1  0.10320000  0.69690000  0.01000000  0.5 0.1087253711
H  H169  1  0.57360000  0.70430000  0.13380000  0.5 0.0628963798
H  H170  1  0.07360000  0.29570000  0.86620000  0.5 0.0628963798
H  H171  1  0.57360000  0.29570000  0.13380000  0.5 0.0628963798
H  H172  1  0.07360000  0.70430000  0.86620000  0.5 0.0628963798
H  H173  1  0.51180000  0.57100000  0.12540000  0.5 0.0628963798
H  H174  1  0.01180000  0.42900000  0.87460000  0.5 0.0628963798
H  H175  1  0.51180000  0.42900000  0.12540000  0.5 0.0628963798
H  H176  1  0.01180000  0.57100000  0.87460000  0.5 0.0628963798
H  H177  1  0.40020000  0.60440000  0.07280000  0.5 0.100585755
H  H178  1  0.90020000  0.39560000  0.92720000  0.5 0.1087253711
H  H179  1  0.40020000  0.39560000  0.07280000  0.5 0.100585755
H  H180  1  0.90020000  0.60440000  0.92720000  0.5 0.1087253711
H  H181  1  0.32670000  0.61820000  0.12620000  0.5 0.0795342118
H  H182  1  0.82670000  0.38180000  0.87380000  0.5 0.089473668
H  H183  1  0.32670000  0.38180000  0.12620000  0.5 0.0795342118
H  H184  1  0.82670000  0.61820000  0.87380000  0.5 0.089473668
H  H185  1  0.33800000  0.31930000  0.15590000  0.5 0.0707778992
H  H186  1  0.83800000  0.68070000  0.84410000  0.5 0.0707778992
H  H187  1  0.33800000  0.68070000  0.15590000  0.5 0.0707778992
H  H188  1  0.83800000  0.31930000  0.84410000  0.5 0.0707778992
H  H189  1  0.41150000  0.30560000  0.10250000  0.5 0.100585755
H  H190  1  0.91150000  0.69440000  0.89750000  0.5 0.100585755
H  H191  1  0.41150000  0.69440000  0.10250000  0.5 0.100585755
H  H192  1  0.91150000  0.30560000  0.89750000  0.5 0.100585755
C  C1  1  0.54500000  0.61470000  0.42790000  0.5 -0.4102380031
C  C2  1  0.04500000  0.38530000  0.57210000  0.5 -0.4102380031
C  C3  1  0.54500000  0.38530000  0.42790000  0.5 -0.4102380031
C  C4  1  0.04500000  0.61470000  0.57210000  0.5 -0.4102380031
C  C5  1  0.54510000  0.68840000  0.46360000  0.5 0.0197988197
C  C6  1  0.04510000  0.31160000  0.53640000  0.5 0.0197988197
C  C7  1  0.54510000  0.31160000  0.46360000  0.5 0.0197988197
C  C8  1  0.04510000  0.68840000  0.53640000  0.5 0.0197988197
C  C9  1  0.57990000  0.77080000  0.46000000  0.5 -0.0609453452
C  C10  1  0.07990000  0.22920000  0.54000000  0.5 -0.0609453452
C  C11  1  0.57990000  0.22920000  0.46000000  0.5 -0.0609453452
C  C12  1  0.07990000  0.77080000  0.54000000  0.5 -0.0609453452
C  C13  1  0.61470000  0.77950000  0.42060000  0.5 -0.0609453452
C  C14  1  0.11470000  0.22050000  0.57940000  0.5 -0.0609453452
C  C15  1  0.61470000  0.22050000  0.42060000  0.5 -0.0609453452
C  C16  1  0.11470000  0.77950000  0.57940000  0.5 -0.0609453452
C  C17  1  0.61460000  0.70590000  0.38490000  0.5 -0.0214814375
C  C18  1  0.11460000  0.29410000  0.61510000  0.5 -0.0214814375
C  C19  1  0.61460000  0.29410000  0.38490000  0.5 -0.0214814375
C  C20  1  0.11460000  0.70590000  0.61510000  0.5 -0.0214814375
C  C21  1  0.57980000  0.62350000  0.38850000  0.5 0.0273024782
C  C22  1  0.07980000  0.37650000  0.61150000  0.5 0.0273024782
C  C23  1  0.57980000  0.37650000  0.38850000  0.5 0.0273024782
C  C24  1  0.07980000  0.62350000  0.61150000  0.5 0.0273024782
C  C25  1  0.65350000  0.86680000  0.41500000  0.5 0.3587909113
C  C26  1  0.15350000  0.13320000  0.58500000  0.5 0.3587909113
C  C27  1  0.65350000  0.13320000  0.41500000  0.5 0.3587909113
C  C28  1  0.15350000  0.86680000  0.58500000  0.5 0.3587909113
C  C29  1  0.44030000  0.50690000  0.38980000  0.5 -0.3300743827
C  C30  1  0.94030000  0.49310000  0.61020000  0.5 -0.3300743827
C  C31  1  0.44030000  0.49310000  0.38980000  0.5 -0.3300743827
C  C32  1  0.94030000  0.50690000  0.61020000  0.5 -0.3300743827
C  C33  1  0.42010000  0.59380000  0.36810000  0.5 -0.0214814375
C  C34  1  0.92010000  0.40620000  0.63190000  0.5 -0.0214814375
C  C35  1  0.42010000  0.40620000  0.36810000  0.5 -0.0270003272
C  C36  1  0.92010000  0.59380000  0.63190000  0.5 -0.0214814375
C  C37  1  0.37390000  0.58870000  0.33920000  0.5 -0.0499827147
C  C38  1  0.87390000  0.41130000  0.66080000  0.5 -0.0499827147
C  C39  1  0.37390000  0.41130000  0.33920000  0.5 -0.0499827147
C  C40  1  0.87390000  0.58870000  0.66080000  0.5 -0.0499827147
C  C41  1  0.34780000  0.49670000  0.33200000  0.5 -0.0920408997
C  C42  1  0.84780000  0.50330000  0.66800000  0.5 -0.0972607325
C  C43  1  0.34780000  0.50330000  0.33200000  0.5 -0.0920408997
C  C44  1  0.84780000  0.49670000  0.66800000  0.5 -0.0972607325
C  C45  1  0.36800000  0.40980000  0.35370000  0.5 -0.0609453452
C  C46  1  0.86800000  0.59020000  0.64630000  0.5 -0.0609453452
C  C47  1  0.36800000  0.59020000  0.35370000  0.5 -0.0609453452
C  C48  1  0.86800000  0.40980000  0.64630000  0.5 -0.0609453452
C  C49  1  0.41430000  0.41490000  0.38260000  0.5 -0.0098833061
C  C50  1  0.91430000  0.58510000  0.61740000  0.5 -0.0098833061
C  C51  1  0.41430000  0.58510000  0.38260000  0.5 -0.0098833061
C  C52  1  0.91430000  0.41490000  0.61740000  0.5 -0.0098833061
C  C53  1  0.29860000  0.49100000  0.30190000  0.5 0.4200676999
C  C54  1  0.79860000  0.50900000  0.69810000  0.5 0.4200676999
C  C55  1  0.29860000  0.50900000  0.30190000  0.5 0.4200676999
C  C56  1  0.79860000  0.49100000  0.69810000  0.5 0.4200676999
C  C57  1  0.54830000  0.39100000  0.42510000  0.5 -0.4102380031
C  C58  1  0.04830000  0.60900000  0.57490000  0.5 -0.4102380031
C  C59  1  0.54830000  0.60900000  0.42510000  0.5 -0.4102380031
C  C60  1  0.04830000  0.39100000  0.57490000  0.5 -0.4102380031
C  C61  1  0.55940000  0.33970000  0.38240000  0.5 0.0273024782
C  C62  1  0.05940000  0.66030000  0.61760000  0.5 0.0273024782
C  C63  1  0.55940000  0.66030000  0.38240000  0.5 0.0273024782
C  C64  1  0.05940000  0.33970000  0.61760000  0.5 0.0273024782
C  C65  1  0.59480000  0.25790000  0.38260000  0.5 -0.0214814375
C  C66  1  0.09480000  0.74210000  0.61740000  0.5 -0.0214814375
C  C67  1  0.59480000  0.74210000  0.38260000  0.5 -0.0214814375
C  C68  1  0.09480000  0.25790000  0.61740000  0.5 -0.0214814375
C  C69  1  0.61930000  0.22730000  0.42550000  0.5 -0.0609453452
C  C70  1  0.11930000  0.77270000  0.57450000  0.5 -0.0609453452
C  C71  1  0.61930000  0.77270000  0.42550000  0.5 -0.0609453452
C  C72  1  0.11930000  0.22730000  0.57450000  0.5 -0.0609453452
C  C73  1  0.60820000  0.27860000  0.46810000  0.5 -0.0270003272
C  C74  1  0.10820000  0.72140000  0.53190000  0.5 -0.0270003272
C  C75  1  0.60820000  0.72140000  0.46810000  0.5 -0.0270003272
C  C76  1  0.10820000  0.27860000  0.53190000  0.5 -0.0270003272
C  C77  1  0.57270000  0.36040000  0.46790000  0.5 -0.0098833061
C  C78  1  0.07270000  0.63960000  0.53210000  0.5 -0.0098833061
C  C79  1  0.57270000  0.63960000  0.46790000  0.5 -0.0098833061
C  C80  1  0.07270000  0.36040000  0.53210000  0.5 -0.0098833061
C  C81  1  0.65780000  0.14090000  0.42770000  0.5 0.3587909113
C  C82  1  0.15780000  0.85910000  0.57230000  0.5 0.3587909113
C  C83  1  0.65780000  0.85910000  0.42770000  0.5 0.3587909113
C  C84  1  0.15780000  0.14090000  0.57230000  0.5 0.3587909113
C  C85  1  0.40730000  0.60750000  0.54750000  0.5 -0.2786189371
C  C86  1  0.90730000  0.39250000  0.45250000  0.5 -0.2786189371
C  C87  1  0.40730000  0.39250000  0.54750000  0.5 -0.2786189371
C  C88  1  0.90730000  0.60750000  0.45250000  0.5 -0.2786189371
C  C89  1  0.37850000  0.63990000  0.50720000  0.5 -0.0098833061
C  C90  1  0.87850000  0.36010000  0.49280000  0.5 -0.0098833061
C  C91  1  0.37850000  0.36010000  0.50720000  0.5 -0.0098833061
C  C92  1  0.87850000  0.63990000  0.49280000  0.5 -0.0098833061
C  C93  1  0.34230000  0.72020000  0.51100000  0.5 -0.0098833061
C  C94  1  0.84230000  0.27980000  0.48900000  0.5 -0.0098833061
C  C95  1  0.34230000  0.27980000  0.51100000  0.5 -0.0098833061
C  C96  1  0.84230000  0.72020000  0.48900000  0.5 -0.0098833061
C  C97  1  0.33500000  0.76820000  0.55520000  0.5 -0.0499827147
C  C98  1  0.83500000  0.23180000  0.44480000  0.5 -0.0499827147
C  C99  1  0.33500000  0.23180000  0.55520000  0.5 -0.0499827147
C  C100  1  0.83500000  0.76820000  0.44480000  0.5 -0.0499827147
C  C101  1  0.36380000  0.73580000  0.59550000  0.5 -0.0418143457
C  C102  1  0.86380000  0.26420000  0.40450000  0.5 -0.0418143457
C  C103  1  0.36380000  0.26420000  0.59550000  0.5 -0.0418143457
C  C104  1  0.86380000  0.73580000  0.40450000  0.5 -0.0418143457
C  C105  1  0.40000000  0.65540000  0.59160000  0.5 0.0197988197
C  C106  1  0.90000000  0.34460000  0.40840000  0.5 0.0197988197
C  C107  1  0.40000000  0.34460000  0.59160000  0.5 0.0111489623
C  C108  1  0.90000000  0.65540000  0.40840000  0.5 0.0197988197
C  C109  1  0.29560000  0.85500000  0.55900000  0.5 0.3587909113
C  C110  1  0.79560000  0.14500000  0.44100000  0.5 0.3587909113
C  C111  1  0.29560000  0.14500000  0.55900000  0.5 0.3587909113
C  C112  1  0.79560000  0.85500000  0.44100000  0.5 0.3587909113
C  C113  1  0.51320000  0.50600000  0.58030000  0.5 -0.1728602659
C  C114  1  0.01320000  0.49400000  0.41970000  0.5 -0.1728602659
C  C115  1  0.51320000  0.49400000  0.58030000  0.5 -0.1728602659
C  C116  1  0.01320000  0.50600000  0.41970000  0.5 -0.1728602659
C  C117  1  0.53540000  0.59920000  0.59150000  0.5 -0.0920408997
C  C118  1  0.03540000  0.40080000  0.40850000  0.5 -0.0920408997
C  C119  1  0.53540000  0.40080000  0.59150000  0.5 -0.0920408997
C  C120  1  0.03540000  0.59920000  0.40850000  0.5 -0.0920408997
C  C121  1  0.57970000  0.60560000  0.62270000  0.5 -0.0920408997
C  C122  1  0.07970000  0.39440000  0.37730000  0.5 -0.0920408997
C  C123  1  0.57970000  0.39440000  0.62270000  0.5 -0.0920408997
C  C124  1  0.07970000  0.60560000  0.37730000  0.5 -0.0920408997
C  C125  1  0.60180000  0.51850000  0.64260000  0.5 0.0197988197
C  C126  1  0.10180000  0.48150000  0.35740000  0.5 0.0197988197
C  C127  1  0.60180000  0.48150000  0.64260000  0.5 0.0197988197
C  C128  1  0.10180000  0.51850000  0.35740000  0.5 0.0197988197
C  C129  1  0.57960000  0.42480000  0.63140000  0.5 -0.0214814375
C  C130  1  0.07960000  0.57520000  0.36860000  0.5 -0.0270003272
C  C131  1  0.57960000  0.57520000  0.63140000  0.5 -0.0214814375
C  C132  1  0.07960000  0.42480000  0.36860000  0.5 -0.0270003272
C  C133  1  0.53530000  0.41830000  0.60030000  0.5 -0.0972607325
C  C134  1  0.03530000  0.58170000  0.39970000  0.5 -0.0972607325
C  C135  1  0.53530000  0.58170000  0.60030000  0.5 -0.0972607325
C  C136  1  0.03530000  0.41830000  0.39970000  0.5 -0.0972607325
C  C137  1  0.64850000  0.52380000  0.67630000  0.5 0.2626483312
C  C138  1  0.14850000  0.47620000  0.32370000  0.5 0.2626483312
C  C139  1  0.64850000  0.47620000  0.67630000  0.5 0.2626483312
C  C140  1  0.14850000  0.52380000  0.32370000  0.5 0.2626483312
C  C141  1  0.40960000  0.38420000  0.54550000  0.5 -0.2608180383
C  C142  1  0.90960000  0.61580000  0.45450000  0.5 -0.2608180383
C  C143  1  0.40960000  0.61580000  0.54550000  0.5 -0.2608180383
C  C144  1  0.90960000  0.38420000  0.45450000  0.5 -0.2608180383
C  C145  1  0.40150000  0.31590000  0.50810000  0.5 0.0197988197
C  C146  1  0.90150000  0.68410000  0.49190000  0.5 0.0197988197
C  C147  1  0.40150000  0.68410000  0.50810000  0.5 0.0197988197
C  C148  1  0.90150000  0.31590000  0.49190000  0.5 0.0197988197
C  C149  1  0.36790000  0.23260000  0.51500000  0.5 -0.0499827147
C  C150  1  0.86790000  0.76740000  0.48500000  0.5 -0.0499827147
C  C151  1  0.36790000  0.76740000  0.51500000  0.5 -0.0499827147
C  C152  1  0.86790000  0.23260000  0.48500000  0.5 -0.0499827147
C  C153  1  0.34250000  0.21750000  0.55920000  0.5 -0.0499827147
C  C154  1  0.84250000  0.78250000  0.44080000  0.5 -0.0499827147
C  C155  1  0.34250000  0.78250000  0.55920000  0.5 -0.0499827147
C  C156  1  0.84250000  0.21750000  0.44080000  0.5 -0.0499827147
C  C157  1  0.35070000  0.28580000  0.59660000  0.5 -0.0418143457
C  C158  1  0.85070000  0.71420000  0.40340000  0.5 -0.0418143457
C  C159  1  0.35070000  0.71420000  0.59660000  0.5 -0.0418143457
C  C160  1  0.85070000  0.28580000  0.40340000  0.5 -0.0418143457
C  C161  1  0.38420000  0.36920000  0.58980000  0.5 0.0111489623
C  C162  1  0.88420000  0.63080000  0.41020000  0.5 0.0111489623
C  C163  1  0.38420000  0.63080000  0.58980000  0.5 0.0111489623
C  C164  1  0.88420000  0.36920000  0.41020000  0.5 0.0111489623
C  C165  1  0.30590000  0.12630000  0.56590000  0.5 0.3739874384
C  C166  1  0.80590000  0.87370000  0.43410000  0.5 0.3750348857
C  C167  1  0.30590000  0.87370000  0.56590000  0.5 0.3750348857
C  C168  1  0.80590000  0.12630000  0.43410000  0.5 0.3739874384
C  C169  1  0.37860000  0.55360000  0.92620000  0.5 -0.1390455605
C  C170  1  0.87860000  0.44640000  0.07380000  0.5 -0.1390455605
C  C171  1  0.37860000  0.44640000  0.92620000  0.5 -0.1390455605
C  C172  1  0.87860000  0.55360000  0.07380000  0.5 -0.1390455605
C  C173  1  0.38710000  0.63710000  0.95560000  0.5 -0.0972607325
C  C174  1  0.88710000  0.36290000  0.04440000  0.5 -0.0972607325
C  C175  1  0.38710000  0.36290000  0.95560000  0.5 -0.0972607325
C  C176  1  0.88710000  0.63710000  0.04440000  0.5 -0.0972607325
C  C177  1  0.35200000  0.71930000  0.95300000  0.5 -0.0609453452
C  C178  1  0.85200000  0.28070000  0.04700000  0.5 -0.0609453452
C  C179  1  0.35200000  0.28070000  0.95300000  0.5 -0.0609453452
C  C180  1  0.85200000  0.71930000  0.04700000  0.5 -0.0609453452
C  C181  1  0.30840000  0.71800000  0.92100000  0.5 0.0707778992
C  C182  1  0.80840000  0.28200000  0.07900000  0.5 0.0707778992
C  C183  1  0.30840000  0.28200000  0.92100000  0.5 0.0707778992
C  C184  1  0.80840000  0.71800000  0.07900000  0.5 0.0707778992
C  C185  1  0.29980000  0.63450000  0.89160000  0.5 -0.2505383993
C  C186  1  0.79980000  0.36550000  0.10840000  0.5 -0.2505383993
C  C187  1  0.29980000  0.36550000  0.89160000  0.5 -0.2505383993
C  C188  1  0.79980000  0.63450000  0.10840000  0.5 -0.2505383993
C  C189  1  0.33490000  0.55230000  0.89420000  0.5 -0.1212511145
C  C190  1  0.83490000  0.44770000  0.10580000  0.5 -0.1212511145
C  C191  1  0.33490000  0.44770000  0.89420000  0.5 -0.1212511145
C  C192  1  0.83490000  0.55230000  0.10580000  0.5 -0.1212511145
C  C193  1  0.26960000  0.80550000  0.91740000  0.5 0.2011923401
C  C194  1  0.76960000  0.19450000  0.08260000  0.5 0.2011923401
C  C195  1  0.26960000  0.19450000  0.91740000  0.5 0.2011923401
C  C196  1  0.76960000  0.80550000  0.08260000  0.5 0.2011923401
C  C197  1  0.48430000  0.45090000  0.89030000  0.5 -0.1091580117
C  C198  1  0.98430000  0.54910000  0.10970000  0.5 -0.1091580117
C  C199  1  0.48430000  0.54910000  0.89030000  0.5 -0.1091580117
C  C200  1  0.98430000  0.45090000  0.10970000  0.5 -0.1091580117
C  C201  1  0.50430000  0.54360000  0.87490000  0.5 -0.0214814375
C  C202  1  0.00430000  0.45640000  0.12510000  0.5 -0.0214814375
C  C203  1  0.50430000  0.45640000  0.87490000  0.5 -0.0214814375
C  C204  1  0.00430000  0.54360000  0.12510000  0.5 -0.0214814375
C  C205  1  0.55100000  0.54770000  0.84650000  0.5 -0.0039459032
C  C206  1  0.05100000  0.45230000  0.15350000  0.5 -0.0039459032
C  C207  1  0.55100000  0.45230000  0.84650000  0.5 -0.0098833061
C  C208  1  0.05100000  0.54770000  0.15350000  0.5 -0.0039459032
C  C209  1  0.57760000  0.45910000  0.83350000  0.5 -0.0418143457
C  C210  1  0.07760000  0.54090000  0.16650000  0.5 -0.0418143457
C  C211  1  0.57760000  0.54090000  0.83350000  0.5 -0.0418143457
C  C212  1  0.07760000  0.45910000  0.16650000  0.5 -0.0418143457
C  C213  1  0.55750000  0.36640000  0.84890000  0.5 -0.1091580117
C  C214  1  0.05750000  0.63360000  0.15110000  0.5 -0.1091580117
C  C215  1  0.55750000  0.63360000  0.84890000  0.5 -0.1091580117
C  C216  1  0.05750000  0.36640000  0.15110000  0.5 -0.1091580117
C  C217  1  0.51090000  0.36230000  0.87730000  0.5 -0.1091580117
C  C218  1  0.01090000  0.63770000  0.12270000  0.5 -0.1091580117
C  C219  1  0.51090000  0.63770000  0.87730000  0.5 -0.1091580117
C  C220  1  0.01090000  0.36230000  0.12270000  0.5 -0.1091580117
C  C221  1  0.62790000  0.46100000  0.80300000  0.5 0.2389762832
C  C222  1  0.12790000  0.53900000  0.19700000  0.5 0.2389762832
C  C223  1  0.62790000  0.53900000  0.80300000  0.5 0.2389762832
C  C224  1  0.12790000  0.46100000  0.19700000  0.5 0.2389762832
C  C225  1  0.37490000  0.33210000  0.92200000  0.5 -0.0214814375
C  C226  1  0.87490000  0.66790000  0.07800000  0.5 -0.0214814375
C  C227  1  0.37490000  0.66790000  0.92200000  0.5 -0.0214814375
C  C228  1  0.87490000  0.33210000  0.07800000  0.5 -0.0214814375
C  C229  1  0.34890000  0.30470000  0.96460000  0.5 -0.0678539689
C  C230  1  0.84890000  0.69530000  0.03540000  0.5 -0.0678539689
C  C231  1  0.34890000  0.69530000  0.96460000  0.5 -0.0678539689
C  C232  1  0.84890000  0.30470000  0.03540000  0.5 -0.0678539689
C  C233  1  0.31290000  0.22360000  0.96510000  0.5 -0.1091580117
C  C234  1  0.81290000  0.77640000  0.03490000  0.5 -0.1091580117
C  C235  1  0.31290000  0.77640000  0.96510000  0.5 -0.1091580117
C  C236  1  0.81290000  0.22360000  0.03490000  0.5 -0.1091580117
C  C237  1  0.30280000  0.17010000  0.92290000  0.5 0.0707778992
C  C238  1  0.80280000  0.82990000  0.07710000  0.5 0.0707778992
C  C239  1  0.30280000  0.82990000  0.92290000  0.5 0.0707778992
C  C240  1  0.80280000  0.17010000  0.07710000  0.5 0.0707778992
C  C241  1  0.32880000  0.19750000  0.88030000  0.5 -0.1212511145
C  C242  1  0.82880000  0.80250000  0.11970000  0.5 -0.1273539833
C  C243  1  0.32880000  0.80250000  0.88030000  0.5 -0.1273539833
C  C244  1  0.82880000  0.19750000  0.11970000  0.5 -0.1273539833
C  C245  1  0.36480000  0.27850000  0.87980000  0.5 -0.1795259574
C  C246  1  0.86480000  0.72150000  0.12020000  0.5 -0.1795259574
C  C247  1  0.36480000  0.72150000  0.87980000  0.5 -0.1795259574
C  C248  1  0.86480000  0.27850000  0.12020000  0.5 -0.1795259574
C  C249  1  0.26420000  0.08370000  0.92330000  0.5 -0.0214814375
C  C250  1  0.76420000  0.91630000  0.07670000  0.5 -0.0214814375
C  C251  1  0.26420000  0.91630000  0.92330000  0.5 -0.0214814375
C  C252  1  0.76420000  0.08370000  0.07670000  0.5 -0.0214814375
C  C253  1  0.51410000  0.33170000  0.04530000  0.5 -0.0214814375
C  C254  1  0.01410000  0.66830000  0.95470000  0.5 -0.0214814375
C  C255  1  0.51410000  0.66830000  0.04530000  0.5 -0.0214814375
C  C256  1  0.01410000  0.33170000  0.95470000  0.5 -0.0214814375
C  C257  1  0.53720000  0.31000000  0.08990000  0.5 -0.0214814375
C  C258  1  0.03720000  0.69000000  0.91010000  0.5 -0.0214814375
C  C259  1  0.53720000  0.69000000  0.08990000  0.5 -0.0214814375
C  C260  1  0.03720000  0.31000000  0.91010000  0.5 -0.0214814375
C  C261  1  0.56900000  0.22400000  0.09560000  0.5 -0.0814911246
C  C262  1  0.06900000  0.77600000  0.90440000  0.5 -0.0814911246
C  C263  1  0.56900000  0.77600000  0.09560000  0.5 -0.0814911246
C  C264  1  0.06900000  0.22400000  0.90440000  0.5 -0.0814911246
C  C265  1  0.57770000  0.15970000  0.05670000  0.5 -0.0098833061
C  C266  1  0.07770000  0.84030000  0.94330000  0.5 -0.0098833061
C  C267  1  0.57770000  0.84030000  0.05670000  0.5 -0.0098833061
C  C268  1  0.07770000  0.15970000  0.94330000  0.5 -0.0098833061
C  C269  1  0.55470000  0.18150000  0.01210000  0.5 -0.2608180383
C  C270  1  0.05470000  0.81850000  0.98790000  0.5 -0.2505383993
C  C271  1  0.55470000  0.81850000  0.01210000  0.5 -0.2608180383
C  C272  1  0.05470000  0.18150000  0.98790000  0.5 -0.2505383993
C  C273  1  0.52290000  0.26750000  0.00640000  0.5 -0.0972607325
C  C274  1  0.02290000  0.73250000  0.99360000  0.5 -0.0972607325
C  C275  1  0.52290000  0.73250000  0.00640000  0.5 -0.0972607325
C  C276  1  0.02290000  0.26750000  0.99360000  0.5 -0.0972607325
C  C277  1  0.61210000  0.06670000  0.06170000  0.5 0.2011923401
C  C278  1  0.11210000  0.93330000  0.93830000  0.5 0.2011923401
C  C279  1  0.61210000  0.93330000  0.06170000  0.5 0.2011923401
C  C280  1  0.11210000  0.06670000  0.93830000  0.5 0.2011923401
C  C281  1  0.52070000  0.55470000  0.05270000  0.5 -0.1091580117
C  C282  1  0.02070000  0.44530000  0.94730000  0.5 -0.1091580117
C  C283  1  0.52070000  0.44530000  0.05270000  0.5 -0.1091580117
C  C284  1  0.02070000  0.55470000  0.94730000  0.5 -0.1091580117
C  C285  1  0.54790000  0.59220000  0.01250000  0.5 -0.1390455605
C  C286  1  0.04790000  0.40780000  0.98750000  0.5 -0.1390455605
C  C287  1  0.54790000  0.40780000  0.01250000  0.5 -0.1390455605
C  C288  1  0.04790000  0.59220000  0.98750000  0.5 -0.1390455605
C  C289  1  0.58460000  0.67130000  0.01740000  0.5 -0.0972607325
C  C290  1  0.08460000  0.32870000  0.98260000  0.5 -0.0972607325
C  C291  1  0.58460000  0.32870000  0.01740000  0.5 -0.0972607325
C  C292  1  0.08460000  0.67130000  0.98260000  0.5 -0.0972607325
C  C293  1  0.59420000  0.71310000  0.06270000  0.5 0.0197988197
C  C294  1  0.09420000  0.28690000  0.93730000  0.5 0.0197988197
C  C295  1  0.59420000  0.28690000  0.06270000  0.5 0.0197988197
C  C296  1  0.09420000  0.71310000  0.93730000  0.5 0.0197988197
C  C297  1  0.56710000  0.67600000  0.10290000  0.5 -0.0814911246
C  C298  1  0.06710000  0.32400000  0.89710000  0.5 -0.0814911246
C  C299  1  0.56710000  0.32400000  0.10290000  0.5 -0.0814911246
C  C300  1  0.06710000  0.67600000  0.89710000  0.5 -0.0814911246
C  C301  1  0.53030000  0.59650000  0.09790000  0.5 -0.1390455605
C  C302  1  0.03030000  0.40350000  0.90210000  0.5 -0.1390455605
C  C303  1  0.53030000  0.40350000  0.09790000  0.5 -0.1390455605
C  C304  1  0.03030000  0.59650000  0.90210000  0.5 -0.1390455605
C  C305  1  0.63410000  0.79800000  0.06500000  0.5 0.2389762832
C  C306  1  0.13410000  0.20200000  0.93500000  0.5 0.2389762832
C  C307  1  0.63410000  0.20200000  0.06500000  0.5 0.2389762832
C  C308  1  0.13410000  0.79800000  0.93500000  0.5 0.2389762832
C  C309  1  0.41270000  0.45370000  0.08260000  0.5 -0.0920408997
C  C310  1  0.91270000  0.54630000  0.91740000  0.5 -0.0920408997
C  C311  1  0.41270000  0.54630000  0.08260000  0.5 -0.0920408997
C  C312  1  0.91270000  0.45370000  0.91740000  0.5 -0.0920408997
C  C313  1  0.38750000  0.54660000  0.08960000  0.5 -0.0418143457
C  C314  1  0.88750000  0.45340000  0.91040000  0.5 -0.0418143457
C  C315  1  0.38750000  0.45340000  0.08960000  0.5 -0.0499827147
C  C316  1  0.88750000  0.54660000  0.91040000  0.5 -0.0418143457
C  C317  1  0.34390000  0.55470000  0.12140000  0.5 0.0197988197
C  C318  1  0.84390000  0.44530000  0.87860000  0.5 0.0197988197
C  C319  1  0.34390000  0.44530000  0.12140000  0.5 0.0197988197
C  C320  1  0.84390000  0.55470000  0.87860000  0.5 0.0197988197
C  C321  1  0.32540000  0.47000000  0.14610000  0.5 -0.0098833061
C  C322  1  0.82540000  0.53000000  0.85390000  0.5 -0.0098833061
C  C323  1  0.32540000  0.53000000  0.14610000  0.5 -0.0098833061
C  C324  1  0.82540000  0.47000000  0.85390000  0.5 -0.0098833061
C  C325  1  0.35060000  0.37720000  0.13900000  0.5 -0.1273539833
C  C326  1  0.85060000  0.62280000  0.86100000  0.5 -0.1273539833
C  C327  1  0.35060000  0.62280000  0.13900000  0.5 -0.1273539833
C  C328  1  0.85060000  0.37720000  0.86100000  0.5 -0.1273539833
C  C329  1  0.39430000  0.36900000  0.10730000  0.5 -0.1212511145
C  C330  1  0.89430000  0.63100000  0.89270000  0.5 -0.1212511145
C  C331  1  0.39430000  0.63100000  0.10730000  0.5 -0.1212511145
C  C332  1  0.89430000  0.36900000  0.89270000  0.5 -0.1212511145
C  C333  1  0.27750000  0.47480000  0.18170000  0.5 0.2711277476
C  C334  1  0.77750000  0.52520000  0.81830000  0.5 0.2711277476
C  C335  1  0.27750000  0.52520000  0.18170000  0.5 0.2711277476
C  C336  1  0.77750000  0.47480000  0.81830000  0.5 0.2711277476
O  O1  1  0.71570000  0.00000000  0.55820000  1.0 -0.3193802962
O  O2  1  0.21570000  0.00000000  0.44180000  1.0 -0.3193802962
O  O3  1  0.75030000  0.00000000  0.30940000  1.0 -0.271342946
O  O4  1  0.25030000  0.00000000  0.69060000  1.0 -0.271342946
O  O5  1  0.21700000  0.75340000  0.25030000  1.0 -0.4591632837
O  O6  1  0.71700000  0.24660000  0.74970000  1.0 -0.4591632837
O  O7  1  0.21700000  0.24660000  0.25030000  1.0 -0.4591632837
O  O8  1  0.71700000  0.75340000  0.74970000  1.0 -0.4591632837
O  O9  1  0.21760000  0.95020000  0.05070000  0.5 -0.2163941318
O  O10  1  0.71760000  0.04980000  0.94930000  0.5 -0.2082078014
O  O11  1  0.21760000  0.04980000  0.05070000  0.5 -0.2082078014
O  O12  1  0.71760000  0.95020000  0.94930000  0.5 -0.2163941318
O  O13  1  0.16420000  0.96470000  0.80190000  0.5 0.0197988197
O  O14  1  0.66420000  0.03530000  0.19810000  0.5 0.0111489623
O  O15  1  0.16420000  0.03530000  0.80190000  0.5 0.0111489623
O  O16  1  0.66420000  0.96470000  0.19810000  0.5 0.0197988197
O  O17  1  0.47610000  0.51460000  0.48320000  0.5 -0.4744214544
O  O18  1  0.97610000  0.48540000  0.51680000  0.5 -0.4744214544
O  O19  1  0.47610000  0.48540000  0.48320000  0.5 -0.4744214544
O  O20  1  0.97610000  0.51460000  0.51680000  0.5 -0.4744214544
O  O21  1  0.68130000  0.87840000  0.46540000  0.5 -0.19006814
O  O22  1  0.18130000  0.12160000  0.53460000  0.5 -0.19006814
O  O23  1  0.68130000  0.12160000  0.46540000  0.5 -0.19006814
O  O24  1  0.18130000  0.87840000  0.53460000  0.5 -0.19006814
O  O25  1  0.67070000  0.92050000  0.38090000  0.5 -0.1390455605
O  O26  1  0.17070000  0.07950000  0.61910000  0.5 -0.1390455605
O  O27  1  0.67070000  0.07950000  0.38090000  0.5 -0.1390455605
O  O28  1  0.17070000  0.92050000  0.61910000  0.5 -0.1390455605
O  O29  1  0.27540000  0.59500000  0.29960000  0.5 -0.2608180383
O  O30  1  0.77540000  0.40500000  0.70040000  0.5 -0.2608180383
O  O31  1  0.27540000  0.40500000  0.29960000  0.5 -0.2608180383
O  O32  1  0.77540000  0.59500000  0.70040000  0.5 -0.2608180383
O  O33  1  0.27860000  0.42440000  0.28580000  0.5 -0.1728602659
O  O34  1  0.77860000  0.57560000  0.71420000  0.5 -0.1728602659
O  O35  1  0.27860000  0.57560000  0.28580000  0.5 -0.1728602659
O  O36  1  0.77860000  0.42440000  0.71420000  0.5 -0.1728602659
O  O37  1  0.67530000  0.12570000  0.38010000  0.5 -0.0499827147
O  O38  1  0.17530000  0.87430000  0.61990000  0.5 -0.0499827147
O  O39  1  0.67530000  0.87430000  0.38010000  0.5 -0.0499827147
O  O40  1  0.17530000  0.12570000  0.61990000  0.5 -0.0499827147
O  O41  1  0.65480000  0.07910000  0.45970000  0.5 -0.2082078014
O  O42  1  0.15480000  0.92090000  0.54030000  0.5 -0.2082078014
O  O43  1  0.65480000  0.92090000  0.45970000  0.5 -0.2082078014
O  O44  1  0.15480000  0.07910000  0.54030000  0.5 -0.2082078014
O  O45  1  0.26390000  0.87090000  0.52560000  0.5 -0.19006814
O  O46  1  0.76390000  0.12910000  0.47440000  0.5 -0.2003065774
O  O47  1  0.26390000  0.12910000  0.52560000  0.5 -0.2003065774
O  O48  1  0.76390000  0.87090000  0.47440000  0.5 -0.19006814
O  O49  1  0.28220000  0.88870000  0.60290000  0.5 -0.3555030355
O  O50  1  0.78220000  0.11130000  0.39710000  0.5 -0.3555030355
O  O51  1  0.28220000  0.11130000  0.60290000  0.5 -0.3555030355
O  O52  1  0.78220000  0.88870000  0.39710000  0.5 -0.3555030355
O  O53  1  0.66450000  0.61110000  0.69250000  0.5 -0.19006814
O  O54  1  0.16450000  0.38890000  0.30750000  0.5 -0.19006814
O  O55  1  0.66450000  0.38890000  0.69250000  0.5 -0.19006814
O  O56  1  0.16450000  0.61110000  0.30750000  0.5 -0.19006814
O  O57  1  0.66540000  0.43240000  0.69230000  0.5 -0.0270003272
O  O58  1  0.16540000  0.56760000  0.30770000  0.5 -0.0418143457
O  O59  1  0.66540000  0.56760000  0.69230000  0.5 -0.0418143457
O  O60  1  0.16540000  0.43240000  0.30770000  0.5 -0.0270003272
O  O61  1  0.28880000  0.09120000  0.52480000  0.5 -0.2003065774
O  O62  1  0.78880000  0.90880000  0.47520000  0.5 -0.2003065774
O  O63  1  0.28880000  0.90880000  0.52480000  0.5 -0.2003065774
O  O64  1  0.78880000  0.09120000  0.47520000  0.5 -0.2003065774
O  O65  1  0.29680000  0.10370000  0.60510000  0.5 -0.3435473124
O  O66  1  0.79680000  0.89630000  0.39490000  0.5 -0.3435473124
O  O67  1  0.29680000  0.89630000  0.60510000  0.5 -0.3435473124
O  O68  1  0.79680000  0.10370000  0.39490000  0.5 -0.3435473124
O  O69  1  0.44910000  0.44680000  0.98130000  0.5 -0.3300743827
O  O70  1  0.94910000  0.55320000  0.01870000  0.5 -0.3300743827
O  O71  1  0.44910000  0.55320000  0.98130000  0.5 -0.3300743827
O  O72  1  0.94910000  0.44680000  0.01870000  0.5 -0.3300743827
O  O73  1  0.26430000  0.86600000  0.96300000  0.5 -0.0214814375
O  O74  1  0.76430000  0.13400000  0.03700000  0.5 -0.0214814375
O  O75  1  0.26430000  0.13400000  0.96300000  0.5 -0.0214814375
O  O76  1  0.76430000  0.86600000  0.03700000  0.5 -0.0214814375
O  O77  1  0.24540000  0.82340000  0.87970000  0.5 -0.1212511145
O  O78  1  0.74540000  0.17660000  0.12030000  0.5 -0.1212511145
O  O79  1  0.24540000  0.17660000  0.87970000  0.5 -0.1212511145
O  O80  1  0.74540000  0.82340000  0.12030000  0.5 -0.1212511145
O  O81  1  0.64780000  0.56500000  0.79970000  0.5 0.0111489623
O  O82  1  0.14780000  0.43500000  0.20030000  0.5 0.0111489623
O  O83  1  0.64780000  0.43500000  0.79970000  0.5 0.0111489623
O  O84  1  0.14780000  0.56500000  0.20030000  0.5 0.0111489623
O  O85  1  0.64620000  0.39300000  0.78600000  0.5 -0.1728602659
O  O86  1  0.14620000  0.60700000  0.21400000  0.5 -0.1728602659
O  O87  1  0.64620000  0.60700000  0.78600000  0.5 -0.1596498409
O  O88  1  0.14620000  0.39300000  0.21400000  0.5 -0.1728602659
O  O89  1  0.25040000  0.05000000  0.96850000  0.5 -0.0678539689
O  O90  1  0.75040000  0.95000000  0.03150000  0.5 -0.0678539689
O  O91  1  0.25040000  0.95000000  0.96850000  0.5 -0.0678539689
O  O92  1  0.75040000  0.05000000  0.03150000  0.5 -0.0678539689
O  O93  1  0.24240000  0.07300000  0.88470000  0.5 -0.1728602659
O  O94  1  0.74240000  0.92700000  0.11530000  0.5 -0.1728602659
O  O95  1  0.24240000  0.92700000  0.88470000  0.5 -0.1728602659
O  O96  1  0.74240000  0.07300000  0.11530000  0.5 -0.1795259574
O  O97  1  0.63700000  0.05950000  0.09920000  0.5 -0.0972607325
O  O98  1  0.13700000  0.94050000  0.90080000  0.5 -0.0972607325
O  O99  1  0.63700000  0.94050000  0.09920000  0.5 -0.0972607325
O  O100  1  0.13700000  0.05950000  0.90080000  0.5 -0.0972607325
O  O101  1  0.63400000  0.02980000  0.02160000  0.5 -0.0418143457
O  O102  1  0.13400000  0.97020000  0.97840000  0.5 -0.0418143457
O  O103  1  0.63400000  0.97020000  0.02160000  0.5 -0.0418143457
O  O104  1  0.13400000  0.02980000  0.97840000  0.5 -0.0418143457
O  O105  1  0.65690000  0.82400000  0.02420000  0.5 -0.4591632837
O  O106  1  0.15690000  0.17600000  0.97580000  0.5 -0.4591632837
O  O107  1  0.65690000  0.17600000  0.02420000  0.5 -0.4591632837
O  O108  1  0.15690000  0.82400000  0.97580000  0.5 -0.4591632837
O  O109  1  0.64220000  0.83800000  0.10790000  0.5 -0.2338594848
O  O110  1  0.14220000  0.16200000  0.89210000  0.5 -0.2338594848
O  O111  1  0.64220000  0.16200000  0.10790000  0.5 -0.2338594848
O  O112  1  0.14220000  0.83800000  0.89210000  0.5 -0.2338594848
O  O113  1  0.26130000  0.56540000  0.19180000  0.5 -0.0609453452
O  O114  1  0.76130000  0.43460000  0.80820000  0.5 -0.0609453452
O  O115  1  0.26130000  0.43460000  0.19180000  0.5 -0.0609453452
O  O116  1  0.76130000  0.56540000  0.80820000  0.5 -0.0609453452
O  O117  1  0.26460000  0.39660000  0.19650000  0.5 -0.1596498409
O  O118  1  0.76460000  0.60340000  0.80350000  0.5 -0.1596498409
O  O119  1  0.26460000  0.60340000  0.19650000  0.5 -0.1596498409
O  O120  1  0.76460000  0.39660000  0.80350000  0.5 -0.1596498409
