# DDEC6 charges by PACMAN v1.1 (https://github.com/mtap-research/PACMAN-charge/)
data_d2dt02518c2_ASR_pacman
_symmetry_space_group_name_H-M   'P 1'
_cell_length_a   31.90510000
_cell_length_b   31.90510000
_cell_length_c   11.09130000
_cell_angle_alpha   90.00000000
_cell_angle_beta   90.00000000
_cell_angle_gamma   90.00000000
_symmetry_Int_Tables_number   1
_chemical_formula_structural   Zn8H88C136(N6O5)5
_chemical_formula_sum   'Zn16 H176 C272 N60 O50'
_cell_volume   11290.22696868
_cell_formula_units_Z   2
loop_
 _symmetry_equiv_pos_site_id
 _symmetry_equiv_pos_as_xyz
  1  'x, y, z'
loop_
 _atom_site_type_symbol
 _atom_site_label
 _atom_site_symmetry_multiplicity
 _atom_site_fract_x
 _atom_site_fract_y
 _atom_site_fract_z
 _atom_site_occupancy
 _atom_site_charge
Zn  Zn1  1  0.35064000  0.00000000  0.00000000  1.0 0.6363131379
Zn  Zn2  1  0.64936000  0.00000000  0.00000000  1.0 0.6363131379
Zn  Zn3  1  0.00000000  0.64936000  0.00000000  1.0 0.6363131379
Zn  Zn4  1  0.00000000  0.35064000  0.00000000  1.0 0.6363131379
Zn  Zn5  1  0.14936000  0.50000000  0.00000000  1.0 0.6363131379
Zn  Zn6  1  0.85064000  0.50000000  0.00000000  1.0 0.6363131379
Zn  Zn7  1  0.50000000  0.85064000  0.00000000  1.0 0.6363131379
Zn  Zn8  1  0.50000000  0.14936000  0.00000000  1.0 0.6363131379
Zn  Zn9  1  0.46576000  0.96576000  0.39330000  1.0 0.5273819541
Zn  Zn10  1  0.53424000  0.03424000  0.39330000  1.0 0.5273819541
Zn  Zn11  1  0.96576000  0.53424000  0.39330000  1.0 0.5273819541
Zn  Zn12  1  0.03424000  0.46576000  0.39330000  1.0 0.5273819541
Zn  Zn13  1  0.46576000  0.03424000  0.60670000  1.0 0.5273819541
Zn  Zn14  1  0.53424000  0.96576000  0.60670000  1.0 0.5273819541
Zn  Zn15  1  0.96576000  0.46576000  0.60670000  1.0 0.5273819541
Zn  Zn16  1  0.03424000  0.53424000  0.60670000  1.0 0.5273819541
H  H1  1  0.35182000  0.61132000  0.55913000  0.25 0.1203544153
H  H2  1  0.25997000  0.69887000  0.56628000  0.25 0.1203544153
H  H3  1  0.42122000  0.65535000  0.36838000  0.25 0.1304253708
H  H4  1  0.41383000  0.61691000  0.44715000  0.25 0.2084788022
H  H5  1  0.64818000  0.38868000  0.55913000  0.25 0.1203544153
H  H6  1  0.74003000  0.30113000  0.56628000  0.25 0.1203544153
H  H7  1  0.57878000  0.34465000  0.36838000  0.25 0.1304253708
H  H8  1  0.58617000  0.38309000  0.44715000  0.25 0.2084788022
H  H9  1  0.61132000  0.64818000  0.55913000  0.25 0.1203544153
H  H10  1  0.69887000  0.74003000  0.56628000  0.25 0.1203544153
H  H11  1  0.65535000  0.57878000  0.36838000  0.25 0.1304253708
H  H12  1  0.61691000  0.58617000  0.44715000  0.25 0.2084788022
H  H13  1  0.38868000  0.35182000  0.55913000  0.25 0.1203544153
H  H14  1  0.30113000  0.25997000  0.56628000  0.25 0.1203544153
H  H15  1  0.34465000  0.42122000  0.36838000  0.25 0.1304253708
H  H16  1  0.38309000  0.41383000  0.44715000  0.25 0.2084788022
H  H17  1  0.35182000  0.38868000  0.44087000  0.25 0.1203544153
H  H18  1  0.25997000  0.30113000  0.43372000  0.25 0.1203544153
H  H19  1  0.42122000  0.34465000  0.63162000  0.25 0.1304253708
H  H20  1  0.41383000  0.38309000  0.55285000  0.25 0.2084788022
H  H21  1  0.64818000  0.61132000  0.44087000  0.25 0.1203544153
H  H22  1  0.74003000  0.69887000  0.43372000  0.25 0.1203544153
H  H23  1  0.57878000  0.65535000  0.63162000  0.25 0.1304253708
H  H24  1  0.58617000  0.61691000  0.55285000  0.25 0.2084788022
H  H25  1  0.61132000  0.35182000  0.44087000  0.25 0.1203544153
H  H26  1  0.69887000  0.25997000  0.43372000  0.25 0.1203544153
H  H27  1  0.65535000  0.42122000  0.63162000  0.25 0.1304253708
H  H28  1  0.61691000  0.41383000  0.55285000  0.25 0.2084788022
H  H29  1  0.38868000  0.64818000  0.44087000  0.25 0.1203544153
H  H30  1  0.30113000  0.74003000  0.43372000  0.25 0.1203544153
H  H31  1  0.34465000  0.57878000  0.63162000  0.25 0.1304253708
H  H32  1  0.38309000  0.58617000  0.55285000  0.25 0.2084788022
H  H33  1  0.14818000  0.88868000  0.44087000  0.25 0.1203544153
H  H34  1  0.24003000  0.80113000  0.43372000  0.25 0.1203544153
H  H35  1  0.07878000  0.84465000  0.63162000  0.25 0.1304253708
H  H36  1  0.08617000  0.88309000  0.55285000  0.25 0.2084788022
H  H37  1  0.85182000  0.11132000  0.44087000  0.25 0.1203544153
H  H38  1  0.75997000  0.19887000  0.43372000  0.25 0.1203544153
H  H39  1  0.92122000  0.15535000  0.63162000  0.25 0.1304253708
H  H40  1  0.91383000  0.11691000  0.55285000  0.25 0.2084788022
H  H41  1  0.88868000  0.85182000  0.44087000  0.25 0.1203544153
H  H42  1  0.80113000  0.75997000  0.43372000  0.25 0.1203544153
H  H43  1  0.84465000  0.92122000  0.63162000  0.25 0.1304253708
H  H44  1  0.88309000  0.91383000  0.55285000  0.25 0.2084788022
H  H45  1  0.11132000  0.14818000  0.44087000  0.25 0.1203544153
H  H46  1  0.19887000  0.24003000  0.43372000  0.25 0.1203544153
H  H47  1  0.15535000  0.07878000  0.63162000  0.25 0.1304253708
H  H48  1  0.11691000  0.08617000  0.55285000  0.25 0.2084788022
H  H49  1  0.14818000  0.11132000  0.55913000  0.25 0.1203544153
H  H50  1  0.24003000  0.19887000  0.56628000  0.25 0.1203544153
H  H51  1  0.07878000  0.15535000  0.36838000  0.25 0.1304253708
H  H52  1  0.08617000  0.11691000  0.44715000  0.25 0.2084788022
H  H53  1  0.85182000  0.88868000  0.55913000  0.25 0.1203544153
H  H54  1  0.75997000  0.80113000  0.56628000  0.25 0.1203544153
H  H55  1  0.92122000  0.84465000  0.36838000  0.25 0.1304253708
H  H56  1  0.91383000  0.88309000  0.44715000  0.25 0.2084788022
H  H57  1  0.88868000  0.14818000  0.55913000  0.25 0.1203544153
H  H58  1  0.80113000  0.24003000  0.56628000  0.25 0.1203544153
H  H59  1  0.84465000  0.07878000  0.36838000  0.25 0.1304253708
H  H60  1  0.88309000  0.08617000  0.44715000  0.25 0.2084788022
H  H61  1  0.11132000  0.85182000  0.55913000  0.25 0.1203544153
H  H62  1  0.19887000  0.75997000  0.56628000  0.25 0.1203544153
H  H63  1  0.15535000  0.92122000  0.36838000  0.25 0.1304253708
H  H64  1  0.11691000  0.91383000  0.44715000  0.25 0.2084788022
H  H65  1  0.38882000  0.97020000  0.23281000  0.5 0.09609699
H  H66  1  0.52304000  0.10929000  0.21581000  0.5 0.1304253708
H  H67  1  0.42053000  0.12248000  0.94265000  0.5 0.1752694523
H  H68  1  0.38897000  0.08722000  0.96140000  0.5 0.1304253708
H  H69  1  0.42070000  0.87478000  0.65608000  0.5 0.0937833463
H  H70  1  0.39170000  0.81427000  0.74129000  0.5 0.136716028
H  H71  1  0.32097000  0.79719000  0.44177000  0.5 0.0701155787
H  H72  1  0.34996000  0.85770000  0.35655000  0.5 0.1203544153
H  H73  1  0.27448000  0.78053000  0.62017000  0.5 0.2019791243
H  H74  1  0.38881000  0.73182000  0.69602000  0.5 0.1509654414
H  H75  1  0.31991000  0.63599000  0.91578000  0.5 0.1070698351
H  H76  1  0.27811000  0.58916000  0.02490000  0.5 0.1304253708
H  H77  1  0.18000000  0.61474000  0.80476000  0.5 0.0816261446
H  H78  1  0.22180000  0.66157000  0.69563000  0.5 0.1304253708
H  H79  1  0.39374000  0.66296000  0.79105000  0.5 0.3077176487
H  H80  1  0.35460000  0.63784000  0.82245000  0.5 0.2812492227
H  H81  1  0.27721000  0.52860000  0.76640000  0.5 0.136716028
H  H82  1  0.31637000  0.57299000  0.64182000  0.5 0.1070698351
H  H83  1  0.23215000  0.66611000  0.69730000  0.5 0.1509654414
H  H84  1  0.19299000  0.62172000  0.82188000  0.5 0.1070698351
H  H85  1  0.61118000  0.02980000  0.23281000  0.5 0.09609699
H  H86  1  0.47696000  0.89071000  0.21581000  0.5 0.1304253708
H  H87  1  0.57947000  0.87752000  0.94265000  0.5 0.1752694523
H  H88  1  0.61103000  0.91278000  0.96140000  0.5 0.1304253708
H  H89  1  0.57930000  0.12522000  0.65608000  0.5 0.0937833463
H  H90  1  0.60830000  0.18573000  0.74129000  0.5 0.136716028
H  H91  1  0.67903000  0.20281000  0.44177000  0.5 0.0701155787
H  H92  1  0.65004000  0.14230000  0.35655000  0.5 0.1203544153
H  H93  1  0.72552000  0.21947000  0.62017000  0.5 0.2019791243
H  H94  1  0.61119000  0.26818000  0.69602000  0.5 0.1509654414
H  H95  1  0.68009000  0.36401000  0.91578000  0.5 0.1070698351
H  H96  1  0.72189000  0.41084000  0.02490000  0.5 0.1304253708
H  H97  1  0.82000000  0.38526000  0.80476000  0.5 0.0816261446
H  H98  1  0.77820000  0.33843000  0.69563000  0.5 0.1304253708
H  H99  1  0.60626000  0.33704000  0.79105000  0.5 0.3077176487
H  H100  1  0.64540000  0.36216000  0.82245000  0.5 0.2812492227
H  H101  1  0.72279000  0.47140000  0.76640000  0.5 0.136716028
H  H102  1  0.68363000  0.42701000  0.64182000  0.5 0.1070698351
H  H103  1  0.76785000  0.33389000  0.69730000  0.5 0.1509654414
H  H104  1  0.80701000  0.37828000  0.82188000  0.5 0.1070698351
H  H105  1  0.97020000  0.61118000  0.23281000  0.5 0.09609699
H  H106  1  0.10929000  0.47696000  0.21581000  0.5 0.1304253708
H  H107  1  0.12248000  0.57947000  0.94265000  0.5 0.1752694523
H  H108  1  0.08722000  0.61103000  0.96140000  0.5 0.1304253708
H  H109  1  0.87478000  0.57930000  0.65608000  0.5 0.0937833463
H  H110  1  0.81427000  0.60830000  0.74129000  0.5 0.136716028
H  H111  1  0.79719000  0.67903000  0.44177000  0.5 0.0701155787
H  H112  1  0.85770000  0.65004000  0.35655000  0.5 0.1203544153
H  H113  1  0.78053000  0.72552000  0.62017000  0.5 0.2019791243
H  H114  1  0.73182000  0.61119000  0.69602000  0.5 0.1509654414
H  H115  1  0.63599000  0.68009000  0.91578000  0.5 0.1070698351
H  H116  1  0.58916000  0.72189000  0.02490000  0.5 0.1304253708
H  H117  1  0.61474000  0.82000000  0.80476000  0.5 0.0816261446
H  H118  1  0.66157000  0.77820000  0.69563000  0.5 0.1304253708
H  H119  1  0.66296000  0.60626000  0.79105000  0.5 0.3077176487
H  H120  1  0.63784000  0.64540000  0.82245000  0.5 0.2812492227
H  H121  1  0.52860000  0.72279000  0.76640000  0.5 0.136716028
H  H122  1  0.57299000  0.68363000  0.64182000  0.5 0.1070698351
H  H123  1  0.66611000  0.76785000  0.69730000  0.5 0.1509654414
H  H124  1  0.62172000  0.80701000  0.82188000  0.5 0.1070698351
H  H125  1  0.02980000  0.38882000  0.23281000  0.5 0.09609699
H  H126  1  0.89071000  0.52304000  0.21581000  0.5 0.1304253708
H  H127  1  0.87752000  0.42053000  0.94265000  0.5 0.1752694523
H  H128  1  0.91278000  0.38897000  0.96140000  0.5 0.1304253708
H  H129  1  0.12522000  0.42070000  0.65608000  0.5 0.0937833463
H  H130  1  0.18573000  0.39170000  0.74129000  0.5 0.136716028
H  H131  1  0.20281000  0.32097000  0.44177000  0.5 0.0701155787
H  H132  1  0.14230000  0.34996000  0.35655000  0.5 0.1203544153
H  H133  1  0.21947000  0.27448000  0.62017000  0.5 0.2019791243
H  H134  1  0.26818000  0.38881000  0.69602000  0.5 0.1509654414
H  H135  1  0.36401000  0.31991000  0.91578000  0.5 0.1070698351
H  H136  1  0.41084000  0.27811000  0.02490000  0.5 0.1304253708
H  H137  1  0.38526000  0.18000000  0.80476000  0.5 0.0816261446
H  H138  1  0.33843000  0.22180000  0.69563000  0.5 0.1304253708
H  H139  1  0.33704000  0.39374000  0.79105000  0.5 0.3077176487
H  H140  1  0.36216000  0.35460000  0.82245000  0.5 0.2812492227
H  H141  1  0.47140000  0.27721000  0.76640000  0.5 0.136716028
H  H142  1  0.42701000  0.31637000  0.64182000  0.5 0.1070698351
H  H143  1  0.33389000  0.23215000  0.69730000  0.5 0.1509654414
H  H144  1  0.37828000  0.19299000  0.82188000  0.5 0.1070698351
H  H145  1  0.38882000  0.02980000  0.76719000  0.5 0.09609699
H  H146  1  0.52304000  0.89071000  0.78419000  0.5 0.1304253708
H  H147  1  0.42053000  0.87752000  0.05735000  0.5 0.1752694523
H  H148  1  0.38897000  0.91278000  0.03860000  0.5 0.1304253708
H  H149  1  0.42070000  0.12522000  0.34392000  0.5 0.0937833463
H  H150  1  0.39170000  0.18573000  0.25871000  0.5 0.136716028
H  H151  1  0.32097000  0.20281000  0.55823000  0.5 0.0701155787
H  H152  1  0.34996000  0.14230000  0.64345000  0.5 0.1203544153
H  H153  1  0.27448000  0.21947000  0.37983000  0.5 0.2019791243
H  H154  1  0.38881000  0.26818000  0.30398000  0.5 0.1509654414
H  H155  1  0.31991000  0.36401000  0.08422000  0.5 0.1070698351
H  H156  1  0.27811000  0.41084000  0.97510000  0.5 0.1304253708
H  H157  1  0.18000000  0.38526000  0.19524000  0.5 0.0816261446
H  H158  1  0.22180000  0.33843000  0.30437000  0.5 0.1304253708
H  H159  1  0.39374000  0.33704000  0.20895000  0.5 0.3077176487
H  H160  1  0.35460000  0.36216000  0.17755000  0.5 0.2812492227
H  H161  1  0.27721000  0.47140000  0.23360000  0.5 0.136716028
H  H162  1  0.31637000  0.42701000  0.35818000  0.5 0.1070698351
H  H163  1  0.23215000  0.33389000  0.30270000  0.5 0.1509654414
H  H164  1  0.19299000  0.37828000  0.17812000  0.5 0.1070698351
H  H165  1  0.61118000  0.97020000  0.76719000  0.5 0.09609699
H  H166  1  0.47696000  0.10929000  0.78419000  0.5 0.1304253708
H  H167  1  0.57947000  0.12248000  0.05735000  0.5 0.1752694523
H  H168  1  0.61103000  0.08722000  0.03860000  0.5 0.1304253708
H  H169  1  0.57930000  0.87478000  0.34392000  0.5 0.0937833463
H  H170  1  0.60830000  0.81427000  0.25871000  0.5 0.136716028
H  H171  1  0.67903000  0.79719000  0.55823000  0.5 0.0701155787
H  H172  1  0.65004000  0.85770000  0.64345000  0.5 0.1203544153
H  H173  1  0.72552000  0.78053000  0.37983000  0.5 0.2019791243
H  H174  1  0.61119000  0.73182000  0.30398000  0.5 0.1509654414
H  H175  1  0.68009000  0.63599000  0.08422000  0.5 0.1070698351
H  H176  1  0.72189000  0.58916000  0.97510000  0.5 0.1304253708
H  H177  1  0.82000000  0.61474000  0.19524000  0.5 0.0816261446
H  H178  1  0.77820000  0.66157000  0.30437000  0.5 0.1304253708
H  H179  1  0.60626000  0.66296000  0.20895000  0.5 0.3077176487
H  H180  1  0.64540000  0.63784000  0.17755000  0.5 0.2812492227
H  H181  1  0.72279000  0.52860000  0.23360000  0.5 0.136716028
H  H182  1  0.68363000  0.57299000  0.35818000  0.5 0.1070698351
H  H183  1  0.76785000  0.66611000  0.30270000  0.5 0.1509654414
H  H184  1  0.80701000  0.62172000  0.17812000  0.5 0.1070698351
H  H185  1  0.97020000  0.38882000  0.76719000  0.5 0.09609699
H  H186  1  0.10929000  0.52304000  0.78419000  0.5 0.1304253708
H  H187  1  0.12248000  0.42053000  0.05735000  0.5 0.1752694523
H  H188  1  0.08722000  0.38897000  0.03860000  0.5 0.1304253708
H  H189  1  0.87478000  0.42070000  0.34392000  0.5 0.0937833463
H  H190  1  0.81427000  0.39170000  0.25871000  0.5 0.136716028
H  H191  1  0.79719000  0.32097000  0.55823000  0.5 0.0701155787
H  H192  1  0.85770000  0.34996000  0.64345000  0.5 0.1203544153
H  H193  1  0.78053000  0.27448000  0.37983000  0.5 0.2019791243
H  H194  1  0.73182000  0.38881000  0.30398000  0.5 0.1509654414
H  H195  1  0.63599000  0.31991000  0.08422000  0.5 0.1070698351
H  H196  1  0.58916000  0.27811000  0.97510000  0.5 0.1304253708
H  H197  1  0.61474000  0.18000000  0.19524000  0.5 0.0816261446
H  H198  1  0.66157000  0.22180000  0.30437000  0.5 0.1304253708
H  H199  1  0.66296000  0.39374000  0.20895000  0.5 0.3077176487
H  H200  1  0.63784000  0.35460000  0.17755000  0.5 0.2812492227
H  H201  1  0.52860000  0.27721000  0.23360000  0.5 0.136716028
H  H202  1  0.57299000  0.31637000  0.35818000  0.5 0.1070698351
H  H203  1  0.66611000  0.23215000  0.30270000  0.5 0.1509654414
H  H204  1  0.62172000  0.19299000  0.17812000  0.5 0.1070698351
H  H205  1  0.02980000  0.61118000  0.76719000  0.5 0.09609699
H  H206  1  0.89071000  0.47696000  0.78419000  0.5 0.1304253708
H  H207  1  0.87752000  0.57947000  0.05735000  0.5 0.1752694523
H  H208  1  0.91278000  0.61103000  0.03860000  0.5 0.1304253708
H  H209  1  0.12522000  0.57930000  0.34392000  0.5 0.0937833463
H  H210  1  0.18573000  0.60830000  0.25871000  0.5 0.136716028
H  H211  1  0.20281000  0.67903000  0.55823000  0.5 0.0701155787
H  H212  1  0.14230000  0.65004000  0.64345000  0.5 0.1203544153
H  H213  1  0.21947000  0.72552000  0.37983000  0.5 0.2019791243
H  H214  1  0.26818000  0.61119000  0.30398000  0.5 0.1509654414
H  H215  1  0.36401000  0.68009000  0.08422000  0.5 0.1070698351
H  H216  1  0.41084000  0.72189000  0.97510000  0.5 0.1304253708
H  H217  1  0.38526000  0.82000000  0.19524000  0.5 0.0816261446
H  H218  1  0.33843000  0.77820000  0.30437000  0.5 0.1304253708
H  H219  1  0.33704000  0.60626000  0.20895000  0.5 0.3077176487
H  H220  1  0.36216000  0.64540000  0.17755000  0.5 0.2812492227
H  H221  1  0.47140000  0.72279000  0.23360000  0.5 0.136716028
H  H222  1  0.42701000  0.68363000  0.35818000  0.5 0.1070698351
H  H223  1  0.33389000  0.76785000  0.30270000  0.5 0.1509654414
H  H224  1  0.37828000  0.80701000  0.17812000  0.5 0.1070698351
H  H225  1  0.11118000  0.52980000  0.76719000  0.5 0.09609699
H  H226  1  0.97696000  0.39071000  0.78419000  0.5 0.1304253708
H  H227  1  0.07947000  0.37752000  0.05735000  0.5 0.1752694523
H  H228  1  0.11103000  0.41278000  0.03860000  0.5 0.1304253708
H  H229  1  0.07930000  0.62522000  0.34392000  0.5 0.0937833463
H  H230  1  0.10830000  0.68573000  0.25871000  0.5 0.136716028
H  H231  1  0.17903000  0.70281000  0.55823000  0.5 0.0701155787
H  H232  1  0.15004000  0.64230000  0.64345000  0.5 0.1203544153
H  H233  1  0.22552000  0.71947000  0.37983000  0.5 0.2019791243
H  H234  1  0.11119000  0.76818000  0.30398000  0.5 0.1509654414
H  H235  1  0.18009000  0.86401000  0.08422000  0.5 0.1070698351
H  H236  1  0.22189000  0.91084000  0.97510000  0.5 0.1304253708
H  H237  1  0.32000000  0.88526000  0.19524000  0.5 0.0816261446
H  H238  1  0.27820000  0.83843000  0.30437000  0.5 0.1304253708
H  H239  1  0.10626000  0.83704000  0.20895000  0.5 0.3077176487
H  H240  1  0.14540000  0.86216000  0.17755000  0.5 0.2812492227
H  H241  1  0.22279000  0.97140000  0.23360000  0.5 0.136716028
H  H242  1  0.18363000  0.92701000  0.35818000  0.5 0.1070698351
H  H243  1  0.26785000  0.83389000  0.30270000  0.5 0.1509654414
H  H244  1  0.30701000  0.87828000  0.17812000  0.5 0.1070698351
H  H245  1  0.88882000  0.47020000  0.76719000  0.5 0.09609699
H  H246  1  0.02304000  0.60929000  0.78419000  0.5 0.1304253708
H  H247  1  0.92053000  0.62248000  0.05735000  0.5 0.1752694523
H  H248  1  0.88897000  0.58722000  0.03860000  0.5 0.1304253708
H  H249  1  0.92070000  0.37478000  0.34392000  0.5 0.0937833463
H  H250  1  0.89170000  0.31427000  0.25871000  0.5 0.136716028
H  H251  1  0.82097000  0.29719000  0.55823000  0.5 0.0701155787
H  H252  1  0.84996000  0.35770000  0.64345000  0.5 0.1203544153
H  H253  1  0.77448000  0.28053000  0.37983000  0.5 0.2019791243
H  H254  1  0.88881000  0.23182000  0.30398000  0.5 0.1509654414
H  H255  1  0.81991000  0.13599000  0.08422000  0.5 0.1070698351
H  H256  1  0.77811000  0.08916000  0.97510000  0.5 0.1304253708
H  H257  1  0.68000000  0.11474000  0.19524000  0.5 0.0816261446
H  H258  1  0.72180000  0.16157000  0.30437000  0.5 0.1304253708
H  H259  1  0.89374000  0.16296000  0.20895000  0.5 0.3077176487
H  H260  1  0.85460000  0.13784000  0.17755000  0.5 0.2812492227
H  H261  1  0.77721000  0.02860000  0.23360000  0.5 0.136716028
H  H262  1  0.81637000  0.07299000  0.35818000  0.5 0.1070698351
H  H263  1  0.73215000  0.16611000  0.30270000  0.5 0.1509654414
H  H264  1  0.69299000  0.12172000  0.17812000  0.5 0.1070698351
H  H265  1  0.52980000  0.88882000  0.76719000  0.5 0.09609699
H  H266  1  0.39071000  0.02304000  0.78419000  0.5 0.1304253708
H  H267  1  0.37752000  0.92053000  0.05735000  0.5 0.1752694523
H  H268  1  0.41278000  0.88897000  0.03860000  0.5 0.1304253708
H  H269  1  0.62522000  0.92070000  0.34392000  0.5 0.0937833463
H  H270  1  0.68573000  0.89170000  0.25871000  0.5 0.136716028
H  H271  1  0.70281000  0.82097000  0.55823000  0.5 0.0701155787
H  H272  1  0.64230000  0.84996000  0.64345000  0.5 0.1203544153
H  H273  1  0.71947000  0.77448000  0.37983000  0.5 0.2019791243
H  H274  1  0.76818000  0.88881000  0.30398000  0.5 0.1509654414
H  H275  1  0.86401000  0.81991000  0.08422000  0.5 0.1070698351
H  H276  1  0.91084000  0.77811000  0.97510000  0.5 0.1304253708
H  H277  1  0.88526000  0.68000000  0.19524000  0.5 0.0816261446
H  H278  1  0.83843000  0.72180000  0.30437000  0.5 0.1304253708
H  H279  1  0.83704000  0.89374000  0.20895000  0.5 0.3077176487
H  H280  1  0.86216000  0.85460000  0.17755000  0.5 0.2812492227
H  H281  1  0.97140000  0.77721000  0.23360000  0.5 0.136716028
H  H282  1  0.92701000  0.81637000  0.35818000  0.5 0.1070698351
H  H283  1  0.83389000  0.73215000  0.30270000  0.5 0.1509654414
H  H284  1  0.87828000  0.69299000  0.17812000  0.5 0.1070698351
H  H285  1  0.47020000  0.11118000  0.76719000  0.5 0.09609699
H  H286  1  0.60929000  0.97696000  0.78419000  0.5 0.1304253708
H  H287  1  0.62248000  0.07947000  0.05735000  0.5 0.1752694523
H  H288  1  0.58722000  0.11103000  0.03860000  0.5 0.1304253708
H  H289  1  0.37478000  0.07930000  0.34392000  0.5 0.0937833463
H  H290  1  0.31427000  0.10830000  0.25871000  0.5 0.136716028
H  H291  1  0.29719000  0.17903000  0.55823000  0.5 0.0701155787
H  H292  1  0.35770000  0.15004000  0.64345000  0.5 0.1203544153
H  H293  1  0.28053000  0.22552000  0.37983000  0.5 0.2019791243
H  H294  1  0.23182000  0.11119000  0.30398000  0.5 0.1509654414
H  H295  1  0.13599000  0.18009000  0.08422000  0.5 0.1070698351
H  H296  1  0.08916000  0.22189000  0.97510000  0.5 0.1304253708
H  H297  1  0.11474000  0.32000000  0.19524000  0.5 0.0816261446
H  H298  1  0.16157000  0.27820000  0.30437000  0.5 0.1304253708
H  H299  1  0.16296000  0.10626000  0.20895000  0.5 0.3077176487
H  H300  1  0.13784000  0.14540000  0.17755000  0.5 0.2812492227
H  H301  1  0.02860000  0.22279000  0.23360000  0.5 0.136716028
H  H302  1  0.07299000  0.18363000  0.35818000  0.5 0.1070698351
H  H303  1  0.16611000  0.26785000  0.30270000  0.5 0.1509654414
H  H304  1  0.12172000  0.30701000  0.17812000  0.5 0.1070698351
H  H305  1  0.11118000  0.47020000  0.23281000  0.5 0.09609699
H  H306  1  0.97696000  0.60929000  0.21581000  0.5 0.1304253708
H  H307  1  0.07947000  0.62248000  0.94265000  0.5 0.1752694523
H  H308  1  0.11103000  0.58722000  0.96140000  0.5 0.1304253708
H  H309  1  0.07930000  0.37478000  0.65608000  0.5 0.0937833463
H  H310  1  0.10830000  0.31427000  0.74129000  0.5 0.136716028
H  H311  1  0.17903000  0.29719000  0.44177000  0.5 0.0701155787
H  H312  1  0.15004000  0.35770000  0.35655000  0.5 0.1203544153
H  H313  1  0.22552000  0.28053000  0.62017000  0.5 0.2019791243
H  H314  1  0.11119000  0.23182000  0.69602000  0.5 0.1509654414
H  H315  1  0.18009000  0.13599000  0.91578000  0.5 0.1070698351
H  H316  1  0.22189000  0.08916000  0.02490000  0.5 0.1304253708
H  H317  1  0.32000000  0.11474000  0.80476000  0.5 0.0816261446
H  H318  1  0.27820000  0.16157000  0.69563000  0.5 0.1304253708
H  H319  1  0.10626000  0.16296000  0.79105000  0.5 0.3077176487
H  H320  1  0.14540000  0.13784000  0.82245000  0.5 0.2812492227
H  H321  1  0.22279000  0.02860000  0.76640000  0.5 0.136716028
H  H322  1  0.18363000  0.07299000  0.64182000  0.5 0.1070698351
H  H323  1  0.26785000  0.16611000  0.69730000  0.5 0.1509654414
H  H324  1  0.30701000  0.12172000  0.82188000  0.5 0.1070698351
H  H325  1  0.88882000  0.52980000  0.23281000  0.5 0.09609699
H  H326  1  0.02304000  0.39071000  0.21581000  0.5 0.1304253708
H  H327  1  0.92053000  0.37752000  0.94265000  0.5 0.1752694523
H  H328  1  0.88897000  0.41278000  0.96140000  0.5 0.1304253708
H  H329  1  0.92070000  0.62522000  0.65608000  0.5 0.0937833463
H  H330  1  0.89170000  0.68573000  0.74129000  0.5 0.136716028
H  H331  1  0.82097000  0.70281000  0.44177000  0.5 0.0701155787
H  H332  1  0.84996000  0.64230000  0.35655000  0.5 0.1203544153
H  H333  1  0.77448000  0.71947000  0.62017000  0.5 0.2019791243
H  H334  1  0.88881000  0.76818000  0.69602000  0.5 0.1509654414
H  H335  1  0.81991000  0.86401000  0.91578000  0.5 0.1070698351
H  H336  1  0.77811000  0.91084000  0.02490000  0.5 0.1304253708
H  H337  1  0.68000000  0.88526000  0.80476000  0.5 0.0816261446
H  H338  1  0.72180000  0.83843000  0.69563000  0.5 0.1304253708
H  H339  1  0.89374000  0.83704000  0.79105000  0.5 0.3077176487
H  H340  1  0.85460000  0.86216000  0.82245000  0.5 0.2812492227
H  H341  1  0.77721000  0.97140000  0.76640000  0.5 0.136716028
H  H342  1  0.81637000  0.92701000  0.64182000  0.5 0.1070698351
H  H343  1  0.73215000  0.83389000  0.69730000  0.5 0.1509654414
H  H344  1  0.69299000  0.87828000  0.82188000  0.5 0.1070698351
H  H345  1  0.52980000  0.11118000  0.23281000  0.5 0.09609699
H  H346  1  0.39071000  0.97696000  0.21581000  0.5 0.1304253708
H  H347  1  0.37752000  0.07947000  0.94265000  0.5 0.1752694523
H  H348  1  0.41278000  0.11103000  0.96140000  0.5 0.1304253708
H  H349  1  0.62522000  0.07930000  0.65608000  0.5 0.0937833463
H  H350  1  0.68573000  0.10830000  0.74129000  0.5 0.136716028
H  H351  1  0.70281000  0.17903000  0.44177000  0.5 0.0701155787
H  H352  1  0.64230000  0.15004000  0.35655000  0.5 0.1203544153
H  H353  1  0.71947000  0.22552000  0.62017000  0.5 0.2019791243
H  H354  1  0.76818000  0.11119000  0.69602000  0.5 0.1509654414
H  H355  1  0.86401000  0.18009000  0.91578000  0.5 0.1070698351
H  H356  1  0.91084000  0.22189000  0.02490000  0.5 0.1304253708
H  H357  1  0.88526000  0.32000000  0.80476000  0.5 0.0816261446
H  H358  1  0.83843000  0.27820000  0.69563000  0.5 0.1304253708
H  H359  1  0.83704000  0.10626000  0.79105000  0.5 0.3077176487
H  H360  1  0.86216000  0.14540000  0.82245000  0.5 0.2812492227
H  H361  1  0.97140000  0.22279000  0.76640000  0.5 0.136716028
H  H362  1  0.92701000  0.18363000  0.64182000  0.5 0.1070698351
H  H363  1  0.83389000  0.26785000  0.69730000  0.5 0.1509654414
H  H364  1  0.87828000  0.30701000  0.82188000  0.5 0.1070698351
H  H365  1  0.47020000  0.88882000  0.23281000  0.5 0.09609699
H  H366  1  0.60929000  0.02304000  0.21581000  0.5 0.1304253708
H  H367  1  0.62248000  0.92053000  0.94265000  0.5 0.1752694523
H  H368  1  0.58722000  0.88897000  0.96140000  0.5 0.1304253708
H  H369  1  0.37478000  0.92070000  0.65608000  0.5 0.0937833463
H  H370  1  0.31427000  0.89170000  0.74129000  0.5 0.136716028
H  H371  1  0.29719000  0.82097000  0.44177000  0.5 0.0701155787
H  H372  1  0.35770000  0.84996000  0.35655000  0.5 0.1203544153
H  H373  1  0.28053000  0.77448000  0.62017000  0.5 0.2019791243
H  H374  1  0.23182000  0.88881000  0.69602000  0.5 0.1509654414
H  H375  1  0.13599000  0.81991000  0.91578000  0.5 0.1070698351
H  H376  1  0.08916000  0.77811000  0.02490000  0.5 0.1304253708
H  H377  1  0.11474000  0.68000000  0.80476000  0.5 0.0816261446
H  H378  1  0.16157000  0.72180000  0.69563000  0.5 0.1304253708
H  H379  1  0.16296000  0.89374000  0.79105000  0.5 0.3077176487
H  H380  1  0.13784000  0.85460000  0.82245000  0.5 0.2812492227
H  H381  1  0.02860000  0.77721000  0.76640000  0.5 0.136716028
H  H382  1  0.07299000  0.81637000  0.64182000  0.5 0.1070698351
H  H383  1  0.16611000  0.73215000  0.69730000  0.5 0.1509654414
H  H384  1  0.12172000  0.69299000  0.82188000  0.5 0.1070698351
C  C1  1  0.40500000  0.99480000  0.21960000  0.5 0.1203544153
C  C2  1  0.45180000  0.03620000  0.23690000  0.5 0.1664677387
C  C3  1  0.42570000  0.04950000  0.14410000  0.5 0.0622453181
C  C4  1  0.43590000  0.08510000  0.07810000  0.5 0.1304253708
C  C5  1  0.49830000  0.09410000  0.19760000  0.5 0.1509654414
C  C6  1  0.40500000  0.91070000  0.43460000  0.5 0.4797148475
C  C7  1  0.38810000  0.87190000  0.49830000  0.5 0.0104666147
C  C8  1  0.40050000  0.85900000  0.61260000  0.5 -0.1185718352
C  C9  1  0.38320000  0.82310000  0.66320000  0.5 -0.1668443407
C  C10  1  0.35360000  0.80000000  0.59950000  0.5 -0.0424461217
C  C11  1  0.34120000  0.81290000  0.48530000  0.5 -0.0677950556
C  C12  1  0.35840000  0.84890000  0.43470000  0.5 -0.0487961498
C  C13  1  0.33460000  0.76180000  0.65060000  0.5 0.0204553424
C  C14  1  0.29120000  0.75850000  0.65180000  0.5 -0.082008016
C  C15  1  0.29670000  0.69060000  0.74540000  0.5 0.0204553424
C  C16  1  0.34020000  0.69390000  0.74420000  0.5 0.1858049588
C  C17  1  0.35910000  0.72950000  0.69680000  0.5 -0.3222559072
C  C18  1  0.27480000  0.65320000  0.79540000  0.5 0.0517532642
C  C19  1  0.29150000  0.63170000  0.89320000  0.5 -0.1528255219
C  C20  1  0.26670000  0.60390000  0.95810000  0.5 -0.1933075885
C  C21  1  0.22510000  0.59760000  0.92510000  0.5 0.0104666147
C  C22  1  0.20840000  0.61910000  0.82730000  0.5 -0.03012739
C  C23  1  0.23320000  0.64690000  0.76250000  0.5 -0.082008016
C  C24  1  0.19660000  0.56670000  0.98900000  0.5 0.420946862
C  C25  1  0.20060000  0.54020000  0.86200000  0.5 0.4140884852
C  C26  1  0.23140000  0.57100000  0.80590000  0.5 0.0104666147
C  C27  1  0.26810000  0.55650000  0.75240000  0.5 -0.1299349969
C  C28  1  0.29130000  0.58290000  0.67840000  0.5 -0.2062596349
C  C29  1  0.27790000  0.62370000  0.65780000  0.5 0.0204553424
C  C30  1  0.24130000  0.63820000  0.71130000  0.5 -0.0613443355
C  C31  1  0.21800000  0.61180000  0.78530000  0.5 -0.0191489846
C  C32  1  0.30240000  0.65080000  0.57520000  0.5 -0.0487961498
C  C33  1  0.34130000  0.63770000  0.53360000  0.5 -0.0140226228
C  C34  1  0.28650000  0.68930000  0.53890000  0.5 -0.2341395958
C  C35  1  0.59500000  0.00520000  0.21960000  0.5 0.1203544153
C  C36  1  0.54820000  0.96380000  0.23690000  0.5 0.1664677387
C  C37  1  0.57430000  0.95050000  0.14410000  0.5 0.0622453181
C  C38  1  0.56410000  0.91490000  0.07810000  0.5 0.1304253708
C  C39  1  0.50170000  0.90590000  0.19760000  0.5 0.1509654414
C  C40  1  0.59500000  0.08930000  0.43460000  0.5 0.4797148475
C  C41  1  0.61190000  0.12810000  0.49830000  0.5 0.0104666147
C  C42  1  0.59950000  0.14100000  0.61260000  0.5 -0.1185718352
C  C43  1  0.61680000  0.17690000  0.66320000  0.5 -0.1668443407
C  C44  1  0.64640000  0.20000000  0.59950000  0.5 -0.0424461217
C  C45  1  0.65880000  0.18710000  0.48530000  0.5 -0.0677950556
C  C46  1  0.64160000  0.15110000  0.43470000  0.5 -0.0487961498
C  C47  1  0.66540000  0.23820000  0.65060000  0.5 0.0204553424
C  C48  1  0.70880000  0.24150000  0.65180000  0.5 -0.082008016
C  C49  1  0.70330000  0.30940000  0.74540000  0.5 0.0204553424
C  C50  1  0.65980000  0.30610000  0.74420000  0.5 0.1858049588
C  C51  1  0.64090000  0.27050000  0.69680000  0.5 -0.3222559072
C  C52  1  0.72520000  0.34680000  0.79540000  0.5 0.0517532642
C  C53  1  0.70850000  0.36830000  0.89320000  0.5 -0.1528255219
C  C54  1  0.73330000  0.39610000  0.95810000  0.5 -0.1933075885
C  C55  1  0.77490000  0.40240000  0.92510000  0.5 0.0104666147
C  C56  1  0.79160000  0.38090000  0.82730000  0.5 -0.03012739
C  C57  1  0.76680000  0.35310000  0.76250000  0.5 -0.082008016
C  C58  1  0.80340000  0.43330000  0.98900000  0.5 0.420946862
C  C59  1  0.79940000  0.45980000  0.86200000  0.5 0.4140884852
C  C60  1  0.76860000  0.42900000  0.80590000  0.5 0.0104666147
C  C61  1  0.73190000  0.44350000  0.75240000  0.5 -0.1299349969
C  C62  1  0.70870000  0.41710000  0.67840000  0.5 -0.2062596349
C  C63  1  0.72210000  0.37630000  0.65780000  0.5 0.0204553424
C  C64  1  0.75870000  0.36180000  0.71130000  0.5 -0.0613443355
C  C65  1  0.78200000  0.38820000  0.78530000  0.5 -0.0191489846
C  C66  1  0.69760000  0.34920000  0.57520000  0.5 -0.0487961498
C  C67  1  0.65870000  0.36230000  0.53360000  0.5 -0.0140226228
C  C68  1  0.71350000  0.31070000  0.53890000  0.5 -0.2341395958
C  C69  1  0.99480000  0.59500000  0.21960000  0.5 0.1203544153
C  C70  1  0.03620000  0.54820000  0.23690000  0.5 0.1664677387
C  C71  1  0.04950000  0.57430000  0.14410000  0.5 0.0622453181
C  C72  1  0.08510000  0.56410000  0.07810000  0.5 0.1304253708
C  C73  1  0.09410000  0.50170000  0.19760000  0.5 0.1509654414
C  C74  1  0.91070000  0.59500000  0.43460000  0.5 0.4797148475
C  C75  1  0.87190000  0.61190000  0.49830000  0.5 0.0104666147
C  C76  1  0.85900000  0.59950000  0.61260000  0.5 -0.1185718352
C  C77  1  0.82310000  0.61680000  0.66320000  0.5 -0.1668443407
C  C78  1  0.80000000  0.64640000  0.59950000  0.5 -0.0424461217
C  C79  1  0.81290000  0.65880000  0.48530000  0.5 -0.0677950556
C  C80  1  0.84890000  0.64160000  0.43470000  0.5 -0.0487961498
C  C81  1  0.76180000  0.66540000  0.65060000  0.5 0.0204553424
C  C82  1  0.75850000  0.70880000  0.65180000  0.5 -0.082008016
C  C83  1  0.69060000  0.70330000  0.74540000  0.5 0.0204553424
C  C84  1  0.69390000  0.65980000  0.74420000  0.5 0.1858049588
C  C85  1  0.72950000  0.64090000  0.69680000  0.5 -0.3222559072
C  C86  1  0.65320000  0.72520000  0.79540000  0.5 0.0517532642
C  C87  1  0.63170000  0.70850000  0.89320000  0.5 -0.1528255219
C  C88  1  0.60390000  0.73330000  0.95810000  0.5 -0.1933075885
C  C89  1  0.59760000  0.77490000  0.92510000  0.5 0.0104666147
C  C90  1  0.61910000  0.79160000  0.82730000  0.5 -0.03012739
C  C91  1  0.64690000  0.76680000  0.76250000  0.5 -0.082008016
C  C92  1  0.56670000  0.80340000  0.98900000  0.5 0.420946862
C  C93  1  0.54020000  0.79940000  0.86200000  0.5 0.4140884852
C  C94  1  0.57100000  0.76860000  0.80590000  0.5 0.0104666147
C  C95  1  0.55650000  0.73190000  0.75240000  0.5 -0.1299349969
C  C96  1  0.58290000  0.70870000  0.67840000  0.5 -0.2062596349
C  C97  1  0.62370000  0.72210000  0.65780000  0.5 0.0204553424
C  C98  1  0.63820000  0.75870000  0.71130000  0.5 -0.0613443355
C  C99  1  0.61180000  0.78200000  0.78530000  0.5 -0.0191489846
C  C100  1  0.65080000  0.69760000  0.57520000  0.5 -0.0487961498
C  C101  1  0.63770000  0.65870000  0.53360000  0.5 -0.0140226228
C  C102  1  0.68930000  0.71350000  0.53890000  0.5 -0.2341395958
C  C103  1  0.00520000  0.40500000  0.21960000  0.5 0.1203544153
C  C104  1  0.96380000  0.45180000  0.23690000  0.5 0.1664677387
C  C105  1  0.95050000  0.42570000  0.14410000  0.5 0.0622453181
C  C106  1  0.91490000  0.43590000  0.07810000  0.5 0.1304253708
C  C107  1  0.90590000  0.49830000  0.19760000  0.5 0.1509654414
C  C108  1  0.08930000  0.40500000  0.43460000  0.5 0.4797148475
C  C109  1  0.12810000  0.38810000  0.49830000  0.5 0.0104666147
C  C110  1  0.14100000  0.40050000  0.61260000  0.5 -0.1185718352
C  C111  1  0.17690000  0.38320000  0.66320000  0.5 -0.1668443407
C  C112  1  0.20000000  0.35360000  0.59950000  0.5 -0.0424461217
C  C113  1  0.18710000  0.34120000  0.48530000  0.5 -0.0677950556
C  C114  1  0.15110000  0.35840000  0.43470000  0.5 -0.0487961498
C  C115  1  0.23820000  0.33460000  0.65060000  0.5 0.0204553424
C  C116  1  0.24150000  0.29120000  0.65180000  0.5 -0.082008016
C  C117  1  0.30940000  0.29670000  0.74540000  0.5 0.0204553424
C  C118  1  0.30610000  0.34020000  0.74420000  0.5 0.1858049588
C  C119  1  0.27050000  0.35910000  0.69680000  0.5 -0.3222559072
C  C120  1  0.34680000  0.27480000  0.79540000  0.5 0.0517532642
C  C121  1  0.36830000  0.29150000  0.89320000  0.5 -0.1528255219
C  C122  1  0.39610000  0.26670000  0.95810000  0.5 -0.1933075885
C  C123  1  0.40240000  0.22510000  0.92510000  0.5 0.0104666147
C  C124  1  0.38090000  0.20840000  0.82730000  0.5 -0.03012739
C  C125  1  0.35310000  0.23320000  0.76250000  0.5 -0.082008016
C  C126  1  0.43330000  0.19660000  0.98900000  0.5 0.420946862
C  C127  1  0.45980000  0.20060000  0.86200000  0.5 0.4140884852
C  C128  1  0.42900000  0.23140000  0.80590000  0.5 0.0104666147
C  C129  1  0.44350000  0.26810000  0.75240000  0.5 -0.1299349969
C  C130  1  0.41710000  0.29130000  0.67840000  0.5 -0.2062596349
C  C131  1  0.37630000  0.27790000  0.65780000  0.5 0.0204553424
C  C132  1  0.36180000  0.24130000  0.71130000  0.5 -0.0613443355
C  C133  1  0.38820000  0.21800000  0.78530000  0.5 -0.0191489846
C  C134  1  0.34920000  0.30240000  0.57520000  0.5 -0.0487961498
C  C135  1  0.36230000  0.34130000  0.53360000  0.5 -0.0140226228
C  C136  1  0.31070000  0.28650000  0.53890000  0.5 -0.2341395958
C  C137  1  0.40500000  0.00520000  0.78040000  0.5 0.1203544153
C  C138  1  0.45180000  0.96380000  0.76310000  0.5 0.1664677387
C  C139  1  0.42570000  0.95050000  0.85590000  0.5 0.0622453181
C  C140  1  0.43590000  0.91490000  0.92190000  0.5 0.1304253708
C  C141  1  0.49830000  0.90590000  0.80240000  0.5 0.1509654414
C  C142  1  0.40500000  0.08930000  0.56540000  0.5 0.4797148475
C  C143  1  0.38810000  0.12810000  0.50170000  0.5 0.0104666147
C  C144  1  0.40050000  0.14100000  0.38740000  0.5 -0.1185718352
C  C145  1  0.38320000  0.17690000  0.33680000  0.5 -0.1668443407
C  C146  1  0.35360000  0.20000000  0.40050000  0.5 -0.0424461217
C  C147  1  0.34120000  0.18710000  0.51470000  0.5 -0.0677950556
C  C148  1  0.35840000  0.15110000  0.56530000  0.5 -0.0487961498
C  C149  1  0.33460000  0.23820000  0.34940000  0.5 0.0204553424
C  C150  1  0.29120000  0.24150000  0.34820000  0.5 -0.082008016
C  C151  1  0.29670000  0.30940000  0.25460000  0.5 0.0204553424
C  C152  1  0.34020000  0.30610000  0.25580000  0.5 0.1858049588
C  C153  1  0.35910000  0.27050000  0.30320000  0.5 -0.3222559072
C  C154  1  0.27480000  0.34680000  0.20460000  0.5 0.0517532642
C  C155  1  0.29150000  0.36830000  0.10680000  0.5 -0.1528255219
C  C156  1  0.26670000  0.39610000  0.04190000  0.5 -0.1933075885
C  C157  1  0.22510000  0.40240000  0.07490000  0.5 0.0104666147
C  C158  1  0.20840000  0.38090000  0.17270000  0.5 -0.03012739
C  C159  1  0.23320000  0.35310000  0.23750000  0.5 -0.082008016
C  C160  1  0.19660000  0.43330000  0.01100000  0.5 0.420946862
C  C161  1  0.20060000  0.45980000  0.13800000  0.5 0.4140884852
C  C162  1  0.23140000  0.42900000  0.19410000  0.5 0.0104666147
C  C163  1  0.26810000  0.44350000  0.24760000  0.5 -0.1299349969
C  C164  1  0.29130000  0.41710000  0.32160000  0.5 -0.2062596349
C  C165  1  0.27790000  0.37630000  0.34220000  0.5 0.0204553424
C  C166  1  0.24130000  0.36180000  0.28870000  0.5 -0.0613443355
C  C167  1  0.21800000  0.38820000  0.21470000  0.5 -0.0191489846
C  C168  1  0.30240000  0.34920000  0.42480000  0.5 -0.0487961498
C  C169  1  0.34130000  0.36230000  0.46640000  0.5 -0.0140226228
C  C170  1  0.28650000  0.31070000  0.46110000  0.5 -0.2341395958
C  C171  1  0.59500000  0.99480000  0.78040000  0.5 0.1203544153
C  C172  1  0.54820000  0.03620000  0.76310000  0.5 0.1664677387
C  C173  1  0.57430000  0.04950000  0.85590000  0.5 0.0622453181
C  C174  1  0.56410000  0.08510000  0.92190000  0.5 0.1304253708
C  C175  1  0.50170000  0.09410000  0.80240000  0.5 0.1509654414
C  C176  1  0.59500000  0.91070000  0.56540000  0.5 0.4797148475
C  C177  1  0.61190000  0.87190000  0.50170000  0.5 0.0104666147
C  C178  1  0.59950000  0.85900000  0.38740000  0.5 -0.1185718352
C  C179  1  0.61680000  0.82310000  0.33680000  0.5 -0.1668443407
C  C180  1  0.64640000  0.80000000  0.40050000  0.5 -0.0424461217
C  C181  1  0.65880000  0.81290000  0.51470000  0.5 -0.0677950556
C  C182  1  0.64160000  0.84890000  0.56530000  0.5 -0.0487961498
C  C183  1  0.66540000  0.76180000  0.34940000  0.5 0.0204553424
C  C184  1  0.70880000  0.75850000  0.34820000  0.5 -0.082008016
C  C185  1  0.70330000  0.69060000  0.25460000  0.5 0.0204553424
C  C186  1  0.65980000  0.69390000  0.25580000  0.5 0.1858049588
C  C187  1  0.64090000  0.72950000  0.30320000  0.5 -0.3222559072
C  C188  1  0.72520000  0.65320000  0.20460000  0.5 0.0517532642
C  C189  1  0.70850000  0.63170000  0.10680000  0.5 -0.1528255219
C  C190  1  0.73330000  0.60390000  0.04190000  0.5 -0.1933075885
C  C191  1  0.77490000  0.59760000  0.07490000  0.5 0.0104666147
C  C192  1  0.79160000  0.61910000  0.17270000  0.5 -0.03012739
C  C193  1  0.76680000  0.64690000  0.23750000  0.5 -0.082008016
C  C194  1  0.80340000  0.56670000  0.01100000  0.5 0.420946862
C  C195  1  0.79940000  0.54020000  0.13800000  0.5 0.4140884852
C  C196  1  0.76860000  0.57100000  0.19410000  0.5 0.0104666147
C  C197  1  0.73190000  0.55650000  0.24760000  0.5 -0.1299349969
C  C198  1  0.70870000  0.58290000  0.32160000  0.5 -0.2062596349
C  C199  1  0.72210000  0.62370000  0.34220000  0.5 0.0204553424
C  C200  1  0.75870000  0.63820000  0.28870000  0.5 -0.0613443355
C  C201  1  0.78200000  0.61180000  0.21470000  0.5 -0.0191489846
C  C202  1  0.69760000  0.65080000  0.42480000  0.5 -0.0487961498
C  C203  1  0.65870000  0.63770000  0.46640000  0.5 -0.0140226228
C  C204  1  0.71350000  0.68930000  0.46110000  0.5 -0.2341395958
C  C205  1  0.99480000  0.40500000  0.78040000  0.5 0.1203544153
C  C206  1  0.03620000  0.45180000  0.76310000  0.5 0.1664677387
C  C207  1  0.04950000  0.42570000  0.85590000  0.5 0.0622453181
C  C208  1  0.08510000  0.43590000  0.92190000  0.5 0.1304253708
C  C209  1  0.09410000  0.49830000  0.80240000  0.5 0.1509654414
C  C210  1  0.91070000  0.40500000  0.56540000  0.5 0.4797148475
C  C211  1  0.87190000  0.38810000  0.50170000  0.5 0.0104666147
C  C212  1  0.85900000  0.40050000  0.38740000  0.5 -0.1185718352
C  C213  1  0.82310000  0.38320000  0.33680000  0.5 -0.1668443407
C  C214  1  0.80000000  0.35360000  0.40050000  0.5 -0.0424461217
C  C215  1  0.81290000  0.34120000  0.51470000  0.5 -0.0677950556
C  C216  1  0.84890000  0.35840000  0.56530000  0.5 -0.0487961498
C  C217  1  0.76180000  0.33460000  0.34940000  0.5 0.0204553424
C  C218  1  0.75850000  0.29120000  0.34820000  0.5 -0.082008016
C  C219  1  0.69060000  0.29670000  0.25460000  0.5 0.0204553424
C  C220  1  0.69390000  0.34020000  0.25580000  0.5 0.1858049588
C  C221  1  0.72950000  0.35910000  0.30320000  0.5 -0.3222559072
C  C222  1  0.65320000  0.27480000  0.20460000  0.5 0.0517532642
C  C223  1  0.63170000  0.29150000  0.10680000  0.5 -0.1528255219
C  C224  1  0.60390000  0.26670000  0.04190000  0.5 -0.1933075885
C  C225  1  0.59760000  0.22510000  0.07490000  0.5 0.0104666147
C  C226  1  0.61910000  0.20840000  0.17270000  0.5 -0.03012739
C  C227  1  0.64690000  0.23320000  0.23750000  0.5 -0.082008016
C  C228  1  0.56670000  0.19660000  0.01100000  0.5 0.420946862
C  C229  1  0.54020000  0.20060000  0.13800000  0.5 0.4140884852
C  C230  1  0.57100000  0.23140000  0.19410000  0.5 0.0104666147
C  C231  1  0.55650000  0.26810000  0.24760000  0.5 -0.1299349969
C  C232  1  0.58290000  0.29130000  0.32160000  0.5 -0.2062596349
C  C233  1  0.62370000  0.27790000  0.34220000  0.5 0.0204553424
C  C234  1  0.63820000  0.24130000  0.28870000  0.5 -0.0613443355
C  C235  1  0.61180000  0.21800000  0.21470000  0.5 -0.0191489846
C  C236  1  0.65080000  0.30240000  0.42480000  0.5 -0.0424461217
C  C237  1  0.63770000  0.34130000  0.46640000  0.5 -0.0140226228
C  C238  1  0.68930000  0.28650000  0.46110000  0.5 -0.2341395958
C  C239  1  0.00520000  0.59500000  0.78040000  0.5 0.1203544153
C  C240  1  0.96380000  0.54820000  0.76310000  0.5 0.1664677387
C  C241  1  0.95050000  0.57430000  0.85590000  0.5 0.0622453181
C  C242  1  0.91490000  0.56410000  0.92190000  0.5 0.1304253708
C  C243  1  0.90590000  0.50170000  0.80240000  0.5 0.1509654414
C  C244  1  0.08930000  0.59500000  0.56540000  0.5 0.4797148475
C  C245  1  0.12810000  0.61190000  0.50170000  0.5 0.0104666147
C  C246  1  0.14100000  0.59950000  0.38740000  0.5 -0.1185718352
C  C247  1  0.17690000  0.61680000  0.33680000  0.5 -0.1668443407
C  C248  1  0.20000000  0.64640000  0.40050000  0.5 -0.0424461217
C  C249  1  0.18710000  0.65880000  0.51470000  0.5 -0.0677950556
C  C250  1  0.15110000  0.64160000  0.56530000  0.5 -0.0487961498
C  C251  1  0.23820000  0.66540000  0.34940000  0.5 0.0204553424
C  C252  1  0.24150000  0.70880000  0.34820000  0.5 -0.082008016
C  C253  1  0.30940000  0.70330000  0.25460000  0.5 0.0204553424
C  C254  1  0.30610000  0.65980000  0.25580000  0.5 0.1858049588
C  C255  1  0.27050000  0.64090000  0.30320000  0.5 -0.3222559072
C  C256  1  0.34680000  0.72520000  0.20460000  0.5 0.0517532642
C  C257  1  0.36830000  0.70850000  0.10680000  0.5 -0.1528255219
C  C258  1  0.39610000  0.73330000  0.04190000  0.5 -0.1933075885
C  C259  1  0.40240000  0.77490000  0.07490000  0.5 0.0104666147
C  C260  1  0.38090000  0.79160000  0.17270000  0.5 -0.03012739
C  C261  1  0.35310000  0.76680000  0.23750000  0.5 -0.082008016
C  C262  1  0.43330000  0.80340000  0.01100000  0.5 0.420946862
C  C263  1  0.45980000  0.79940000  0.13800000  0.5 0.4140884852
C  C264  1  0.42900000  0.76860000  0.19410000  0.5 0.0104666147
C  C265  1  0.44350000  0.73190000  0.24760000  0.5 -0.1299349969
C  C266  1  0.41710000  0.70870000  0.32160000  0.5 -0.2062596349
C  C267  1  0.37630000  0.72210000  0.34220000  0.5 0.0204553424
C  C268  1  0.36180000  0.75870000  0.28870000  0.5 -0.0613443355
C  C269  1  0.38820000  0.78200000  0.21470000  0.5 -0.0191489846
C  C270  1  0.34920000  0.69760000  0.42480000  0.5 -0.0487961498
C  C271  1  0.36230000  0.65870000  0.46640000  0.5 -0.0140226228
C  C272  1  0.31070000  0.71350000  0.46110000  0.5 -0.2341395958
C  C273  1  0.09500000  0.50520000  0.78040000  0.5 0.1203544153
C  C274  1  0.04820000  0.46380000  0.76310000  0.5 0.1664677387
C  C275  1  0.07430000  0.45050000  0.85590000  0.5 0.0622453181
C  C276  1  0.06410000  0.41490000  0.92190000  0.5 0.1304253708
C  C277  1  0.00170000  0.40590000  0.80240000  0.5 0.1509654414
C  C278  1  0.09500000  0.58930000  0.56540000  0.5 0.4797148475
C  C279  1  0.11190000  0.62810000  0.50170000  0.5 0.0104666147
C  C280  1  0.09950000  0.64100000  0.38740000  0.5 -0.1185718352
C  C281  1  0.11680000  0.67690000  0.33680000  0.5 -0.1668443407
C  C282  1  0.14640000  0.70000000  0.40050000  0.5 -0.0424461217
C  C283  1  0.15880000  0.68710000  0.51470000  0.5 -0.0677950556
C  C284  1  0.14160000  0.65110000  0.56530000  0.5 -0.0487961498
C  C285  1  0.16540000  0.73820000  0.34940000  0.5 0.0204553424
C  C286  1  0.20880000  0.74150000  0.34820000  0.5 -0.082008016
C  C287  1  0.20330000  0.80940000  0.25460000  0.5 0.0204553424
C  C288  1  0.15980000  0.80610000  0.25580000  0.5 0.1858049588
C  C289  1  0.14090000  0.77050000  0.30320000  0.5 -0.3222559072
C  C290  1  0.22520000  0.84680000  0.20460000  0.5 0.0517532642
C  C291  1  0.20850000  0.86830000  0.10680000  0.5 -0.1528255219
C  C292  1  0.23330000  0.89610000  0.04190000  0.5 -0.1933075885
C  C293  1  0.27490000  0.90240000  0.07490000  0.5 0.0104666147
C  C294  1  0.29160000  0.88090000  0.17270000  0.5 -0.03012739
C  C295  1  0.26680000  0.85310000  0.23750000  0.5 -0.082008016
C  C296  1  0.30340000  0.93330000  0.01100000  0.5 0.420946862
C  C297  1  0.29940000  0.95980000  0.13800000  0.5 0.4140884852
C  C298  1  0.26860000  0.92900000  0.19410000  0.5 0.0104666147
C  C299  1  0.23190000  0.94350000  0.24760000  0.5 -0.1299349969
C  C300  1  0.20870000  0.91710000  0.32160000  0.5 -0.2062596349
C  C301  1  0.22210000  0.87630000  0.34220000  0.5 0.0204553424
C  C302  1  0.25870000  0.86180000  0.28870000  0.5 -0.0613443355
C  C303  1  0.28200000  0.88820000  0.21470000  0.5 -0.0191489846
C  C304  1  0.19760000  0.84920000  0.42480000  0.5 -0.0487961498
C  C305  1  0.15870000  0.86230000  0.46640000  0.5 -0.0140226228
C  C306  1  0.21350000  0.81070000  0.46110000  0.5 -0.2341395958
C  C307  1  0.90500000  0.49480000  0.78040000  0.5 0.1203544153
C  C308  1  0.95180000  0.53620000  0.76310000  0.5 0.1664677387
C  C309  1  0.92570000  0.54950000  0.85590000  0.5 0.0622453181
C  C310  1  0.93590000  0.58510000  0.92190000  0.5 0.1304253708
C  C311  1  0.99830000  0.59410000  0.80240000  0.5 0.1509654414
C  C312  1  0.90500000  0.41070000  0.56540000  0.5 0.4797148475
C  C313  1  0.88810000  0.37190000  0.50170000  0.5 0.0104666147
C  C314  1  0.90050000  0.35900000  0.38740000  0.5 -0.1185718352
C  C315  1  0.88320000  0.32310000  0.33680000  0.5 -0.1668443407
C  C316  1  0.85360000  0.30000000  0.40050000  0.5 -0.0424461217
C  C317  1  0.84120000  0.31290000  0.51470000  0.5 -0.0677950556
C  C318  1  0.85840000  0.34890000  0.56530000  0.5 -0.0487961498
C  C319  1  0.83460000  0.26180000  0.34940000  0.5 0.0204553424
C  C320  1  0.79120000  0.25850000  0.34820000  0.5 -0.082008016
C  C321  1  0.79670000  0.19060000  0.25460000  0.5 0.0204553424
C  C322  1  0.84020000  0.19390000  0.25580000  0.5 0.1858049588
C  C323  1  0.85910000  0.22950000  0.30320000  0.5 -0.3222559072
C  C324  1  0.77480000  0.15320000  0.20460000  0.5 0.0517532642
C  C325  1  0.79150000  0.13170000  0.10680000  0.5 -0.1528255219
C  C326  1  0.76670000  0.10390000  0.04190000  0.5 -0.1933075885
C  C327  1  0.72510000  0.09760000  0.07490000  0.5 0.0104666147
C  C328  1  0.70840000  0.11910000  0.17270000  0.5 -0.03012739
C  C329  1  0.73320000  0.14690000  0.23750000  0.5 -0.082008016
C  C330  1  0.69660000  0.06670000  0.01100000  0.5 0.420946862
C  C331  1  0.70060000  0.04020000  0.13800000  0.5 0.4140884852
C  C332  1  0.73140000  0.07100000  0.19410000  0.5 0.0104666147
C  C333  1  0.76810000  0.05650000  0.24760000  0.5 -0.1299349969
C  C334  1  0.79130000  0.08290000  0.32160000  0.5 -0.2062596349
C  C335  1  0.77790000  0.12370000  0.34220000  0.5 0.0204553424
C  C336  1  0.74130000  0.13820000  0.28870000  0.5 -0.0613443355
C  C337  1  0.71800000  0.11180000  0.21470000  0.5 -0.0191489846
C  C338  1  0.80240000  0.15080000  0.42480000  0.5 -0.0424461217
C  C339  1  0.84130000  0.13770000  0.46640000  0.5 -0.0140226228
C  C340  1  0.78650000  0.18930000  0.46110000  0.5 -0.2341395958
C  C341  1  0.50520000  0.90500000  0.78040000  0.5 0.1203544153
C  C342  1  0.46380000  0.95180000  0.76310000  0.5 0.1664677387
C  C343  1  0.45050000  0.92570000  0.85590000  0.5 0.0622453181
C  C344  1  0.41490000  0.93590000  0.92190000  0.5 0.1304253708
C  C345  1  0.40590000  0.99830000  0.80240000  0.5 0.1509654414
C  C346  1  0.58930000  0.90500000  0.56540000  0.5 0.4797148475
C  C347  1  0.62810000  0.88810000  0.50170000  0.5 0.0104666147
C  C348  1  0.64100000  0.90050000  0.38740000  0.5 -0.1185718352
C  C349  1  0.67690000  0.88320000  0.33680000  0.5 -0.1668443407
C  C350  1  0.70000000  0.85360000  0.40050000  0.5 -0.0424461217
C  C351  1  0.68710000  0.84120000  0.51470000  0.5 -0.0677950556
C  C352  1  0.65110000  0.85840000  0.56530000  0.5 -0.0487961498
C  C353  1  0.73820000  0.83460000  0.34940000  0.5 0.0204553424
C  C354  1  0.74150000  0.79120000  0.34820000  0.5 -0.082008016
C  C355  1  0.80940000  0.79670000  0.25460000  0.5 0.0204553424
C  C356  1  0.80610000  0.84020000  0.25580000  0.5 0.1858049588
C  C357  1  0.77050000  0.85910000  0.30320000  0.5 -0.3222559072
C  C358  1  0.84680000  0.77480000  0.20460000  0.5 0.0517532642
C  C359  1  0.86830000  0.79150000  0.10680000  0.5 -0.1528255219
C  C360  1  0.89610000  0.76670000  0.04190000  0.5 -0.1933075885
C  C361  1  0.90240000  0.72510000  0.07490000  0.5 0.0104666147
C  C362  1  0.88090000  0.70840000  0.17270000  0.5 -0.03012739
C  C363  1  0.85310000  0.73320000  0.23750000  0.5 -0.082008016
C  C364  1  0.93330000  0.69660000  0.01100000  0.5 0.420946862
C  C365  1  0.95980000  0.70060000  0.13800000  0.5 0.4140884852
C  C366  1  0.92900000  0.73140000  0.19410000  0.5 0.0104666147
C  C367  1  0.94350000  0.76810000  0.24760000  0.5 -0.1299349969
C  C368  1  0.91710000  0.79130000  0.32160000  0.5 -0.2062596349
C  C369  1  0.87630000  0.77790000  0.34220000  0.5 0.0204553424
C  C370  1  0.86180000  0.74130000  0.28870000  0.5 -0.0613443355
C  C371  1  0.88820000  0.71800000  0.21470000  0.5 -0.0191489846
C  C372  1  0.84920000  0.80240000  0.42480000  0.5 -0.0487961498
C  C373  1  0.86230000  0.84130000  0.46640000  0.5 -0.0140226228
C  C374  1  0.81070000  0.78650000  0.46110000  0.5 -0.2341395958
C  C375  1  0.49480000  0.09500000  0.78040000  0.5 0.1203544153
C  C376  1  0.53620000  0.04820000  0.76310000  0.5 0.1664677387
C  C377  1  0.54950000  0.07430000  0.85590000  0.5 0.0622453181
C  C378  1  0.58510000  0.06410000  0.92190000  0.5 0.1304253708
C  C379  1  0.59410000  0.00170000  0.80240000  0.5 0.1509654414
C  C380  1  0.41070000  0.09500000  0.56540000  0.5 0.4797148475
C  C381  1  0.37190000  0.11190000  0.50170000  0.5 0.0104666147
C  C382  1  0.35900000  0.09950000  0.38740000  0.5 -0.1185718352
C  C383  1  0.32310000  0.11680000  0.33680000  0.5 -0.1668443407
C  C384  1  0.30000000  0.14640000  0.40050000  0.5 -0.0424461217
C  C385  1  0.31290000  0.15880000  0.51470000  0.5 -0.0677950556
C  C386  1  0.34890000  0.14160000  0.56530000  0.5 -0.0487961498
C  C387  1  0.26180000  0.16540000  0.34940000  0.5 0.0204553424
C  C388  1  0.25850000  0.20880000  0.34820000  0.5 -0.082008016
C  C389  1  0.19060000  0.20330000  0.25460000  0.5 0.0204553424
C  C390  1  0.19390000  0.15980000  0.25580000  0.5 0.1858049588
C  C391  1  0.22950000  0.14090000  0.30320000  0.5 -0.3222559072
C  C392  1  0.15320000  0.22520000  0.20460000  0.5 0.0517532642
C  C393  1  0.13170000  0.20850000  0.10680000  0.5 -0.1528255219
C  C394  1  0.10390000  0.23330000  0.04190000  0.5 -0.1933075885
C  C395  1  0.09760000  0.27490000  0.07490000  0.5 0.0104666147
C  C396  1  0.11910000  0.29160000  0.17270000  0.5 -0.03012739
C  C397  1  0.14690000  0.26680000  0.23750000  0.5 -0.082008016
C  C398  1  0.06670000  0.30340000  0.01100000  0.5 0.420946862
C  C399  1  0.04020000  0.29940000  0.13800000  0.5 0.4140884852
C  C400  1  0.07100000  0.26860000  0.19410000  0.5 0.0104666147
C  C401  1  0.05650000  0.23190000  0.24760000  0.5 -0.1299349969
C  C402  1  0.08290000  0.20870000  0.32160000  0.5 -0.2062596349
C  C403  1  0.12370000  0.22210000  0.34220000  0.5 0.0204553424
C  C404  1  0.13820000  0.25870000  0.28870000  0.5 -0.0613443355
C  C405  1  0.11180000  0.28200000  0.21470000  0.5 -0.0191489846
C  C406  1  0.15080000  0.19760000  0.42480000  0.5 -0.0487961498
C  C407  1  0.13770000  0.15870000  0.46640000  0.5 -0.0140226228
C  C408  1  0.18930000  0.21350000  0.46110000  0.5 -0.2341395958
C  C409  1  0.09500000  0.49480000  0.21960000  0.5 0.1203544153
C  C410  1  0.04820000  0.53620000  0.23690000  0.5 0.1664677387
C  C411  1  0.07430000  0.54950000  0.14410000  0.5 0.0622453181
C  C412  1  0.06410000  0.58510000  0.07810000  0.5 0.1304253708
C  C413  1  0.00170000  0.59410000  0.19760000  0.5 0.1509654414
C  C414  1  0.09500000  0.41070000  0.43460000  0.5 0.4797148475
C  C415  1  0.11190000  0.37190000  0.49830000  0.5 0.0104666147
C  C416  1  0.09950000  0.35900000  0.61260000  0.5 -0.1185718352
C  C417  1  0.11680000  0.32310000  0.66320000  0.5 -0.1668443407
C  C418  1  0.14640000  0.30000000  0.59950000  0.5 -0.0424461217
C  C419  1  0.15880000  0.31290000  0.48530000  0.5 -0.0677950556
C  C420  1  0.14160000  0.34890000  0.43470000  0.5 -0.0487961498
C  C421  1  0.16540000  0.26180000  0.65060000  0.5 0.0204553424
C  C422  1  0.20880000  0.25850000  0.65180000  0.5 -0.082008016
C  C423  1  0.20330000  0.19060000  0.74540000  0.5 0.0204553424
C  C424  1  0.15980000  0.19390000  0.74420000  0.5 0.1858049588
C  C425  1  0.14090000  0.22950000  0.69680000  0.5 -0.3222559072
C  C426  1  0.22520000  0.15320000  0.79540000  0.5 0.0517532642
C  C427  1  0.20850000  0.13170000  0.89320000  0.5 -0.1528255219
C  C428  1  0.23330000  0.10390000  0.95810000  0.5 -0.1933075885
C  C429  1  0.27490000  0.09760000  0.92510000  0.5 0.0104666147
C  C430  1  0.29160000  0.11910000  0.82730000  0.5 -0.03012739
C  C431  1  0.26680000  0.14690000  0.76250000  0.5 -0.082008016
C  C432  1  0.30340000  0.06670000  0.98900000  0.5 0.420946862
C  C433  1  0.29940000  0.04020000  0.86200000  0.5 0.4140884852
C  C434  1  0.26860000  0.07100000  0.80590000  0.5 0.0104666147
C  C435  1  0.23190000  0.05650000  0.75240000  0.5 -0.1299349969
C  C436  1  0.20870000  0.08290000  0.67840000  0.5 -0.2062596349
C  C437  1  0.22210000  0.12370000  0.65780000  0.5 0.0204553424
C  C438  1  0.25870000  0.13820000  0.71130000  0.5 -0.0613443355
C  C439  1  0.28200000  0.11180000  0.78530000  0.5 -0.0191489846
C  C440  1  0.19760000  0.15080000  0.57520000  0.5 -0.0487961498
C  C441  1  0.15870000  0.13770000  0.53360000  0.5 -0.0140226228
C  C442  1  0.21350000  0.18930000  0.53890000  0.5 -0.2341395958
C  C443  1  0.90500000  0.50520000  0.21960000  0.5 0.1203544153
C  C444  1  0.95180000  0.46380000  0.23690000  0.5 0.1664677387
C  C445  1  0.92570000  0.45050000  0.14410000  0.5 0.0622453181
C  C446  1  0.93590000  0.41490000  0.07810000  0.5 0.1304253708
C  C447  1  0.99830000  0.40590000  0.19760000  0.5 0.1509654414
C  C448  1  0.90500000  0.58930000  0.43460000  0.5 0.4797148475
C  C449  1  0.88810000  0.62810000  0.49830000  0.5 0.0104666147
C  C450  1  0.90050000  0.64100000  0.61260000  0.5 -0.1185718352
C  C451  1  0.88320000  0.67690000  0.66320000  0.5 -0.1668443407
C  C452  1  0.85360000  0.70000000  0.59950000  0.5 -0.0424461217
C  C453  1  0.84120000  0.68710000  0.48530000  0.5 -0.0677950556
C  C454  1  0.85840000  0.65110000  0.43470000  0.5 -0.0487961498
C  C455  1  0.83460000  0.73820000  0.65060000  0.5 0.0204553424
C  C456  1  0.79120000  0.74150000  0.65180000  0.5 -0.082008016
C  C457  1  0.79670000  0.80940000  0.74540000  0.5 0.0204553424
C  C458  1  0.84020000  0.80610000  0.74420000  0.5 0.1858049588
C  C459  1  0.85910000  0.77050000  0.69680000  0.5 -0.3222559072
C  C460  1  0.77480000  0.84680000  0.79540000  0.5 0.0517532642
C  C461  1  0.79150000  0.86830000  0.89320000  0.5 -0.1528255219
C  C462  1  0.76670000  0.89610000  0.95810000  0.5 -0.1933075885
C  C463  1  0.72510000  0.90240000  0.92510000  0.5 0.0104666147
C  C464  1  0.70840000  0.88090000  0.82730000  0.5 -0.03012739
C  C465  1  0.73320000  0.85310000  0.76250000  0.5 -0.082008016
C  C466  1  0.69660000  0.93330000  0.98900000  0.5 0.420946862
C  C467  1  0.70060000  0.95980000  0.86200000  0.5 0.4140884852
C  C468  1  0.73140000  0.92900000  0.80590000  0.5 0.0104666147
C  C469  1  0.76810000  0.94350000  0.75240000  0.5 -0.1299349969
C  C470  1  0.79130000  0.91710000  0.67840000  0.5 -0.2062596349
C  C471  1  0.77790000  0.87630000  0.65780000  0.5 0.0204553424
C  C472  1  0.74130000  0.86180000  0.71130000  0.5 -0.0613443355
C  C473  1  0.71800000  0.88820000  0.78530000  0.5 -0.0191489846
C  C474  1  0.80240000  0.84920000  0.57520000  0.5 -0.0487961498
C  C475  1  0.84130000  0.86230000  0.53360000  0.5 -0.0140226228
C  C476  1  0.78650000  0.81070000  0.53890000  0.5 -0.2341395958
C  C477  1  0.50520000  0.09500000  0.21960000  0.5 0.1203544153
C  C478  1  0.46380000  0.04820000  0.23690000  0.5 0.1664677387
C  C479  1  0.45050000  0.07430000  0.14410000  0.5 0.0622453181
C  C480  1  0.41490000  0.06410000  0.07810000  0.5 0.1304253708
C  C481  1  0.40590000  0.00170000  0.19760000  0.5 0.1509654414
C  C482  1  0.58930000  0.09500000  0.43460000  0.5 0.4797148475
C  C483  1  0.62810000  0.11190000  0.49830000  0.5 0.0104666147
C  C484  1  0.64100000  0.09950000  0.61260000  0.5 -0.1185718352
C  C485  1  0.67690000  0.11680000  0.66320000  0.5 -0.1668443407
C  C486  1  0.70000000  0.14640000  0.59950000  0.5 -0.0424461217
C  C487  1  0.68710000  0.15880000  0.48530000  0.5 -0.0677950556
C  C488  1  0.65110000  0.14160000  0.43470000  0.5 -0.0487961498
C  C489  1  0.73820000  0.16540000  0.65060000  0.5 0.0204553424
C  C490  1  0.74150000  0.20880000  0.65180000  0.5 -0.082008016
C  C491  1  0.80940000  0.20330000  0.74540000  0.5 0.0204553424
C  C492  1  0.80610000  0.15980000  0.74420000  0.5 0.1858049588
C  C493  1  0.77050000  0.14090000  0.69680000  0.5 -0.3222559072
C  C494  1  0.84680000  0.22520000  0.79540000  0.5 0.0517532642
C  C495  1  0.86830000  0.20850000  0.89320000  0.5 -0.1528255219
C  C496  1  0.89610000  0.23330000  0.95810000  0.5 -0.1933075885
C  C497  1  0.90240000  0.27490000  0.92510000  0.5 0.0104666147
C  C498  1  0.88090000  0.29160000  0.82730000  0.5 -0.03012739
C  C499  1  0.85310000  0.26680000  0.76250000  0.5 -0.082008016
C  C500  1  0.93330000  0.30340000  0.98900000  0.5 0.420946862
C  C501  1  0.95980000  0.29940000  0.86200000  0.5 0.4140884852
C  C502  1  0.92900000  0.26860000  0.80590000  0.5 0.0104666147
C  C503  1  0.94350000  0.23190000  0.75240000  0.5 -0.1299349969
C  C504  1  0.91710000  0.20870000  0.67840000  0.5 -0.2062596349
C  C505  1  0.87630000  0.22210000  0.65780000  0.5 0.0204553424
C  C506  1  0.86180000  0.25870000  0.71130000  0.5 -0.0613443355
C  C507  1  0.88820000  0.28200000  0.78530000  0.5 -0.0191489846
C  C508  1  0.84920000  0.19760000  0.57520000  0.5 -0.0487961498
C  C509  1  0.86230000  0.15870000  0.53360000  0.5 -0.0140226228
C  C510  1  0.81070000  0.21350000  0.53890000  0.5 -0.2341395958
C  C511  1  0.49480000  0.90500000  0.21960000  0.5 0.1203544153
C  C512  1  0.53620000  0.95180000  0.23690000  0.5 0.1664677387
C  C513  1  0.54950000  0.92570000  0.14410000  0.5 0.0622453181
C  C514  1  0.58510000  0.93590000  0.07810000  0.5 0.1304253708
C  C515  1  0.59410000  0.99830000  0.19760000  0.5 0.1509654414
C  C516  1  0.41070000  0.90500000  0.43460000  0.5 0.4797148475
C  C517  1  0.37190000  0.88810000  0.49830000  0.5 0.0104666147
C  C518  1  0.35900000  0.90050000  0.61260000  0.5 -0.1185718352
C  C519  1  0.32310000  0.88320000  0.66320000  0.5 -0.1668443407
C  C520  1  0.30000000  0.85360000  0.59950000  0.5 -0.0424461217
C  C521  1  0.31290000  0.84120000  0.48530000  0.5 -0.0677950556
C  C522  1  0.34890000  0.85840000  0.43470000  0.5 -0.0487961498
C  C523  1  0.26180000  0.83460000  0.65060000  0.5 0.0204553424
C  C524  1  0.25850000  0.79120000  0.65180000  0.5 -0.082008016
C  C525  1  0.19060000  0.79670000  0.74540000  0.5 0.0204553424
C  C526  1  0.19390000  0.84020000  0.74420000  0.5 0.1858049588
C  C527  1  0.22950000  0.85910000  0.69680000  0.5 -0.3222559072
C  C528  1  0.15320000  0.77480000  0.79540000  0.5 0.0517532642
C  C529  1  0.13170000  0.79150000  0.89320000  0.5 -0.1528255219
C  C530  1  0.10390000  0.76670000  0.95810000  0.5 -0.1933075885
C  C531  1  0.09760000  0.72510000  0.92510000  0.5 0.0104666147
C  C532  1  0.11910000  0.70840000  0.82730000  0.5 -0.03012739
C  C533  1  0.14690000  0.73320000  0.76250000  0.5 -0.082008016
C  C534  1  0.06670000  0.69660000  0.98900000  0.5 0.420946862
C  C535  1  0.04020000  0.70060000  0.86200000  0.5 0.4140884852
C  C536  1  0.07100000  0.73140000  0.80590000  0.5 0.0104666147
C  C537  1  0.05650000  0.76810000  0.75240000  0.5 -0.1299349969
C  C538  1  0.08290000  0.79130000  0.67840000  0.5 -0.2062596349
C  C539  1  0.12370000  0.77790000  0.65780000  0.5 0.0204553424
C  C540  1  0.13820000  0.74130000  0.71130000  0.5 -0.0613443355
C  C541  1  0.11180000  0.71800000  0.78530000  0.5 -0.0191489846
C  C542  1  0.15080000  0.80240000  0.57520000  0.5 -0.0487961498
C  C543  1  0.13770000  0.84130000  0.53360000  0.5 -0.0140226228
C  C544  1  0.18930000  0.78650000  0.53890000  0.5 -0.2341395958
N  N1  1  0.40544000  0.64137000  0.41953000  0.25 -0.4091627585
N  N2  1  0.59456000  0.35863000  0.41953000  0.25 -0.4091627585
N  N3  1  0.64137000  0.59456000  0.41953000  0.25 -0.4091627585
N  N4  1  0.35863000  0.40544000  0.41953000  0.25 -0.4091627585
N  N5  1  0.40544000  0.35863000  0.58047000  0.25 -0.4091627585
N  N6  1  0.59456000  0.64137000  0.58047000  0.25 -0.4091627585
N  N7  1  0.64137000  0.40544000  0.58047000  0.25 -0.4091627585
N  N8  1  0.35863000  0.59456000  0.58047000  0.25 -0.4091627585
N  N9  1  0.09456000  0.85863000  0.58047000  0.25 -0.4091627585
N  N10  1  0.90544000  0.14137000  0.58047000  0.25 -0.4091627585
N  N11  1  0.85863000  0.90544000  0.58047000  0.25 -0.4091627585
N  N12  1  0.14137000  0.09456000  0.58047000  0.25 -0.4091627585
N  N13  1  0.09456000  0.14137000  0.41953000  0.25 -0.4091627585
N  N14  1  0.90544000  0.85863000  0.41953000  0.25 -0.4091627585
N  N15  1  0.85863000  0.09456000  0.41953000  0.25 -0.4091627585
N  N16  1  0.14137000  0.90544000  0.41953000  0.25 -0.4091627585
N  N17  1  0.47220000  0.10740000  0.10480000  0.5 -0.1559586922
N  N18  1  0.48810000  0.05850000  0.26360000  0.5 -0.1376796985
N  N19  1  0.43770000  0.00230000  0.28590000  0.5 -0.1819699431
N  N20  1  0.39490000  0.01980000  0.13860000  0.5 -0.0424461217
N  N21  1  0.41230000  0.10010000  0.98240000  0.5 -0.1967926031
N  N22  1  0.27220000  0.72290000  0.69920000  0.5 -0.2559120713
N  N23  1  0.36630000  0.66050000  0.79200000  0.5 -0.5874868209
N  N24  1  0.52780000  0.89260000  0.10480000  0.5 -0.1559586922
N  N25  1  0.51190000  0.94150000  0.26360000  0.5 -0.1376796985
N  N26  1  0.56230000  0.99770000  0.28590000  0.5 -0.1819699431
N  N27  1  0.60510000  0.98020000  0.13860000  0.5 -0.0424461217
N  N28  1  0.58770000  0.89990000  0.98240000  0.5 -0.1967926031
N  N29  1  0.72780000  0.27710000  0.69920000  0.5 -0.2548081601
N  N30  1  0.63370000  0.33950000  0.79200000  0.5 -0.5874868209
N  N31  1  0.10740000  0.52780000  0.10480000  0.5 -0.1559586922
N  N32  1  0.05850000  0.51190000  0.26360000  0.5 -0.1376796985
N  N33  1  0.00230000  0.56230000  0.28590000  0.5 -0.1819699431
N  N34  1  0.01980000  0.60510000  0.13860000  0.5 -0.0424461217
N  N35  1  0.10010000  0.58770000  0.98240000  0.5 -0.1967926031
N  N36  1  0.72290000  0.72780000  0.69920000  0.5 -0.2548081601
N  N37  1  0.66050000  0.63370000  0.79200000  0.5 -0.5874868209
N  N38  1  0.89260000  0.47220000  0.10480000  0.5 -0.1559586922
N  N39  1  0.94150000  0.48810000  0.26360000  0.5 -0.1376796985
N  N40  1  0.99770000  0.43770000  0.28590000  0.5 -0.1819699431
N  N41  1  0.98020000  0.39490000  0.13860000  0.5 -0.0424461217
N  N42  1  0.89990000  0.41230000  0.98240000  0.5 -0.1967926031
N  N43  1  0.27710000  0.27220000  0.69920000  0.5 -0.2559120713
N  N44  1  0.33950000  0.36630000  0.79200000  0.5 -0.5874868209
N  N45  1  0.47220000  0.89260000  0.89520000  0.5 -0.1559586922
N  N46  1  0.48810000  0.94150000  0.73640000  0.5 -0.1376796985
N  N47  1  0.43770000  0.99770000  0.71410000  0.5 -0.1819699431
N  N48  1  0.39490000  0.98020000  0.86140000  0.5 -0.0424461217
N  N49  1  0.41230000  0.89990000  0.01760000  0.5 -0.1967926031
N  N50  1  0.27220000  0.27710000  0.30080000  0.5 -0.2559120713
N  N51  1  0.36630000  0.33950000  0.20800000  0.5 -0.5874868209
N  N52  1  0.52780000  0.10740000  0.89520000  0.5 -0.1559586922
N  N53  1  0.51190000  0.05850000  0.73640000  0.5 -0.1376796985
N  N54  1  0.56230000  0.00230000  0.71410000  0.5 -0.1819699431
N  N55  1  0.60510000  0.01980000  0.86140000  0.5 -0.0424461217
N  N56  1  0.58770000  0.10010000  0.01760000  0.5 -0.1967926031
N  N57  1  0.72780000  0.72290000  0.30080000  0.5 -0.2548081601
N  N58  1  0.63370000  0.66050000  0.20800000  0.5 -0.5874868209
N  N59  1  0.10740000  0.47220000  0.89520000  0.5 -0.1559586922
N  N60  1  0.05850000  0.48810000  0.73640000  0.5 -0.1376796985
N  N61  1  0.00230000  0.43770000  0.71410000  0.5 -0.1819699431
N  N62  1  0.01980000  0.39490000  0.86140000  0.5 -0.0424461217
N  N63  1  0.10010000  0.41230000  0.01760000  0.5 -0.1967926031
N  N64  1  0.72290000  0.27220000  0.30080000  0.5 -0.2559120713
N  N65  1  0.66050000  0.36630000  0.20800000  0.5 -0.5874868209
N  N66  1  0.89260000  0.52780000  0.89520000  0.5 -0.1559586922
N  N67  1  0.94150000  0.51190000  0.73640000  0.5 -0.1376796985
N  N68  1  0.99770000  0.56230000  0.71410000  0.5 -0.1819699431
N  N69  1  0.98020000  0.60510000  0.86140000  0.5 -0.0424461217
N  N70  1  0.89990000  0.58770000  0.01760000  0.5 -0.1967926031
N  N71  1  0.27710000  0.72780000  0.30080000  0.5 -0.2559120713
N  N72  1  0.33950000  0.63370000  0.20800000  0.5 -0.5874868209
N  N73  1  0.02780000  0.39260000  0.89520000  0.5 -0.1559586922
N  N74  1  0.01190000  0.44150000  0.73640000  0.5 -0.1376796985
N  N75  1  0.06230000  0.49770000  0.71410000  0.5 -0.1819699431
N  N76  1  0.10510000  0.48020000  0.86140000  0.5 -0.0424461217
N  N77  1  0.08770000  0.39990000  0.01760000  0.5 -0.1967926031
N  N78  1  0.22780000  0.77710000  0.30080000  0.5 -0.2559120713
N  N79  1  0.13370000  0.83950000  0.20800000  0.5 -0.5874868209
N  N80  1  0.97220000  0.60740000  0.89520000  0.5 -0.1559586922
N  N81  1  0.98810000  0.55850000  0.73640000  0.5 -0.1376796985
N  N82  1  0.93770000  0.50230000  0.71410000  0.5 -0.1819699431
N  N83  1  0.89490000  0.51980000  0.86140000  0.5 -0.0424461217
N  N84  1  0.91230000  0.60010000  0.01760000  0.5 -0.1967926031
N  N85  1  0.77220000  0.22290000  0.30080000  0.5 -0.2548081601
N  N86  1  0.86630000  0.16050000  0.20800000  0.5 -0.5874868209
N  N87  1  0.39260000  0.97220000  0.89520000  0.5 -0.1559586922
N  N88  1  0.44150000  0.98810000  0.73640000  0.5 -0.1376796985
N  N89  1  0.49770000  0.93770000  0.71410000  0.5 -0.1819699431
N  N90  1  0.48020000  0.89490000  0.86140000  0.5 -0.0424461217
N  N91  1  0.39990000  0.91230000  0.01760000  0.5 -0.1967926031
N  N92  1  0.77710000  0.77220000  0.30080000  0.5 -0.2548081601
N  N93  1  0.83950000  0.86630000  0.20800000  0.5 -0.5874868209
N  N94  1  0.60740000  0.02780000  0.89520000  0.5 -0.1559586922
N  N95  1  0.55850000  0.01190000  0.73640000  0.5 -0.1376796985
N  N96  1  0.50230000  0.06230000  0.71410000  0.5 -0.1819699431
N  N97  1  0.51980000  0.10510000  0.86140000  0.5 -0.0424461217
N  N98  1  0.60010000  0.08770000  0.01760000  0.5 -0.1967926031
N  N99  1  0.22290000  0.22780000  0.30080000  0.5 -0.2559120713
N  N100  1  0.16050000  0.13370000  0.20800000  0.5 -0.5874868209
N  N101  1  0.02780000  0.60740000  0.10480000  0.5 -0.1559586922
N  N102  1  0.01190000  0.55850000  0.26360000  0.5 -0.1376796985
N  N103  1  0.06230000  0.50230000  0.28590000  0.5 -0.1819699431
N  N104  1  0.10510000  0.51980000  0.13860000  0.5 -0.0424461217
N  N105  1  0.08770000  0.60010000  0.98240000  0.5 -0.1967926031
N  N106  1  0.22780000  0.22290000  0.69920000  0.5 -0.2559120713
N  N107  1  0.13370000  0.16050000  0.79200000  0.5 -0.5874868209
N  N108  1  0.97220000  0.39260000  0.10480000  0.5 -0.1559586922
N  N109  1  0.98810000  0.44150000  0.26360000  0.5 -0.1376796985
N  N110  1  0.93770000  0.49770000  0.28590000  0.5 -0.1819699431
N  N111  1  0.89490000  0.48020000  0.13860000  0.5 -0.0424461217
N  N112  1  0.91230000  0.39990000  0.98240000  0.5 -0.1967926031
N  N113  1  0.77220000  0.77710000  0.69920000  0.5 -0.2548081601
N  N114  1  0.86630000  0.83950000  0.79200000  0.5 -0.5874868209
N  N115  1  0.39260000  0.02780000  0.10480000  0.5 -0.1559586922
N  N116  1  0.44150000  0.01190000  0.26360000  0.5 -0.1376796985
N  N117  1  0.49770000  0.06230000  0.28590000  0.5 -0.1819699431
N  N118  1  0.48020000  0.10510000  0.13860000  0.5 -0.0424461217
N  N119  1  0.39990000  0.08770000  0.98240000  0.5 -0.1967926031
N  N120  1  0.77710000  0.22780000  0.69920000  0.5 -0.2548081601
N  N121  1  0.83950000  0.13370000  0.79200000  0.5 -0.5874868209
N  N122  1  0.60740000  0.97220000  0.10480000  0.5 -0.1559586922
N  N123  1  0.55850000  0.98810000  0.26360000  0.5 -0.1376796985
N  N124  1  0.50230000  0.93770000  0.28590000  0.5 -0.1819699431
N  N125  1  0.51980000  0.89490000  0.13860000  0.5 -0.0424461217
N  N126  1  0.60010000  0.91230000  0.98240000  0.5 -0.1967926031
N  N127  1  0.22290000  0.77220000  0.69920000  0.5 -0.2559120713
N  N128  1  0.16050000  0.86630000  0.79200000  0.5 -0.5874868209
O  O1  1  0.50000000  0.00000000  0.50000000  1.0 -0.560631069
O  O2  1  0.00000000  0.50000000  0.50000000  1.0 -0.560631069
O  O3  1  0.40570000  0.90900000  0.32060000  0.5 -0.5537016416
O  O4  1  0.42300000  0.93900000  0.49130000  0.5 -0.1967926031
O  O5  1  0.17030000  0.54810000  0.92100000  0.5 -0.4026689852
O  O6  1  0.20970000  0.54920000  0.08270000  0.5 -0.3420339363
O  O7  1  0.20950000  0.50190000  0.85170000  0.5 -0.3222559072
O  O8  1  0.17040000  0.55350000  0.91900000  0.5 -0.4091627585
O  O9  1  0.59430000  0.09100000  0.32060000  0.5 -0.5537016416
O  O10  1  0.57700000  0.06100000  0.49130000  0.5 -0.1967926031
O  O11  1  0.82970000  0.45190000  0.92100000  0.5 -0.4026689852
O  O12  1  0.79030000  0.45080000  0.08270000  0.5 -0.3420339363
O  O13  1  0.79050000  0.49810000  0.85170000  0.5 -0.3222559072
O  O14  1  0.82960000  0.44650000  0.91900000  0.5 -0.4091627585
O  O15  1  0.90900000  0.59430000  0.32060000  0.5 -0.5537016416
O  O16  1  0.93900000  0.57700000  0.49130000  0.5 -0.1967926031
O  O17  1  0.54810000  0.82970000  0.92100000  0.5 -0.4026689852
O  O18  1  0.54920000  0.79030000  0.08270000  0.5 -0.3420339363
O  O19  1  0.50190000  0.79050000  0.85170000  0.5 -0.3222559072
O  O20  1  0.55350000  0.82960000  0.91900000  0.5 -0.4091627585
O  O21  1  0.09100000  0.40570000  0.32060000  0.5 -0.5537016416
O  O22  1  0.06100000  0.42300000  0.49130000  0.5 -0.1967926031
O  O23  1  0.45190000  0.17030000  0.92100000  0.5 -0.4026689852
O  O24  1  0.45080000  0.20970000  0.08270000  0.5 -0.3420339363
O  O25  1  0.49810000  0.20950000  0.85170000  0.5 -0.3222559072
O  O26  1  0.44650000  0.17040000  0.91900000  0.5 -0.4091627585
O  O27  1  0.40570000  0.09100000  0.67940000  0.5 -0.5537016416
O  O28  1  0.42300000  0.06100000  0.50870000  0.5 -0.1967926031
O  O29  1  0.17030000  0.45190000  0.07900000  0.5 -0.4026689852
O  O30  1  0.20970000  0.45080000  0.91730000  0.5 -0.3420339363
O  O31  1  0.20950000  0.49810000  0.14830000  0.5 -0.3222559072
O  O32  1  0.17040000  0.44650000  0.08100000  0.5 -0.4091627585
O  O33  1  0.59430000  0.90900000  0.67940000  0.5 -0.5537016416
O  O34  1  0.57700000  0.93900000  0.50870000  0.5 -0.1967926031
O  O35  1  0.82970000  0.54810000  0.07900000  0.5 -0.4026689852
O  O36  1  0.79030000  0.54920000  0.91730000  0.5 -0.3420339363
O  O37  1  0.79050000  0.50190000  0.14830000  0.5 -0.3222559072
O  O38  1  0.82960000  0.55350000  0.08100000  0.5 -0.4091627585
O  O39  1  0.90900000  0.40570000  0.67940000  0.5 -0.5537016416
O  O40  1  0.93900000  0.42300000  0.50870000  0.5 -0.1967926031
O  O41  1  0.54810000  0.17030000  0.07900000  0.5 -0.4026689852
O  O42  1  0.54920000  0.20970000  0.91730000  0.5 -0.3420339363
O  O43  1  0.50190000  0.20950000  0.14830000  0.5 -0.3222559072
O  O44  1  0.55350000  0.17040000  0.08100000  0.5 -0.4091627585
O  O45  1  0.09100000  0.59430000  0.67940000  0.5 -0.5537016416
O  O46  1  0.06100000  0.57700000  0.50870000  0.5 -0.1967926031
O  O47  1  0.45190000  0.82970000  0.07900000  0.5 -0.4026689852
O  O48  1  0.45080000  0.79030000  0.91730000  0.5 -0.3420339363
O  O49  1  0.49810000  0.79050000  0.14830000  0.5 -0.3222559072
O  O50  1  0.44650000  0.82960000  0.08100000  0.5 -0.4091627585
O  O51  1  0.09430000  0.59100000  0.67940000  0.5 -0.5537016416
O  O52  1  0.07700000  0.56100000  0.50870000  0.5 -0.1967926031
O  O53  1  0.32970000  0.95190000  0.07900000  0.5 -0.4026689852
O  O54  1  0.29030000  0.95080000  0.91730000  0.5 -0.3420339363
O  O55  1  0.29050000  0.99810000  0.14830000  0.5 -0.3222559072
O  O56  1  0.32960000  0.94650000  0.08100000  0.5 -0.4091627585
O  O57  1  0.90570000  0.40900000  0.67940000  0.5 -0.5537016416
O  O58  1  0.92300000  0.43900000  0.50870000  0.5 -0.1967926031
O  O59  1  0.67030000  0.04810000  0.07900000  0.5 -0.4026689852
O  O60  1  0.70970000  0.04920000  0.91730000  0.5 -0.3420339363
O  O61  1  0.70950000  0.00190000  0.14830000  0.5 -0.3222559072
O  O62  1  0.67040000  0.05350000  0.08100000  0.5 -0.4091627585
O  O63  1  0.59100000  0.90570000  0.67940000  0.5 -0.5537016416
O  O64  1  0.56100000  0.92300000  0.50870000  0.5 -0.1967926031
O  O65  1  0.95190000  0.67030000  0.07900000  0.5 -0.4026689852
O  O66  1  0.95080000  0.70970000  0.91730000  0.5 -0.3420339363
O  O67  1  0.99810000  0.70950000  0.14830000  0.5 -0.3222559072
O  O68  1  0.94650000  0.67040000  0.08100000  0.5 -0.4091627585
O  O69  1  0.40900000  0.09430000  0.67940000  0.5 -0.5537016416
O  O70  1  0.43900000  0.07700000  0.50870000  0.5 -0.1967926031
O  O71  1  0.04810000  0.32970000  0.07900000  0.5 -0.4026689852
O  O72  1  0.04920000  0.29030000  0.91730000  0.5 -0.3420339363
O  O73  1  0.00190000  0.29050000  0.14830000  0.5 -0.3222559072
O  O74  1  0.05350000  0.32960000  0.08100000  0.5 -0.4091627585
O  O75  1  0.09430000  0.40900000  0.32060000  0.5 -0.5537016416
O  O76  1  0.07700000  0.43900000  0.49130000  0.5 -0.1967926031
O  O77  1  0.32970000  0.04810000  0.92100000  0.5 -0.4026689852
O  O78  1  0.29030000  0.04920000  0.08270000  0.5 -0.3420339363
O  O79  1  0.29050000  0.00190000  0.85170000  0.5 -0.3222559072
O  O80  1  0.32960000  0.05350000  0.91900000  0.5 -0.4091627585
O  O81  1  0.90570000  0.59100000  0.32060000  0.5 -0.5537016416
O  O82  1  0.92300000  0.56100000  0.49130000  0.5 -0.1967926031
O  O83  1  0.67030000  0.95190000  0.92100000  0.5 -0.4026689852
O  O84  1  0.70970000  0.95080000  0.08270000  0.5 -0.3420339363
O  O85  1  0.70950000  0.99810000  0.85170000  0.5 -0.3222559072
O  O86  1  0.67040000  0.94650000  0.91900000  0.5 -0.4091627585
O  O87  1  0.59100000  0.09430000  0.32060000  0.5 -0.5537016416
O  O88  1  0.56100000  0.07700000  0.49130000  0.5 -0.1967926031
O  O89  1  0.95190000  0.32970000  0.92100000  0.5 -0.4026689852
O  O90  1  0.95080000  0.29030000  0.08270000  0.5 -0.3420339363
O  O91  1  0.99810000  0.29050000  0.85170000  0.5 -0.3222559072
O  O92  1  0.94650000  0.32960000  0.91900000  0.5 -0.4091627585
O  O93  1  0.40900000  0.90570000  0.32060000  0.5 -0.5537016416
O  O94  1  0.43900000  0.92300000  0.49130000  0.5 -0.1967926031
O  O95  1  0.04810000  0.67030000  0.92100000  0.5 -0.4026689852
O  O96  1  0.04920000  0.70970000  0.08270000  0.5 -0.3420339363
O  O97  1  0.00190000  0.70950000  0.85170000  0.5 -0.3222559072
O  O98  1  0.05350000  0.67040000  0.91900000  0.5 -0.4091627585
