# DDEC6 charges by PACMAN v1.1 (https://github.com/mtap-research/PACMAN-charge/)
data_oc7b00169_si_002_3_FSR_pacman
_symmetry_space_group_name_H-M   'P 1'
_cell_length_a   19.07000000
_cell_length_b   19.07000000
_cell_length_c   36.93000000
_cell_angle_alpha   90.00000000
_cell_angle_beta   90.00000000
_cell_angle_gamma   90.00000000
_symmetry_Int_Tables_number   1
_chemical_formula_structural   Al2H19(C14O5)2
_chemical_formula_sum   'Al16 H152 C224 O80'
_cell_volume   13430.14475700
_cell_formula_units_Z   8
loop_
 _symmetry_equiv_pos_site_id
 _symmetry_equiv_pos_as_xyz
  1  'x, y, z'
loop_
 _atom_site_type_symbol
 _atom_site_label
 _atom_site_symmetry_multiplicity
 _atom_site_fract_x
 _atom_site_fract_y
 _atom_site_fract_z
 _atom_site_occupancy
 _atom_site_charge
Al  Al1  1  0.66350000  0.33650000  0.50000000  1.0 1.5412228002
Al  Al2  1  0.16350000  0.16350000  0.00000000  1.0 1.5412228002
Al  Al3  1  0.33650000  0.66350000  0.50000000  1.0 1.5412228002
Al  Al4  1  0.83650000  0.83650000  0.00000000  1.0 1.5412228002
Al  Al5  1  0.61820000  0.39130000  0.41600000  1.0 1.6258777871
Al  Al6  1  0.10870000  0.11820000  0.91600000  1.0 1.6258777871
Al  Al7  1  0.38180000  0.60870000  0.41600000  1.0 1.6258777871
Al  Al8  1  0.89130000  0.88180000  0.91600000  1.0 1.6258777871
Al  Al9  1  0.11820000  0.10870000  0.08400000  1.0 1.6258777871
Al  Al10  1  0.88180000  0.89130000  0.08400000  1.0 1.6258777871
Al  Al11  1  0.39130000  0.61820000  0.58400000  1.0 1.6258777871
Al  Al12  1  0.60870000  0.38180000  0.58400000  1.0 1.6258777871
Al  Al13  1  0.50000000  0.50000000  0.38150000  1.0 1.624159564
Al  Al14  1  0.00000000  0.00000000  0.88150000  1.0 1.624159564
Al  Al15  1  0.00000000  0.00000000  0.11850000  1.0 1.624159564
Al  Al16  1  0.50000000  0.50000000  0.61850000  1.0 1.624159564
H  H1  1  0.56560000  0.49880000  0.44030000  1.0 0.4215053513
H  H2  1  0.00120000  0.06560000  0.94030000  1.0 0.4215053513
H  H3  1  0.43440000  0.50120000  0.44030000  1.0 0.4215053513
H  H4  1  0.99880000  0.93440000  0.94030000  1.0 0.4215053513
H  H5  1  0.06560000  0.00120000  0.05970000  1.0 0.4215053513
H  H6  1  0.93440000  0.99880000  0.05970000  1.0 0.4215053513
H  H7  1  0.49880000  0.56560000  0.55970000  1.0 0.4215053513
H  H8  1  0.50120000  0.43440000  0.55970000  1.0 0.4215053513
H  H9  1  0.69300000  0.39700000  0.36480000  1.0 0.390105982
H  H10  1  0.10300000  0.19300000  0.86480000  1.0 0.390105982
H  H11  1  0.30700000  0.60300000  0.36480000  1.0 0.390105982
H  H12  1  0.89700000  0.80700000  0.86480000  1.0 0.390105982
H  H13  1  0.19300000  0.10300000  0.13520000  1.0 0.390105982
H  H14  1  0.80700000  0.89700000  0.13520000  1.0 0.390105982
H  H15  1  0.39700000  0.69300000  0.63520000  1.0 0.390105982
H  H16  1  0.60300000  0.30700000  0.63520000  1.0 0.390105982
H  H17  1  0.55060000  0.34420000  0.47400000  1.0 0.4215053513
H  H18  1  0.15580000  0.05060000  0.97400000  1.0 0.4215053513
H  H19  1  0.44940000  0.65580000  0.47400000  1.0 0.4215053513
H  H20  1  0.84420000  0.94940000  0.97400000  1.0 0.4215053513
H  H21  1  0.05060000  0.15580000  0.02600000  1.0 0.4215053513
H  H22  1  0.94940000  0.84420000  0.02600000  1.0 0.4215053513
H  H23  1  0.34420000  0.55060000  0.52600000  1.0 0.4215053513
H  H24  1  0.65580000  0.44940000  0.52600000  1.0 0.4215053513
H  H25  1  0.79670000  0.63580000  0.04170000  1.0 0.1260296199
H  H26  1  0.86420000  0.29670000  0.54170000  1.0 0.1260296199
H  H27  1  0.20330000  0.36420000  0.04170000  1.0 0.1260296199
H  H28  1  0.13580000  0.70330000  0.54170000  1.0 0.1260296199
H  H29  1  0.29670000  0.86420000  0.45830000  1.0 0.1260296199
H  H30  1  0.70330000  0.13580000  0.45830000  1.0 0.1260296199
H  H31  1  0.63580000  0.79670000  0.95830000  1.0 0.1260296199
H  H32  1  0.36420000  0.20330000  0.95830000  1.0 0.1260296199
H  H33  1  0.78180000  0.52780000  0.06960000  1.0 0.1191813945
H  H34  1  0.97220000  0.28180000  0.56960000  1.0 0.1191813945
H  H35  1  0.21820000  0.47220000  0.06960000  1.0 0.1191813945
H  H36  1  0.02780000  0.71820000  0.56960000  1.0 0.1191813945
H  H37  1  0.28180000  0.97220000  0.43040000  1.0 0.1191813945
H  H38  1  0.71820000  0.02780000  0.43040000  1.0 0.1191813945
H  H39  1  0.52780000  0.78180000  0.93040000  1.0 0.1191813945
H  H40  1  0.47220000  0.21820000  0.93040000  1.0 0.1191813945
H  H41  1  0.76050000  0.62380000  0.16580000  1.0 0.1191813945
H  H42  1  0.87620000  0.26050000  0.66580000  1.0 0.1191813945
H  H43  1  0.23950000  0.37620000  0.16580000  1.0 0.1191813945
H  H44  1  0.12380000  0.73950000  0.66580000  1.0 0.1191813945
H  H45  1  0.26050000  0.87620000  0.33420000  1.0 0.1191813945
H  H46  1  0.73950000  0.12380000  0.33420000  1.0 0.1191813945
H  H47  1  0.62380000  0.76050000  0.83420000  1.0 0.1191813945
H  H48  1  0.37620000  0.23950000  0.83420000  1.0 0.1191813945
H  H49  1  0.77540000  0.73180000  0.13790000  1.0 0.1260296199
H  H50  1  0.76820000  0.27540000  0.63790000  1.0 0.1260296199
H  H51  1  0.22460000  0.26820000  0.13790000  1.0 0.1260296199
H  H52  1  0.23180000  0.72460000  0.63790000  1.0 0.1260296199
H  H53  1  0.27540000  0.76820000  0.36210000  1.0 0.1260296199
H  H54  1  0.72460000  0.23180000  0.36210000  1.0 0.1260296199
H  H55  1  0.73180000  0.77540000  0.86210000  1.0 0.1260296199
H  H56  1  0.26820000  0.22460000  0.86210000  1.0 0.1260296199
H  H57  1  0.58050000  0.51350000  0.28350000  1.0 0.1191813945
H  H58  1  0.98650000  0.08050000  0.78350000  1.0 0.1191813945
H  H59  1  0.41950000  0.48650000  0.28350000  1.0 0.1191813945
H  H60  1  0.01350000  0.91950000  0.78350000  1.0 0.1191813945
H  H61  1  0.08050000  0.98650000  0.21650000  1.0 0.1191813945
H  H62  1  0.91950000  0.01350000  0.21650000  1.0 0.1191813945
H  H63  1  0.51350000  0.58050000  0.71650000  1.0 0.1191813945
H  H64  1  0.48650000  0.41950000  0.71650000  1.0 0.1191813945
H  H65  1  0.62820000  0.51090000  0.22570000  1.0 0.1191813945
H  H66  1  0.98910000  0.12820000  0.72570000  1.0 0.1191813945
H  H67  1  0.37180000  0.48910000  0.22570000  1.0 0.1191813945
H  H68  1  0.01090000  0.87180000  0.72570000  1.0 0.1191813945
H  H69  1  0.12820000  0.98910000  0.27430000  1.0 0.1191813945
H  H70  1  0.87180000  0.01090000  0.27430000  1.0 0.1191813945
H  H71  1  0.51090000  0.62820000  0.77430000  1.0 0.1191813945
H  H72  1  0.48910000  0.37180000  0.77430000  1.0 0.1191813945
H  H73  1  0.76490000  0.36290000  0.25760000  1.0 0.1191813945
H  H74  1  0.13710000  0.26490000  0.75760000  1.0 0.1260296199
H  H75  1  0.23510000  0.63710000  0.25760000  1.0 0.1191813945
H  H76  1  0.86290000  0.73510000  0.75760000  1.0 0.1191813945
H  H77  1  0.26490000  0.13710000  0.24240000  1.0 0.1260296199
H  H78  1  0.73510000  0.86290000  0.24240000  1.0 0.1191813945
H  H79  1  0.36290000  0.76490000  0.74240000  1.0 0.1191813945
H  H80  1  0.63710000  0.23510000  0.74240000  1.0 0.1260296199
H  H81  1  0.71720000  0.36540000  0.31540000  1.0 0.1097897693
H  H82  1  0.13460000  0.21720000  0.81540000  1.0 0.1097897693
H  H83  1  0.28280000  0.63460000  0.31540000  1.0 0.1097897693
H  H84  1  0.86540000  0.78280000  0.81540000  1.0 0.1097897693
H  H85  1  0.21720000  0.13460000  0.18460000  1.0 0.1097897693
H  H86  1  0.78280000  0.86540000  0.18460000  1.0 0.1097897693
H  H87  1  0.36540000  0.71720000  0.68460000  1.0 0.1097897693
H  H88  1  0.63460000  0.28280000  0.68460000  1.0 0.1097897693
H  H89  1  0.69570000  0.52500000  0.17620000  1.0 0.1097897693
H  H90  1  0.97500000  0.19570000  0.67620000  1.0 0.1097897693
H  H91  1  0.30430000  0.47500000  0.17620000  1.0 0.1097897693
H  H92  1  0.02500000  0.80430000  0.67620000  1.0 0.1097897693
H  H93  1  0.19570000  0.97500000  0.32380000  1.0 0.1097897693
H  H94  1  0.80430000  0.02500000  0.32380000  1.0 0.1097897693
H  H95  1  0.52500000  0.69570000  0.82380000  1.0 0.1097897693
H  H96  1  0.47500000  0.30430000  0.82380000  1.0 0.1097897693
H  H97  1  0.76330000  0.33400000  0.19260000  1.0 0.1097897693
H  H98  1  0.16600000  0.26330000  0.69260000  1.0 0.1097897693
H  H99  1  0.23670000  0.66600000  0.19260000  1.0 0.1097897693
H  H100  1  0.83400000  0.73670000  0.69260000  1.0 0.1097897693
H  H101  1  0.26330000  0.16600000  0.30740000  1.0 0.1097897693
H  H102  1  0.73670000  0.83400000  0.30740000  1.0 0.1097897693
H  H103  1  0.33400000  0.76330000  0.80740000  1.0 0.1097897693
H  H104  1  0.66600000  0.23670000  0.80740000  1.0 0.1097897693
H  H105  1  0.77040000  0.47810000  0.45420000  1.0 0.0894848152
H  H106  1  0.02190000  0.27040000  0.95420000  1.0 0.0894848152
H  H107  1  0.22960000  0.52190000  0.45420000  1.0 0.0894848152
H  H108  1  0.97810000  0.72960000  0.95420000  1.0 0.0894848152
H  H109  1  0.27040000  0.02190000  0.04580000  1.0 0.0894848152
H  H110  1  0.72960000  0.97810000  0.04580000  1.0 0.0894848152
H  H111  1  0.47810000  0.77040000  0.54580000  1.0 0.0894848152
H  H112  1  0.52190000  0.22960000  0.54580000  1.0 0.0894848152
H  H113  1  0.82080000  0.42990000  0.10450000  1.0 0.1097897693
H  H114  1  0.07010000  0.32080000  0.60450000  1.0 0.1097897693
H  H115  1  0.17920000  0.57010000  0.10450000  1.0 0.1097897693
H  H116  1  0.92990000  0.67920000  0.60450000  1.0 0.1097897693
H  H117  1  0.32080000  0.07010000  0.39550000  1.0 0.1097897693
H  H118  1  0.67920000  0.92990000  0.39550000  1.0 0.1097897693
H  H119  1  0.42990000  0.82080000  0.89550000  1.0 0.1097897693
H  H120  1  0.57010000  0.17920000  0.89550000  1.0 0.1097897693
H  H121  1  0.99610000  0.28620000  0.09590000  1.0 0.1260296199
H  H122  1  0.21380000  0.49610000  0.59590000  1.0 0.1260296199
H  H123  1  0.00390000  0.71380000  0.09590000  1.0 0.1260296199
H  H124  1  0.78620000  0.50390000  0.59590000  1.0 0.1260296199
H  H125  1  0.49610000  0.21380000  0.40410000  1.0 0.1260296199
H  H126  1  0.50390000  0.78620000  0.40410000  1.0 0.1260296199
H  H127  1  0.28620000  0.99610000  0.90410000  1.0 0.1260296199
H  H128  1  0.71380000  0.00390000  0.90410000  1.0 0.1260296199
H  H129  1  0.92430000  0.38110000  0.10880000  1.0 0.1191813945
H  H130  1  0.11890000  0.42430000  0.60880000  1.0 0.1191813945
H  H131  1  0.07570000  0.61890000  0.10880000  1.0 0.1191813945
H  H132  1  0.88110000  0.57570000  0.60880000  1.0 0.1191813945
H  H133  1  0.42430000  0.11890000  0.39120000  1.0 0.1191813945
H  H134  1  0.57570000  0.88110000  0.39120000  1.0 0.1191813945
H  H135  1  0.38110000  0.92430000  0.89120000  1.0 0.1191813945
H  H136  1  0.61890000  0.07570000  0.89120000  1.0 0.1191813945
H  H137  1  0.79200000  0.25390000  0.16220000  1.0 0.1191813945
H  H138  1  0.24610000  0.29200000  0.66220000  1.0 0.1191813945
H  H139  1  0.20800000  0.74610000  0.16220000  1.0 0.1191813945
H  H140  1  0.75390000  0.70800000  0.66220000  1.0 0.1191813945
H  H141  1  0.29200000  0.24610000  0.33780000  1.0 0.1191813945
H  H142  1  0.70800000  0.75390000  0.33780000  1.0 0.1191813945
H  H143  1  0.25390000  0.79200000  0.83780000  1.0 0.1191813945
H  H144  1  0.74610000  0.20800000  0.83780000  1.0 0.1191813945
H  H145  1  0.86390000  0.15890000  0.14940000  1.0 0.1191813945
H  H146  1  0.34110000  0.36390000  0.64940000  1.0 0.1191813945
H  H147  1  0.13610000  0.84110000  0.14940000  1.0 0.1191813945
H  H148  1  0.65890000  0.63610000  0.64940000  1.0 0.1191813945
H  H149  1  0.36390000  0.34110000  0.35060000  1.0 0.1191813945
H  H150  1  0.63610000  0.65890000  0.35060000  1.0 0.1191813945
H  H151  1  0.15890000  0.86390000  0.85060000  1.0 0.1191813945
H  H152  1  0.84110000  0.13610000  0.85060000  1.0 0.1191813945
C  C1  1  0.61280000  0.43840000  0.33770000  1.0 0.2556245917
C  C2  1  0.06160000  0.11280000  0.83770000  1.0 0.2547226443
C  C3  1  0.38720000  0.56160000  0.33770000  1.0 0.2547226443
C  C4  1  0.93840000  0.88720000  0.83770000  1.0 0.2556245917
C  C5  1  0.11280000  0.06160000  0.16230000  1.0 0.2556245917
C  C6  1  0.88720000  0.93840000  0.16230000  1.0 0.2556245917
C  C7  1  0.43840000  0.61280000  0.66230000  1.0 0.2556245917
C  C8  1  0.56160000  0.38720000  0.66230000  1.0 0.2556245917
C  C9  1  0.78950000  0.63340000  0.06660000  1.0 -0.1110086472
C  C10  1  0.86660000  0.28950000  0.56660000  1.0 -0.1110086472
C  C11  1  0.21050000  0.36660000  0.06660000  1.0 -0.1110086472
C  C12  1  0.13340000  0.71050000  0.56660000  1.0 -0.1110086472
C  C13  1  0.28950000  0.86660000  0.43340000  1.0 -0.1110086472
C  C14  1  0.71050000  0.13340000  0.43340000  1.0 -0.1110086472
C  C15  1  0.63340000  0.78950000  0.93340000  1.0 -0.1110086472
C  C16  1  0.36660000  0.21050000  0.93340000  1.0 -0.1110086472
C  C17  1  0.78050000  0.56870000  0.08330000  1.0 -0.1393555248
C  C18  1  0.93130000  0.28050000  0.58330000  1.0 -0.1393555248
C  C19  1  0.21950000  0.43130000  0.08330000  1.0 -0.1393555248
C  C20  1  0.06870000  0.71950000  0.58330000  1.0 -0.1393555248
C  C21  1  0.28050000  0.93130000  0.41670000  1.0 -0.1393555248
C  C22  1  0.71950000  0.06870000  0.41670000  1.0 -0.1393555248
C  C23  1  0.56870000  0.78050000  0.91670000  1.0 -0.1393555248
C  C24  1  0.43130000  0.21950000  0.91670000  1.0 -0.1393555248
C  C25  1  0.76970000  0.56510000  0.12040000  1.0 0.0704394272
C  C26  1  0.93490000  0.26970000  0.62040000  1.0 0.0704394272
C  C27  1  0.23030000  0.43490000  0.12040000  1.0 0.0704394272
C  C28  1  0.06510000  0.73030000  0.62040000  1.0 0.0704394272
C  C29  1  0.26970000  0.93490000  0.37960000  1.0 0.0704394272
C  C30  1  0.73030000  0.06510000  0.37960000  1.0 0.0704394272
C  C31  1  0.56510000  0.76970000  0.87960000  1.0 0.0704394272
C  C32  1  0.43490000  0.23030000  0.87960000  1.0 0.0704394272
C  C33  1  0.76780000  0.62620000  0.14090000  1.0 -0.1513343513
C  C34  1  0.87380000  0.26780000  0.64090000  1.0 -0.1513343513
C  C35  1  0.23220000  0.37380000  0.14090000  1.0 -0.1513343513
C  C36  1  0.12620000  0.73220000  0.64090000  1.0 -0.1513343513
C  C37  1  0.26780000  0.87380000  0.35910000  1.0 -0.1513343513
C  C38  1  0.73220000  0.12620000  0.35910000  1.0 -0.1513343513
C  C39  1  0.62620000  0.76780000  0.85910000  1.0 -0.1513343513
C  C40  1  0.37380000  0.23220000  0.85910000  1.0 -0.1513343513
C  C41  1  0.77670000  0.69090000  0.12420000  1.0 -0.0987242333
C  C42  1  0.80910000  0.27670000  0.62420000  1.0 -0.0987242333
C  C43  1  0.22330000  0.30910000  0.12420000  1.0 -0.0987242333
C  C44  1  0.19090000  0.72330000  0.62420000  1.0 -0.0987242333
C  C45  1  0.27670000  0.80910000  0.37580000  1.0 -0.0987242333
C  C46  1  0.72330000  0.19090000  0.37580000  1.0 -0.0987242333
C  C47  1  0.69090000  0.77670000  0.87580000  1.0 -0.0987242333
C  C48  1  0.30910000  0.22330000  0.87580000  1.0 -0.0987242333
C  C49  1  0.78750000  0.69450000  0.08700000  1.0 -0.0890006611
C  C50  1  0.80550000  0.28750000  0.58700000  1.0 -0.0819652085
C  C51  1  0.21250000  0.30550000  0.08700000  1.0 -0.0819652085
C  C52  1  0.19450000  0.71250000  0.58700000  1.0 -0.0819652085
C  C53  1  0.28750000  0.80550000  0.41300000  1.0 -0.0819652085
C  C54  1  0.71250000  0.19450000  0.41300000  1.0 -0.0819652085
C  C55  1  0.69450000  0.78750000  0.91300000  1.0 -0.0819652085
C  C56  1  0.30550000  0.21250000  0.91300000  1.0 -0.0819652085
C  C57  1  0.98270000  0.15370000  0.12030000  1.0 0.5975193276
C  C58  1  0.34630000  0.48270000  0.62030000  1.0 0.5975193276
C  C59  1  0.01730000  0.84630000  0.12030000  1.0 0.5975193276
C  C60  1  0.65370000  0.51730000  0.62030000  1.0 0.5975193276
C  C61  1  0.48270000  0.34630000  0.37970000  1.0 0.5975193276
C  C62  1  0.51730000  0.65370000  0.37970000  1.0 0.5975193276
C  C63  1  0.15370000  0.98270000  0.87970000  1.0 0.5975193276
C  C64  1  0.84630000  0.01730000  0.87970000  1.0 0.5975193276
C  C65  1  0.81620000  0.76650000  0.05930000  1.0 0.5675209655
C  C66  1  0.73350000  0.31620000  0.55930000  1.0 0.5675209655
C  C67  1  0.18380000  0.23350000  0.05930000  1.0 0.5675209655
C  C68  1  0.26650000  0.68380000  0.55930000  1.0 0.5675209655
C  C69  1  0.31620000  0.73350000  0.44070000  1.0 0.5675209655
C  C70  1  0.68380000  0.26650000  0.44070000  1.0 0.5675209655
C  C71  1  0.76650000  0.81620000  0.94070000  1.0 0.5675209655
C  C72  1  0.23350000  0.18380000  0.94070000  1.0 0.5675209655
C  C73  1  0.61750000  0.48330000  0.27830000  1.0 -0.0724259087
C  C74  1  0.01670000  0.11750000  0.77830000  1.0 -0.0724259087
C  C75  1  0.38250000  0.51670000  0.27830000  1.0 -0.0724259087
C  C76  1  0.98330000  0.88250000  0.77830000  1.0 -0.0724259087
C  C77  1  0.11750000  0.01670000  0.22170000  1.0 -0.0724259087
C  C78  1  0.88250000  0.98330000  0.22170000  1.0 -0.0724259087
C  C79  1  0.48330000  0.61750000  0.72170000  1.0 -0.0724259087
C  C80  1  0.51670000  0.38250000  0.72170000  1.0 -0.0724259087
C  C81  1  0.64610000  0.48180000  0.24370000  1.0 -0.1580937689
C  C82  1  0.01820000  0.14610000  0.74370000  1.0 -0.1580937689
C  C83  1  0.35390000  0.51820000  0.24370000  1.0 -0.1580937689
C  C84  1  0.98180000  0.85390000  0.74370000  1.0 -0.1580937689
C  C85  1  0.14610000  0.01820000  0.25630000  1.0 -0.1580937689
C  C86  1  0.85390000  0.98180000  0.25630000  1.0 -0.1580937689
C  C87  1  0.48180000  0.64610000  0.75630000  1.0 -0.1580937689
C  C88  1  0.51820000  0.35390000  0.75630000  1.0 -0.1580937689
C  C89  1  0.70130000  0.43660000  0.23590000  1.0 0.0704394272
C  C90  1  0.06340000  0.20130000  0.73590000  1.0 0.0704394272
C  C91  1  0.29870000  0.56340000  0.23590000  1.0 0.0704394272
C  C92  1  0.93660000  0.79870000  0.73590000  1.0 0.0704394272
C  C93  1  0.20130000  0.06340000  0.26410000  1.0 0.0704394272
C  C94  1  0.79870000  0.93660000  0.26410000  1.0 0.0704394272
C  C95  1  0.43660000  0.70130000  0.76410000  1.0 0.0704394272
C  C96  1  0.56340000  0.29870000  0.76410000  1.0 0.0704394272
C  C97  1  0.72790000  0.39310000  0.26280000  1.0 -0.1513343513
C  C98  1  0.10690000  0.22790000  0.76280000  1.0 -0.1513343513
C  C99  1  0.27210000  0.60690000  0.26280000  1.0 -0.1513343513
C  C100  1  0.89310000  0.77210000  0.76280000  1.0 -0.1513343513
C  C101  1  0.22790000  0.10690000  0.23720000  1.0 -0.1513343513
C  C102  1  0.77210000  0.89310000  0.23720000  1.0 -0.1513343513
C  C103  1  0.39310000  0.72790000  0.73720000  1.0 -0.1513343513
C  C104  1  0.60690000  0.27210000  0.73720000  1.0 -0.1513343513
C  C105  1  0.69930000  0.39460000  0.29740000  1.0 -0.1110086472
C  C106  1  0.10540000  0.19930000  0.79740000  1.0 -0.1110086472
C  C107  1  0.30070000  0.60540000  0.29740000  1.0 -0.1110086472
C  C108  1  0.89460000  0.80070000  0.79740000  1.0 -0.1110086472
C  C109  1  0.19930000  0.10540000  0.20260000  1.0 -0.1110086472
C  C110  1  0.80070000  0.89460000  0.20260000  1.0 -0.1110086472
C  C111  1  0.39460000  0.69930000  0.70260000  1.0 -0.1110086472
C  C112  1  0.60540000  0.30070000  0.70260000  1.0 -0.1110086472
C  C113  1  0.64410000  0.43970000  0.30520000  1.0 -0.0596466319
C  C114  1  0.06030000  0.14410000  0.80520000  1.0 -0.0596466319
C  C115  1  0.35590000  0.56030000  0.30520000  1.0 -0.0596466319
C  C116  1  0.93970000  0.85590000  0.80520000  1.0 -0.0596466319
C  C117  1  0.14410000  0.06030000  0.19480000  1.0 -0.0596466319
C  C118  1  0.85590000  0.93970000  0.19480000  1.0 -0.0596466319
C  C119  1  0.43970000  0.64410000  0.69480000  1.0 -0.0596466319
C  C120  1  0.56030000  0.35590000  0.69480000  1.0 -0.0596466319
C  C121  1  0.72920000  0.49050000  0.17210000  1.0 -0.2199288079
C  C122  1  0.00950000  0.22920000  0.67210000  1.0 -0.2199288079
C  C123  1  0.27080000  0.50950000  0.17210000  1.0 -0.2199288079
C  C124  1  0.99050000  0.77080000  0.67210000  1.0 -0.2199288079
C  C125  1  0.22920000  0.00950000  0.32790000  1.0 -0.2199288079
C  C126  1  0.77080000  0.99050000  0.32790000  1.0 -0.2199288079
C  C127  1  0.49050000  0.72920000  0.82790000  1.0 -0.2199288079
C  C128  1  0.50950000  0.27080000  0.82790000  1.0 -0.2199288079
C  C129  1  0.80890000  0.38820000  0.14890000  1.0 0.0704394272
C  C130  1  0.11180000  0.30890000  0.64890000  1.0 0.0704394272
C  C131  1  0.19110000  0.61180000  0.14890000  1.0 0.0704394272
C  C132  1  0.88820000  0.69110000  0.64890000  1.0 0.0704394272
C  C133  1  0.30890000  0.11180000  0.35110000  1.0 0.0704394272
C  C134  1  0.69110000  0.88820000  0.35110000  1.0 0.0704394272
C  C135  1  0.38820000  0.80890000  0.85110000  1.0 0.0704394272
C  C136  1  0.61180000  0.19110000  0.85110000  1.0 0.0704394272
C  C137  1  0.76210000  0.49530000  0.13940000  1.0 0.0493308717
C  C138  1  0.00470000  0.26210000  0.63940000  1.0 0.0493308717
C  C139  1  0.23790000  0.50470000  0.13940000  1.0 0.0446043803
C  C140  1  0.99530000  0.73790000  0.63940000  1.0 0.0493308717
C  C141  1  0.26210000  0.00470000  0.36060000  1.0 0.0446043803
C  C142  1  0.73790000  0.99530000  0.36060000  1.0 0.0493308717
C  C143  1  0.49530000  0.76210000  0.86060000  1.0 0.0493308717
C  C144  1  0.50470000  0.23790000  0.86060000  1.0 0.0493308717
C  C145  1  0.76900000  0.37840000  0.18270000  1.0 -0.2541417798
C  C146  1  0.12160000  0.26900000  0.68270000  1.0 -0.2541417798
C  C147  1  0.23100000  0.62160000  0.18270000  1.0 -0.2553694056
C  C148  1  0.87840000  0.73100000  0.68270000  1.0 -0.2541417798
C  C149  1  0.26900000  0.12160000  0.31730000  1.0 -0.2541417798
C  C150  1  0.73100000  0.87840000  0.31730000  1.0 -0.2541417798
C  C151  1  0.37840000  0.76900000  0.81730000  1.0 -0.2541417798
C  C152  1  0.62160000  0.23100000  0.81730000  1.0 -0.2541417798
C  C153  1  0.73540000  0.44420000  0.45320000  1.0 0.4809708937
C  C154  1  0.05580000  0.23540000  0.95320000  1.0 0.4809708937
C  C155  1  0.26460000  0.55580000  0.45320000  1.0 0.4809708937
C  C156  1  0.94420000  0.76460000  0.95320000  1.0 0.4809708937
C  C157  1  0.23540000  0.05580000  0.04680000  1.0 0.4809708937
C  C158  1  0.76460000  0.94420000  0.04680000  1.0 0.4809708937
C  C159  1  0.44420000  0.73540000  0.54680000  1.0 0.4809708937
C  C160  1  0.55580000  0.26460000  0.54680000  1.0 0.4809708937
C  C161  1  0.73730000  0.44190000  0.20090000  1.0 0.0894848152
C  C162  1  0.05810000  0.23730000  0.70090000  1.0 0.0894848152
C  C163  1  0.26270000  0.55810000  0.20090000  1.0 0.0894848152
C  C164  1  0.94190000  0.76270000  0.70090000  1.0 0.0894848152
C  C165  1  0.23730000  0.05810000  0.29910000  1.0 0.0894848152
C  C166  1  0.76270000  0.94190000  0.29910000  1.0 0.0894848152
C  C167  1  0.44190000  0.73730000  0.79910000  1.0 0.0894848152
C  C168  1  0.55810000  0.26270000  0.79910000  1.0 0.0894848152
C  C169  1  0.80200000  0.43320000  0.12770000  1.0 -0.1513343513
C  C170  1  0.06680000  0.30200000  0.62770000  1.0 -0.1580937689
C  C171  1  0.19800000  0.56680000  0.12770000  1.0 -0.1513343513
C  C172  1  0.93320000  0.69800000  0.62770000  1.0 -0.1513343513
C  C173  1  0.30200000  0.06680000  0.37230000  1.0 -0.1580937689
C  C174  1  0.69800000  0.93320000  0.37230000  1.0 -0.1513343513
C  C175  1  0.43320000  0.80200000  0.87230000  1.0 -0.1513343513
C  C176  1  0.56680000  0.19800000  0.87230000  1.0 -0.1580937689
C  C177  1  0.95520000  0.27970000  0.10920000  1.0 -0.0819652085
C  C178  1  0.22030000  0.45520000  0.60920000  1.0 -0.0819652085
C  C179  1  0.04480000  0.72030000  0.10920000  1.0 -0.0819652085
C  C180  1  0.77970000  0.54480000  0.60920000  1.0 -0.0819652085
C  C181  1  0.45520000  0.22030000  0.39080000  1.0 -0.0819652085
C  C182  1  0.54480000  0.77970000  0.39080000  1.0 -0.0819652085
C  C183  1  0.27970000  0.95520000  0.89080000  1.0 -0.0819652085
C  C184  1  0.72030000  0.04480000  0.89080000  1.0 -0.0819652085
C  C185  1  0.91220000  0.33660000  0.11690000  1.0 -0.1580937689
C  C186  1  0.16340000  0.41220000  0.61690000  1.0 -0.1580937689
C  C187  1  0.08780000  0.66340000  0.11690000  1.0 -0.1580937689
C  C188  1  0.83660000  0.58780000  0.61690000  1.0 -0.1580937689
C  C189  1  0.41220000  0.16340000  0.38310000  1.0 -0.1580937689
C  C190  1  0.58780000  0.83660000  0.38310000  1.0 -0.1580937689
C  C191  1  0.33660000  0.91220000  0.88310000  1.0 -0.1580937689
C  C192  1  0.66340000  0.08780000  0.88310000  1.0 -0.1580937689
C  C193  1  0.85100000  0.32690000  0.13680000  1.0 0.0493308717
C  C194  1  0.17310000  0.35100000  0.63680000  1.0 0.0493308717
C  C195  1  0.14900000  0.67310000  0.13680000  1.0 0.0493308717
C  C196  1  0.82690000  0.64900000  0.63680000  1.0 0.0493308717
C  C197  1  0.35100000  0.17310000  0.36320000  1.0 0.0493308717
C  C198  1  0.64900000  0.82690000  0.36320000  1.0 0.0493308717
C  C199  1  0.32690000  0.85100000  0.86320000  1.0 0.0493308717
C  C200  1  0.67310000  0.14900000  0.86320000  1.0 0.0493308717
C  C201  1  0.83300000  0.26030000  0.14900000  1.0 -0.1513343513
C  C202  1  0.23970000  0.33300000  0.64900000  1.0 -0.1513343513
C  C203  1  0.16700000  0.73970000  0.14900000  1.0 -0.1513343513
C  C204  1  0.76030000  0.66700000  0.64900000  1.0 -0.1513343513
C  C205  1  0.33300000  0.23970000  0.35100000  1.0 -0.1513343513
C  C206  1  0.66700000  0.76030000  0.35100000  1.0 -0.1513343513
C  C207  1  0.26030000  0.83300000  0.85100000  1.0 -0.1513343513
C  C208  1  0.73970000  0.16700000  0.85100000  1.0 -0.1513343513
C  C209  1  0.87600000  0.20350000  0.14130000  1.0 -0.0819652085
C  C210  1  0.29650000  0.37600000  0.64130000  1.0 -0.0819652085
C  C211  1  0.12400000  0.79650000  0.14130000  1.0 -0.0819652085
C  C212  1  0.70350000  0.62400000  0.64130000  1.0 -0.0819652085
C  C213  1  0.37600000  0.29650000  0.35870000  1.0 -0.0819652085
C  C214  1  0.62400000  0.70350000  0.35870000  1.0 -0.0819652085
C  C215  1  0.20350000  0.87600000  0.85870000  1.0 -0.0819652085
C  C216  1  0.79650000  0.12400000  0.85870000  1.0 -0.0819652085
C  C217  1  0.93720000  0.21310000  0.12140000  1.0 -0.0890006611
C  C218  1  0.28690000  0.43720000  0.62140000  1.0 -0.0890006611
C  C219  1  0.06280000  0.78690000  0.12140000  1.0 -0.0890006611
C  C220  1  0.71310000  0.56280000  0.62140000  1.0 -0.0890006611
C  C221  1  0.43720000  0.28690000  0.37860000  1.0 -0.0890006611
C  C222  1  0.56280000  0.71310000  0.37860000  1.0 -0.0890006611
C  C223  1  0.21310000  0.93720000  0.87860000  1.0 -0.0890006611
C  C224  1  0.78690000  0.06280000  0.87860000  1.0 -0.0890006611
O  O1  1  0.56280000  0.47160000  0.41950000  1.0 -0.9877230034
O  O2  1  0.02840000  0.06280000  0.91950000  1.0 -0.9877230034
O  O3  1  0.43720000  0.52840000  0.41950000  1.0 -0.9877230034
O  O4  1  0.97160000  0.93720000  0.91950000  1.0 -0.9877230034
O  O5  1  0.06280000  0.02840000  0.08050000  1.0 -0.9877230034
O  O6  1  0.93720000  0.97160000  0.08050000  1.0 -0.9877230034
O  O7  1  0.47160000  0.56280000  0.58050000  1.0 -0.9877230034
O  O8  1  0.52840000  0.43720000  0.58050000  1.0 -0.9877230034
O  O9  1  0.65060000  0.40690000  0.37040000  1.0 -0.6014783488
O  O10  1  0.09310000  0.15060000  0.87040000  1.0 -0.6014783488
O  O11  1  0.34940000  0.59310000  0.37040000  1.0 -0.6014783488
O  O12  1  0.90690000  0.84940000  0.87040000  1.0 -0.6014783488
O  O13  1  0.15060000  0.09310000  0.12960000  1.0 -0.6014783488
O  O14  1  0.84940000  0.90690000  0.12960000  1.0 -0.6014783488
O  O15  1  0.40690000  0.65060000  0.62960000  1.0 -0.6014783488
O  O16  1  0.59310000  0.34940000  0.62960000  1.0 -0.6014783488
O  O17  1  0.59700000  0.35300000  0.46760000  1.0 -0.954586278
O  O18  1  0.14700000  0.09700000  0.96760000  1.0 -0.955220531
O  O19  1  0.40300000  0.64700000  0.46760000  1.0 -0.954586278
O  O20  1  0.85300000  0.90300000  0.96760000  1.0 -0.955220531
O  O21  1  0.09700000  0.14700000  0.03240000  1.0 -0.954586278
O  O22  1  0.90300000  0.85300000  0.03240000  1.0 -0.954586278
O  O23  1  0.35300000  0.59700000  0.53240000  1.0 -0.954586278
O  O24  1  0.64700000  0.40300000  0.53240000  1.0 -0.954586278
O  O25  1  0.55270000  0.47930000  0.34420000  1.0 -0.5931878121
O  O26  1  0.02070000  0.05270000  0.84420000  1.0 -0.5931878121
O  O27  1  0.44730000  0.52070000  0.34420000  1.0 -0.5931878121
O  O28  1  0.97930000  0.94730000  0.84420000  1.0 -0.5931878121
O  O29  1  0.05270000  0.02070000  0.15580000  1.0 -0.5931878121
O  O30  1  0.94730000  0.97930000  0.15580000  1.0 -0.5931878121
O  O31  1  0.47930000  0.55270000  0.65580000  1.0 -0.5931878121
O  O32  1  0.52070000  0.44730000  0.65580000  1.0 -0.5931878121
O  O33  1  0.82860000  0.80880000  0.08470000  1.0 -0.4579562017
O  O34  1  0.69120000  0.32860000  0.58470000  1.0 -0.4579562017
O  O35  1  0.17140000  0.19120000  0.08470000  1.0 -0.4579562017
O  O36  1  0.30880000  0.67140000  0.58470000  1.0 -0.4579562017
O  O37  1  0.32860000  0.69120000  0.41530000  1.0 -0.4579562017
O  O38  1  0.67140000  0.30880000  0.41530000  1.0 -0.4579562017
O  O39  1  0.80880000  0.82860000  0.91530000  1.0 -0.4579562017
O  O40  1  0.19120000  0.17140000  0.91530000  1.0 -0.4579562017
O  O41  1  0.73120000  0.39910000  0.48130000  1.0 -0.614438671
O  O42  1  0.10090000  0.23120000  0.98130000  1.0 -0.614438671
O  O43  1  0.26880000  0.60090000  0.48130000  1.0 -0.614438671
O  O44  1  0.89910000  0.76880000  0.98130000  1.0 -0.614438671
O  O45  1  0.23120000  0.10090000  0.01870000  1.0 -0.614438671
O  O46  1  0.76880000  0.89910000  0.01870000  1.0 -0.614438671
O  O47  1  0.39910000  0.73120000  0.51870000  1.0 -0.614438671
O  O48  1  0.60090000  0.26880000  0.51870000  1.0 -0.614438671
O  O49  1  0.03280000  0.17050000  0.09350000  1.0 -0.672727953
O  O50  1  0.32950000  0.53280000  0.59350000  1.0 -0.672727953
O  O51  1  0.96720000  0.82950000  0.09350000  1.0 -0.672727953
O  O52  1  0.67050000  0.46720000  0.59350000  1.0 -0.672727953
O  O53  1  0.53280000  0.32950000  0.40650000  1.0 -0.672727953
O  O54  1  0.46720000  0.67050000  0.40650000  1.0 -0.672727953
O  O55  1  0.17050000  0.03280000  0.90650000  1.0 -0.672727953
O  O56  1  0.82950000  0.96720000  0.90650000  1.0 -0.672727953
O  O57  1  0.95590000  0.09120000  0.12030000  1.0 -0.5735956536
O  O58  1  0.40880000  0.45590000  0.62030000  1.0 -0.5735956536
O  O59  1  0.04410000  0.90880000  0.12030000  1.0 -0.5735956536
O  O60  1  0.59120000  0.54410000  0.62030000  1.0 -0.5735956536
O  O61  1  0.45590000  0.40880000  0.37970000  1.0 -0.5735956536
O  O62  1  0.54410000  0.59120000  0.37970000  1.0 -0.5735956536
O  O63  1  0.09120000  0.95590000  0.87970000  1.0 -0.5735956536
O  O64  1  0.90880000  0.04410000  0.87970000  1.0 -0.5735956536
O  O65  1  0.79990000  0.76680000  0.03760000  1.0 -0.3057254062
O  O66  1  0.73320000  0.29990000  0.53760000  1.0 -0.3046097563
O  O67  1  0.20010000  0.23320000  0.03760000  1.0 -0.3046097563
O  O68  1  0.26680000  0.70010000  0.53760000  1.0 -0.3057254062
O  O69  1  0.29990000  0.73320000  0.46240000  1.0 -0.3057254062
O  O70  1  0.70010000  0.26680000  0.46240000  1.0 -0.3046097563
O  O71  1  0.76680000  0.79990000  0.96240000  1.0 -0.3057254062
O  O72  1  0.23320000  0.20010000  0.96240000  1.0 -0.3046097563
O  O73  1  0.69830000  0.44480000  0.42720000  1.0 -0.5168820129
O  O74  1  0.05520000  0.19830000  0.92720000  1.0 -0.5168820129
O  O75  1  0.30170000  0.55520000  0.42720000  1.0 -0.5168820129
O  O76  1  0.94480000  0.80170000  0.92720000  1.0 -0.5168820129
O  O77  1  0.19830000  0.05520000  0.07280000  1.0 -0.5168820129
O  O78  1  0.80170000  0.94480000  0.07280000  1.0 -0.5168820129
O  O79  1  0.44480000  0.69830000  0.57280000  1.0 -0.5168820129
O  O80  1  0.55520000  0.30170000  0.57280000  1.0 -0.5168820129
