# DDEC6 charges by PACMAN v1.1 (https://github.com/mtap-research/PACMAN-charge/)
data_2017[Al][skl]3[FSR]3
_chemical_formula_sum              "Al16 H168 C272 O80"
_cell_length_a       19.0287
_cell_length_b       19.0287
_cell_length_c       36.54
_cell_angle_alpha    90
_cell_angle_beta     90
_cell_angle_gamma    90

_symmetry_space_group_name_H-M    "P 1"
_symmetry_Int_Tables_number       1

loop_
  _symmetry_equiv_pos_as_xyz
  'x, y, z'

loop_
  _atom_site_type_symbol
  _atom_site_label
  _atom_site_symmetry_multiplicity
  _atom_site_fract_x
  _atom_site_fract_y
  _atom_site_fract_z
  _atom_site_occupancy
  _atom_site_charge
Al  Al1       1.0  0.66453  0.33547  0.50000  1.0000 1.6426412154
Al  Al2       1.0  0.16453  0.16453  0.00000  1.0000 1.6426412154
Al  Al3       1.0  0.33547  0.66453  0.50000  1.0000 1.6426412154
Al  Al4       1.0  0.83547  0.83547  0.00000  1.0000 1.6426412154
Al  Al5       1.0  0.61802  0.38741  0.41698  1.0000 1.6426412154
Al  Al6       1.0  0.11259  0.11802  0.91698  1.0000 1.6426412154
Al  Al7       1.0  0.38198  0.61259  0.41698  1.0000 1.6426412154
Al  Al8       1.0  0.88741  0.88198  0.91698  1.0000 1.6426412154
Al  Al9       1.0  0.11802  0.11259  0.08302  1.0000 1.6426412154
Al  Al10      1.0  0.88198  0.88741  0.08302  1.0000 1.6426412154
Al  Al11      1.0  0.38741  0.61802  0.58302  1.0000 1.6426412154
Al  Al12      1.0  0.61259  0.38198  0.58302  1.0000 1.6426412154
Al  Al13      1.0  0.50000  0.50000  0.38548  1.0000 1.6426412154
Al  Al14      1.0  0.00000  0.00000  0.88548  1.0000 1.6426412154
Al  Al15      1.0  0.00000  0.00000  0.11452  1.0000 1.6426412154
Al  Al16      1.0  0.50000  0.50000  0.61452  1.0000 1.6426412154
H   H1        1.0  0.57740  0.50280  0.43660  1.0000 0.4254352961
H   H2        1.0  0.99720  0.07740  0.93660  1.0000 0.4254352961
H   H3        1.0  0.42260  0.49720  0.43660  1.0000 0.4254352961
H   H4        1.0  0.00280  0.92260  0.93660  1.0000 0.4254352961
H   H5        1.0  0.07740  0.99720  0.06340  1.0000 0.4254352961
H   H6        1.0  0.92260  0.00280  0.06340  1.0000 0.4254352961
H   H7        1.0  0.50280  0.57740  0.56340  1.0000 0.4254352961
H   H8        1.0  0.49720  0.42260  0.56340  1.0000 0.4254352961
H   H9        1.0  0.55590  0.37070  0.47300  1.0000 0.4248374615
H   H10       1.0  0.12930  0.05590  0.97300  1.0000 0.4254352961
H   H11       1.0  0.44410  0.62930  0.47300  1.0000 0.4248374615
H   H12       1.0  0.87070  0.94410  0.97300  1.0000 0.4254352961
H   H13       1.0  0.05590  0.12930  0.02700  1.0000 0.4248374615
H   H14       1.0  0.94410  0.87070  0.02700  1.0000 0.4248374615
H   H15       1.0  0.37070  0.55590  0.52700  1.0000 0.4254352961
H   H16       1.0  0.62930  0.44410  0.52700  1.0000 0.4248374615
H   H17       1.0  0.76000  0.62790  0.16500  1.0000 0.1126945633
H   H18       1.0  0.87210  0.26000  0.66500  1.0000 0.1126945633
H   H19       1.0  0.24000  0.37210  0.16500  1.0000 0.1126945633
H   H20       1.0  0.12790  0.74000  0.66500  1.0000 0.1126945633
H   H21       1.0  0.26000  0.87210  0.33500  1.0000 0.1126945633
H   H22       1.0  0.74000  0.12790  0.33500  1.0000 0.1126945633
H   H23       1.0  0.62790  0.76000  0.83500  1.0000 0.1126945633
H   H24       1.0  0.37210  0.24000  0.83500  1.0000 0.1126945633
H   H25       1.0  0.76800  0.63410  0.03930  1.0000 0.1291818359
H   H26       1.0  0.86590  0.26800  0.53930  1.0000 0.1291818359
H   H27       1.0  0.23200  0.36590  0.03930  1.0000 0.1291818359
H   H28       1.0  0.13410  0.73200  0.53930  1.0000 0.1291818359
H   H29       1.0  0.26800  0.86590  0.46070  1.0000 0.1291818359
H   H30       1.0  0.73200  0.13410  0.46070  1.0000 0.1291818359
H   H31       1.0  0.63410  0.76800  0.96070  1.0000 0.1291818359
H   H32       1.0  0.36590  0.23200  0.96070  1.0000 0.1291818359
H   H33       1.0  0.77810  0.73190  0.13680  1.0000 0.1291818359
H   H34       1.0  0.76810  0.27810  0.63680  1.0000 0.1291818359
H   H35       1.0  0.22190  0.26810  0.13680  1.0000 0.1291818359
H   H36       1.0  0.23190  0.72190  0.63680  1.0000 0.1291818359
H   H37       1.0  0.27810  0.76810  0.36320  1.0000 0.1291818359
H   H38       1.0  0.72190  0.23190  0.36320  1.0000 0.1291818359
H   H39       1.0  0.73190  0.77810  0.86320  1.0000 0.1291818359
H   H40       1.0  0.26810  0.22190  0.86320  1.0000 0.1291818359
H   H41       1.0  0.75910  0.52640  0.07140  1.0000 0.1126945633
H   H42       1.0  0.97360  0.25910  0.57140  1.0000 0.1126945633
H   H43       1.0  0.24090  0.47360  0.07140  1.0000 0.1126945633
H   H44       1.0  0.02640  0.74090  0.57140  1.0000 0.1126945633
H   H45       1.0  0.25910  0.97360  0.42860  1.0000 0.1126945633
H   H46       1.0  0.74090  0.02640  0.42860  1.0000 0.1126945633
H   H47       1.0  0.52640  0.75910  0.92860  1.0000 0.1126945633
H   H48       1.0  0.47360  0.24090  0.92860  1.0000 0.1126945633
H   H49       1.0  0.56520  0.49470  0.28220  1.0000 0.1291818359
H   H50       1.0  0.00530  0.06520  0.78220  1.0000 0.1291818359
H   H51       1.0  0.43480  0.50530  0.28220  1.0000 0.1291818359
H   H52       1.0  0.99470  0.93480  0.78220  1.0000 0.1291818359
H   H53       1.0  0.06520  0.00530  0.21780  1.0000 0.1291818359
H   H54       1.0  0.93480  0.99470  0.21780  1.0000 0.1291818359
H   H55       1.0  0.49470  0.56520  0.71780  1.0000 0.1291818359
H   H56       1.0  0.50530  0.43480  0.71780  1.0000 0.1291818359
H   H57       1.0  0.85100  0.15550  0.14450  1.0000 0.1396254923
H   H58       1.0  0.34450  0.35100  0.64450  1.0000 0.1396254923
H   H59       1.0  0.14900  0.84450  0.14450  1.0000 0.1396254923
H   H60       1.0  0.65550  0.64900  0.64450  1.0000 0.1396254923
H   H61       1.0  0.35100  0.34450  0.35550  1.0000 0.1396254923
H   H62       1.0  0.64900  0.65550  0.35550  1.0000 0.1396254923
H   H63       1.0  0.15550  0.85100  0.85550  1.0000 0.1396254923
H   H64       1.0  0.84450  0.14900  0.85550  1.0000 0.1396254923
H   H65       1.0  0.99020  0.29110  0.09800  1.0000 0.1291818359
H   H66       1.0  0.20890  0.49020  0.59800  1.0000 0.1291818359
H   H67       1.0  0.00980  0.70890  0.09800  1.0000 0.1291818359
H   H68       1.0  0.79110  0.50980  0.59800  1.0000 0.1291818359
H   H69       1.0  0.49020  0.20890  0.40200  1.0000 0.1291818359
H   H70       1.0  0.50980  0.79110  0.40200  1.0000 0.1291818359
H   H71       1.0  0.29110  0.99020  0.90200  1.0000 0.1291818359
H   H72       1.0  0.70890  0.00980  0.90200  1.0000 0.1291818359
H   H73       1.0  0.71610  0.35870  0.31420  1.0000 0.1291818359
H   H74       1.0  0.14130  0.21610  0.81420  1.0000 0.1291818359
H   H75       1.0  0.28390  0.64130  0.31420  1.0000 0.1291818359
H   H76       1.0  0.85870  0.78390  0.81420  1.0000 0.1291818359
H   H77       1.0  0.21610  0.14130  0.18580  1.0000 0.1291818359
H   H78       1.0  0.78390  0.85870  0.18580  1.0000 0.1291818359
H   H79       1.0  0.35870  0.71610  0.68580  1.0000 0.1291818359
H   H80       1.0  0.64130  0.28390  0.68580  1.0000 0.1291818359
H   H81       1.0  0.76720  0.36690  0.25760  1.0000 0.1126945633
H   H82       1.0  0.13310  0.26720  0.75760  1.0000 0.1126945633
H   H83       1.0  0.23280  0.63310  0.25760  1.0000 0.1126945633
H   H84       1.0  0.86690  0.73280  0.75760  1.0000 0.1126945633
H   H85       1.0  0.26720  0.13310  0.24240  1.0000 0.1126945633
H   H86       1.0  0.73280  0.86690  0.24240  1.0000 0.1126945633
H   H87       1.0  0.36690  0.76720  0.74240  1.0000 0.1126945633
H   H88       1.0  0.63310  0.23280  0.74240  1.0000 0.1126945633
H   H89       1.0  0.61540  0.50050  0.22350  1.0000 0.1126945633
H   H90       1.0  0.99950  0.11540  0.72350  1.0000 0.1126945633
H   H91       1.0  0.38460  0.49950  0.22350  1.0000 0.1126945633
H   H92       1.0  0.00050  0.88460  0.72350  1.0000 0.1126945633
H   H93       1.0  0.11540  0.99950  0.27650  1.0000 0.1126945633
H   H94       1.0  0.88460  0.00050  0.27650  1.0000 0.1126945633
H   H95       1.0  0.50050  0.61540  0.77650  1.0000 0.1126945633
H   H96       1.0  0.49950  0.38460  0.77650  1.0000 0.1126945633
H   H97       1.0  0.69710  0.53150  0.18290  1.0000 0.1126945633
H   H98       1.0  0.96850  0.19710  0.68290  1.0000 0.1126945633
H   H99       1.0  0.30290  0.46850  0.18290  1.0000 0.1126945633
H   H100      1.0  0.03150  0.80290  0.68290  1.0000 0.1126945633
H   H101      1.0  0.19710  0.96850  0.31710  1.0000 0.1126945633
H   H102      1.0  0.80290  0.03150  0.31710  1.0000 0.1126945633
H   H103      1.0  0.53150  0.69710  0.81710  1.0000 0.1126945633
H   H104      1.0  0.46850  0.30290  0.81710  1.0000 0.1126945633
H   H105      1.0  0.91750  0.37850  0.11380  1.0000 0.1126945633
H   H106      1.0  0.12150  0.41750  0.61380  1.0000 0.1126945633
H   H107      1.0  0.08250  0.62150  0.11380  1.0000 0.1126945633
H   H108      1.0  0.87850  0.58250  0.61380  1.0000 0.1126945633
H   H109      1.0  0.41750  0.12150  0.38620  1.0000 0.1126945633
H   H110      1.0  0.58250  0.87850  0.38620  1.0000 0.1126945633
H   H111      1.0  0.37850  0.91750  0.88620  1.0000 0.1126945633
H   H112      1.0  0.62150  0.08250  0.88620  1.0000 0.1126945633
H   H113      1.0  0.78140  0.23810  0.15540  1.0000 0.1180854121
H   H114      1.0  0.26190  0.28140  0.65540  1.0000 0.1180854121
H   H115      1.0  0.21860  0.76190  0.15540  1.0000 0.1180854121
H   H116      1.0  0.73810  0.71860  0.65540  1.0000 0.1180854121
H   H117      1.0  0.28140  0.26190  0.34460  1.0000 0.1180854121
H   H118      1.0  0.71860  0.73810  0.34460  1.0000 0.1180854121
H   H119      1.0  0.23810  0.78140  0.84460  1.0000 0.1180854121
H   H120      1.0  0.76190  0.21860  0.84460  1.0000 0.1180854121
H   H121      1.0  0.81910  0.44540  0.10740  1.0000 0.1126945633
H   H122      1.0  0.05460  0.31910  0.60740  1.0000 0.1126945633
H   H123      1.0  0.18090  0.55460  0.10740  1.0000 0.1126945633
H   H124      1.0  0.94540  0.68090  0.60740  1.0000 0.1126945633
H   H125      1.0  0.31910  0.05460  0.39260  1.0000 0.1126945633
H   H126      1.0  0.68090  0.94540  0.39260  1.0000 0.1126945633
H   H127      1.0  0.44540  0.81910  0.89260  1.0000 0.1126945633
H   H128      1.0  0.55460  0.18090  0.89260  1.0000 0.1126945633
H   H129      1.0  0.76390  0.33020  0.19560  1.0000 0.1126945633
H   H130      1.0  0.16980  0.26390  0.69560  1.0000 0.1126945633
H   H131      1.0  0.23610  0.66980  0.19560  1.0000 0.1126945633
H   H132      1.0  0.83020  0.73610  0.69560  1.0000 0.1126945633
H   H133      1.0  0.26390  0.16980  0.30440  1.0000 0.1126945633
H   H134      1.0  0.73610  0.83020  0.30440  1.0000 0.1126945633
H   H135      1.0  0.33020  0.76390  0.80440  1.0000 0.1126945633
H   H136      1.0  0.66980  0.23610  0.80440  1.0000 0.1126945633
H   H137      1.0  0.82150  0.48990  0.39740  1.0000 0.1396254923
H   H138      1.0  0.01010  0.32150  0.89740  1.0000 0.1396254923
H   H139      1.0  0.17850  0.51010  0.39740  1.0000 0.1396254923
H   H140      1.0  0.98990  0.67850  0.89740  1.0000 0.1396254923
H   H141      1.0  0.32150  0.01010  0.10260  1.0000 0.1396254923
H   H142      1.0  0.67850  0.98990  0.10260  1.0000 0.1396254923
H   H143      1.0  0.48990  0.82150  0.60260  1.0000 0.1396254923
H   H144      1.0  0.51010  0.17850  0.60260  1.0000 0.1396254923
H   H145      1.0  0.93800  0.50970  0.39460  1.0000 0.1180854121
H   H146      1.0  0.99030  0.43800  0.89460  1.0000 0.1180854121
H   H147      1.0  0.06200  0.49030  0.39460  1.0000 0.1180854121
H   H148      1.0  0.00970  0.56200  0.89460  1.0000 0.1180854121
H   H149      1.0  0.43800  0.99030  0.10540  1.0000 0.1180854121
H   H150      1.0  0.56200  0.00970  0.10540  1.0000 0.1180854121
H   H151      1.0  0.50970  0.93800  0.60540  1.0000 0.1180854121
H   H152      1.0  0.49030  0.06200  0.60540  1.0000 0.1180854121
H   H153      1.0  0.84310  0.42910  0.50090  1.0000 0.1291818359
H   H154      1.0  0.07090  0.34310  0.00090  1.0000 0.1291818359
H   H155      1.0  0.15690  0.57090  0.50090  1.0000 0.1291818359
H   H156      1.0  0.92910  0.65690  0.00090  1.0000 0.1291818359
H   H157      1.0  0.34310  0.07090  0.99910  1.0000 0.1291818359
H   H158      1.0  0.65690  0.92910  0.99910  1.0000 0.1291818359
H   H159      1.0  0.42910  0.84310  0.49910  1.0000 0.1291818359
H   H160      1.0  0.57090  0.15690  0.49910  1.0000 0.1291818359
H   H161      1.0  0.96670  0.42900  0.49450  1.0000 0.1180854121
H   H162      1.0  0.07100  0.46670  0.99450  1.0000 0.1180854121
H   H163      1.0  0.03330  0.57100  0.49450  1.0000 0.1180854121
H   H164      1.0  0.92900  0.53330  0.99450  1.0000 0.1180854121
H   H165      1.0  0.46670  0.07100  0.00550  1.0000 0.1180854121
H   H166      1.0  0.53330  0.92900  0.00550  1.0000 0.1180854121
H   H167      1.0  0.42900  0.96670  0.50550  1.0000 0.1180854121
H   H168      1.0  0.57100  0.03330  0.50550  1.0000 0.1180854121
C   C1        1.0  0.61220  0.43660  0.34052  1.0000 0.6331248793
C   C2        1.0  0.06340  0.11220  0.84052  1.0000 0.6331248793
C   C3        1.0  0.38780  0.56340  0.34052  1.0000 0.6331248793
C   C4        1.0  0.93660  0.88780  0.84052  1.0000 0.6331248793
C   C5        1.0  0.11220  0.06340  0.15948  1.0000 0.6331248793
C   C6        1.0  0.88780  0.93660  0.15948  1.0000 0.6331248793
C   C7        1.0  0.43660  0.61220  0.65948  1.0000 0.6331248793
C   C8        1.0  0.56340  0.38780  0.65948  1.0000 0.6331248793
C   C9        1.0  0.76360  0.62840  0.13963  1.0000 -0.1595439103
C   C10       1.0  0.87160  0.26360  0.63963  1.0000 -0.1595439103
C   C11       1.0  0.23640  0.37160  0.13963  1.0000 -0.1595439103
C   C12       1.0  0.12840  0.73640  0.63963  1.0000 -0.1595439103
C   C13       1.0  0.26360  0.87160  0.36037  1.0000 -0.1595439103
C   C14       1.0  0.73640  0.12840  0.36037  1.0000 -0.1595439103
C   C15       1.0  0.62840  0.76360  0.86037  1.0000 -0.1595439103
C   C16       1.0  0.37160  0.23640  0.86037  1.0000 -0.1595439103
C   C17       1.0  0.77000  0.63280  0.06476  1.0000 -0.0908819001
C   C18       1.0  0.86720  0.27000  0.56476  1.0000 -0.0908819001
C   C19       1.0  0.23000  0.36720  0.06476  1.0000 -0.0908819001
C   C20       1.0  0.13280  0.73000  0.56476  1.0000 -0.0908819001
C   C21       1.0  0.27000  0.86720  0.43524  1.0000 -0.0908819001
C   C22       1.0  0.73000  0.13280  0.43524  1.0000 -0.0908819001
C   C23       1.0  0.63280  0.77000  0.93524  1.0000 -0.0908819001
C   C24       1.0  0.36720  0.23000  0.93524  1.0000 -0.0908819001
C   C25       1.0  0.97880  0.15180  0.11071  1.0000 0.6025225136
C   C26       1.0  0.34820  0.47880  0.61071  1.0000 0.6025225136
C   C27       1.0  0.02120  0.84820  0.11071  1.0000 0.6025225136
C   C28       1.0  0.65180  0.52120  0.61071  1.0000 0.6025225136
C   C29       1.0  0.47880  0.34820  0.38929  1.0000 0.6025225136
C   C30       1.0  0.52120  0.65180  0.38929  1.0000 0.6025225136
C   C31       1.0  0.15180  0.97880  0.88929  1.0000 0.6025225136
C   C32       1.0  0.84820  0.02120  0.88929  1.0000 0.6025225136
C   C33       1.0  0.77470  0.69080  0.12317  1.0000 -0.0908819001
C   C34       1.0  0.80920  0.27470  0.62317  1.0000 -0.0908819001
C   C35       1.0  0.22530  0.30920  0.12317  1.0000 -0.0908819001
C   C36       1.0  0.19080  0.72530  0.62317  1.0000 -0.0908819001
C   C37       1.0  0.27470  0.80920  0.37683  1.0000 -0.0908819001
C   C38       1.0  0.72530  0.19080  0.37683  1.0000 -0.0908819001
C   C39       1.0  0.69080  0.77470  0.87683  1.0000 -0.0908819001
C   C40       1.0  0.30920  0.22530  0.87683  1.0000 -0.0908819001
C   C41       1.0  0.76150  0.56780  0.08486  1.0000 -0.1477655969
C   C42       1.0  0.93220  0.26150  0.58486  1.0000 -0.1477655969
C   C43       1.0  0.23850  0.43220  0.08486  1.0000 -0.1477655969
C   C44       1.0  0.06780  0.73850  0.58486  1.0000 -0.1477655969
C   C45       1.0  0.26150  0.93220  0.41514  1.0000 -0.1477655969
C   C46       1.0  0.73850  0.06780  0.41514  1.0000 -0.1477655969
C   C47       1.0  0.56780  0.76150  0.91514  1.0000 -0.1477655969
C   C48       1.0  0.43220  0.23850  0.91514  1.0000 -0.1477655969
C   C49       1.0  0.78100  0.69180  0.08476  1.0000 -0.0501521698
C   C50       1.0  0.80820  0.28100  0.58476  1.0000 -0.0501521698
C   C51       1.0  0.21900  0.30820  0.08476  1.0000 -0.0501521698
C   C52       1.0  0.19180  0.71900  0.58476  1.0000 -0.0501521698
C   C53       1.0  0.28100  0.80820  0.41524  1.0000 -0.0501521698
C   C54       1.0  0.71900  0.19180  0.41524  1.0000 -0.0501521698
C   C55       1.0  0.69180  0.78100  0.91524  1.0000 -0.0501521698
C   C56       1.0  0.30820  0.21900  0.91524  1.0000 -0.0501521698
C   C57       1.0  0.80460  0.75680  0.06602  1.0000 0.6190188665
C   C58       1.0  0.74320  0.30460  0.56602  1.0000 0.6190188665
C   C59       1.0  0.19540  0.24320  0.06602  1.0000 0.6190188665
C   C60       1.0  0.25680  0.69540  0.56602  1.0000 0.6190188665
C   C61       1.0  0.30460  0.74320  0.43398  1.0000 0.6190188665
C   C62       1.0  0.69540  0.25680  0.43398  1.0000 0.6190188665
C   C63       1.0  0.75680  0.80460  0.93398  1.0000 0.6190188665
C   C64       1.0  0.24320  0.19540  0.93398  1.0000 0.6190188665
C   C65       1.0  0.93280  0.20790  0.11868  1.0000 -0.1293757923
C   C66       1.0  0.29210  0.43280  0.61868  1.0000 -0.1293757923
C   C67       1.0  0.06720  0.79210  0.11868  1.0000 -0.1293757923
C   C68       1.0  0.70790  0.56720  0.61868  1.0000 -0.1293757923
C   C69       1.0  0.43280  0.29210  0.38132  1.0000 -0.1293757923
C   C70       1.0  0.56720  0.70790  0.38132  1.0000 -0.1293757923
C   C71       1.0  0.20790  0.93280  0.88132  1.0000 -0.1293757923
C   C72       1.0  0.79210  0.06720  0.88132  1.0000 -0.1293757923
C   C73       1.0  0.60590  0.47000  0.27666  1.0000 -0.0981733736
C   C74       1.0  0.03000  0.10590  0.77666  1.0000 -0.0981733736
C   C75       1.0  0.39410  0.53000  0.27666  1.0000 -0.0981733736
C   C76       1.0  0.97000  0.89410  0.77666  1.0000 -0.0981733736
C   C77       1.0  0.10590  0.03000  0.22334  1.0000 -0.0981733736
C   C78       1.0  0.89410  0.97000  0.22334  1.0000 -0.0981733736
C   C79       1.0  0.47000  0.60590  0.72334  1.0000 -0.0981733736
C   C80       1.0  0.53000  0.39410  0.72334  1.0000 -0.0981733736
C   C81       1.0  0.75700  0.56300  0.12086  1.0000 0.0693007684
C   C82       1.0  0.93700  0.25700  0.62086  1.0000 0.0693007684
C   C83       1.0  0.24300  0.43700  0.12086  1.0000 0.0693007684
C   C84       1.0  0.06300  0.74300  0.62086  1.0000 0.0693007684
C   C85       1.0  0.25700  0.93700  0.37914  1.0000 0.0693007684
C   C86       1.0  0.74300  0.06300  0.37914  1.0000 0.0693007684
C   C87       1.0  0.56300  0.75700  0.87914  1.0000 0.0693007684
C   C88       1.0  0.43700  0.24300  0.87914  1.0000 0.0693007684
C   C89       1.0  0.69280  0.43280  0.23148  1.0000 0.0627442866
C   C90       1.0  0.06720  0.19280  0.73148  1.0000 0.0627442866
C   C91       1.0  0.30720  0.56720  0.23148  1.0000 0.0627442866
C   C92       1.0  0.93280  0.80720  0.73148  1.0000 0.0627442866
C   C93       1.0  0.19280  0.06720  0.26852  1.0000 0.0627442866
C   C94       1.0  0.80720  0.93280  0.26852  1.0000 0.0627442866
C   C95       1.0  0.43280  0.69280  0.76852  1.0000 0.0627442866
C   C96       1.0  0.56720  0.30720  0.76852  1.0000 0.0627442866
C   C97       1.0  0.86460  0.20060  0.13751  1.0000 -0.0746442538
C   C98       1.0  0.29940  0.36460  0.63751  1.0000 -0.0746442538
C   C99       1.0  0.13540  0.79940  0.13751  1.0000 -0.0746442538
C   C100      1.0  0.70060  0.63540  0.63751  1.0000 -0.0746442538
C   C101      1.0  0.36460  0.29940  0.36249  1.0000 -0.0746442538
C   C102      1.0  0.63540  0.70060  0.36249  1.0000 -0.0746442538
C   C103      1.0  0.20060  0.86460  0.86249  1.0000 -0.0746442538
C   C104      1.0  0.79940  0.13540  0.86249  1.0000 -0.0746442538
C   C105      1.0  0.72800  0.43370  0.19710  1.0000 0.0804331974
C   C106      1.0  0.06630  0.22800  0.69710  1.0000 0.0804331974
C   C107      1.0  0.27200  0.56630  0.19710  1.0000 0.0804331974
C   C108      1.0  0.93370  0.77200  0.69710  1.0000 0.0804331974
C   C109      1.0  0.22800  0.06630  0.30290  1.0000 0.0804331974
C   C110      1.0  0.77200  0.93370  0.30290  1.0000 0.0804331974
C   C111      1.0  0.43370  0.72800  0.80290  1.0000 0.0804331974
C   C112      1.0  0.56630  0.27200  0.80290  1.0000 0.0804331974
C   C113      1.0  0.64060  0.42970  0.30289  1.0000 -0.0501521698
C   C114      1.0  0.07030  0.14060  0.80289  1.0000 -0.0501521698
C   C115      1.0  0.35940  0.57030  0.30289  1.0000 -0.0501521698
C   C116      1.0  0.92970  0.85940  0.80289  1.0000 -0.0501521698
C   C117      1.0  0.14060  0.07030  0.19711  1.0000 -0.0501521698
C   C118      1.0  0.85940  0.92970  0.19711  1.0000 -0.0501521698
C   C119      1.0  0.42970  0.64060  0.69711  1.0000 -0.0501521698
C   C120      1.0  0.57030  0.35940  0.69711  1.0000 -0.0501521698
C   C121      1.0  0.94860  0.28050  0.11022  1.0000 -0.0803544905
C   C122      1.0  0.21950  0.44860  0.61022  1.0000 -0.0803544905
C   C123      1.0  0.05140  0.71950  0.11022  1.0000 -0.0803544905
C   C124      1.0  0.78050  0.55140  0.61022  1.0000 -0.0803544905
C   C125      1.0  0.44860  0.21950  0.38978  1.0000 -0.0803544905
C   C126      1.0  0.55140  0.78050  0.38978  1.0000 -0.0803544905
C   C127      1.0  0.28050  0.94860  0.88978  1.0000 -0.0803544905
C   C128      1.0  0.71950  0.05140  0.88978  1.0000 -0.0803544905
C   C129      1.0  0.69750  0.38800  0.29625  1.0000 -0.0981733736
C   C130      1.0  0.11200  0.19750  0.79625  1.0000 -0.0981733736
C   C131      1.0  0.30250  0.61200  0.29625  1.0000 -0.0981733736
C   C132      1.0  0.88800  0.80250  0.79625  1.0000 -0.0981733736
C   C133      1.0  0.19750  0.11200  0.20375  1.0000 -0.0981733736
C   C134      1.0  0.80250  0.88800  0.20375  1.0000 -0.0981733736
C   C135      1.0  0.38800  0.69750  0.70375  1.0000 -0.0981733736
C   C136      1.0  0.61200  0.30250  0.70375  1.0000 -0.0981733736
C   C137      1.0  0.72580  0.39130  0.26223  1.0000 -0.1425334557
C   C138      1.0  0.10870  0.22580  0.76223  1.0000 -0.1425334557
C   C139      1.0  0.27420  0.60870  0.26223  1.0000 -0.1425334557
C   C140      1.0  0.89130  0.77420  0.76223  1.0000 -0.1425334557
C   C141      1.0  0.22580  0.10870  0.23777  1.0000 -0.1425334557
C   C142      1.0  0.77420  0.89130  0.23777  1.0000 -0.1425334557
C   C143      1.0  0.39130  0.72580  0.73777  1.0000 -0.1425334557
C   C144      1.0  0.60870  0.27420  0.73777  1.0000 -0.1425334557
C   C145      1.0  0.84080  0.31990  0.13759  1.0000 0.0693007684
C   C146      1.0  0.18010  0.34080  0.63759  1.0000 0.0693007684
C   C147      1.0  0.15920  0.68010  0.13759  1.0000 0.0693007684
C   C148      1.0  0.81990  0.65920  0.63759  1.0000 0.0693007684
C   C149      1.0  0.34080  0.18010  0.36241  1.0000 0.0693007684
C   C150      1.0  0.65920  0.81990  0.36241  1.0000 0.0693007684
C   C151      1.0  0.31990  0.84080  0.86241  1.0000 0.0693007684
C   C152      1.0  0.68010  0.15920  0.86241  1.0000 0.0693007684
C   C153      1.0  0.63580  0.47160  0.24102  1.0000 -0.1477655969
C   C154      1.0  0.02840  0.13580  0.74102  1.0000 -0.1477655969
C   C155      1.0  0.36420  0.52840  0.24102  1.0000 -0.1477655969
C   C156      1.0  0.97160  0.86420  0.74102  1.0000 -0.1477655969
C   C157      1.0  0.13580  0.02840  0.25898  1.0000 -0.1477655969
C   C158      1.0  0.86420  0.97160  0.25898  1.0000 -0.1477655969
C   C159      1.0  0.47160  0.63580  0.75898  1.0000 -0.1477655969
C   C160      1.0  0.52840  0.36420  0.75898  1.0000 -0.1477655969
C   C161      1.0  0.72280  0.49320  0.17458  1.0000 -0.1928282522
C   C162      1.0  0.00680  0.22280  0.67458  1.0000 -0.1928282522
C   C163      1.0  0.27720  0.50680  0.17458  1.0000 -0.1928282522
C   C164      1.0  0.99320  0.77720  0.67458  1.0000 -0.1928282522
C   C165      1.0  0.22280  0.00680  0.32542  1.0000 -0.1928282522
C   C166      1.0  0.77720  0.99320  0.32542  1.0000 -0.1928282522
C   C167      1.0  0.49320  0.72280  0.82542  1.0000 -0.1928282522
C   C168      1.0  0.50680  0.27720  0.82542  1.0000 -0.1928282522
C   C169      1.0  0.90510  0.33250  0.11947  1.0000 -0.1477655969
C   C170      1.0  0.16750  0.40510  0.61947  1.0000 -0.1477655969
C   C171      1.0  0.09490  0.66750  0.11947  1.0000 -0.1477655969
C   C172      1.0  0.83250  0.59490  0.61947  1.0000 -0.1477655969
C   C173      1.0  0.40510  0.16750  0.38053  1.0000 -0.1477655969
C   C174      1.0  0.59490  0.83250  0.38053  1.0000 -0.1477655969
C   C175      1.0  0.33250  0.90510  0.88053  1.0000 -0.1477655969
C   C176      1.0  0.66750  0.09490  0.88053  1.0000 -0.1477655969
C   C177      1.0  0.79670  0.38110  0.14915  1.0000 0.0804331974
C   C178      1.0  0.11890  0.29670  0.64915  1.0000 0.0804331974
C   C179      1.0  0.20330  0.61890  0.14915  1.0000 0.0804331974
C   C180      1.0  0.88110  0.70330  0.64915  1.0000 0.0804331974
C   C181      1.0  0.29670  0.11890  0.35085  1.0000 0.0804331974
C   C182      1.0  0.70330  0.88110  0.35085  1.0000 0.0804331974
C   C183      1.0  0.38110  0.79670  0.85085  1.0000 0.0804331974
C   C184      1.0  0.61890  0.20330  0.85085  1.0000 0.0804331974
C   C185      1.0  0.82450  0.24870  0.14471  1.0000 -0.113703103
C   C186      1.0  0.25130  0.32450  0.64471  1.0000 -0.113703103
C   C187      1.0  0.17550  0.75130  0.14471  1.0000 -0.113703103
C   C188      1.0  0.74870  0.67550  0.64471  1.0000 -0.113703103
C   C189      1.0  0.32450  0.25130  0.35529  1.0000 -0.113703103
C   C190      1.0  0.67550  0.74870  0.35529  1.0000 -0.113703103
C   C191      1.0  0.24870  0.82450  0.85529  1.0000 -0.113703103
C   C192      1.0  0.75130  0.17550  0.85529  1.0000 -0.113703103
C   C193      1.0  0.75390  0.49750  0.14086  1.0000 0.0693007684
C   C194      1.0  0.00250  0.25390  0.64086  1.0000 0.0693007684
C   C195      1.0  0.24610  0.50250  0.14086  1.0000 0.0693007684
C   C196      1.0  0.99750  0.74610  0.64086  1.0000 0.0693007684
C   C197      1.0  0.25390  0.00250  0.35914  1.0000 0.0693007684
C   C198      1.0  0.74610  0.99750  0.35914  1.0000 0.0693007684
C   C199      1.0  0.49750  0.75390  0.85914  1.0000 0.0693007684
C   C200      1.0  0.50250  0.24610  0.85914  1.0000 0.0693007684
C   C201      1.0  0.79380  0.44180  0.12910  1.0000 -0.2009076599
C   C202      1.0  0.05820  0.29380  0.62910  1.0000 -0.2009076599
C   C203      1.0  0.20620  0.55820  0.12910  1.0000 -0.2009076599
C   C204      1.0  0.94180  0.70620  0.62910  1.0000 -0.2009076599
C   C205      1.0  0.29380  0.05820  0.37090  1.0000 -0.2009076599
C   C206      1.0  0.70620  0.94180  0.37090  1.0000 -0.2009076599
C   C207      1.0  0.44180  0.79380  0.87090  1.0000 -0.2009076599
C   C208      1.0  0.55820  0.20620  0.87090  1.0000 -0.2009076599
C   C209      1.0  0.76330  0.37270  0.18303  1.0000 -0.2228835311
C   C210      1.0  0.12730  0.26330  0.68303  1.0000 -0.2228835311
C   C211      1.0  0.23670  0.62730  0.18303  1.0000 -0.2228835311
C   C212      1.0  0.87270  0.73670  0.68303  1.0000 -0.2228835311
C   C213      1.0  0.26330  0.12730  0.31697  1.0000 -0.2228835311
C   C214      1.0  0.73670  0.87270  0.31697  1.0000 -0.2228835311
C   C215      1.0  0.37270  0.76330  0.81697  1.0000 -0.2228835311
C   C216      1.0  0.62730  0.23670  0.81697  1.0000 -0.2228835311
C   C217      1.0  0.74750  0.42630  0.45162  1.0000 0.6331248793
C   C218      1.0  0.07370  0.24750  0.95162  1.0000 0.6331248793
C   C219      1.0  0.25250  0.57370  0.45162  1.0000 0.6331248793
C   C220      1.0  0.92630  0.75250  0.95162  1.0000 0.6331248793
C   C221      1.0  0.24750  0.07370  0.04838  1.0000 0.6331248793
C   C222      1.0  0.75250  0.92630  0.04838  1.0000 0.6331248793
C   C223      1.0  0.42630  0.74750  0.54838  1.0000 0.6331248793
C   C224      1.0  0.57370  0.25250  0.54838  1.0000 0.6331248793
C   C225      1.0  0.84960  0.48060  0.41767  1.0000 -0.0908819001
C   C226      1.0  0.01940  0.34960  0.91767  1.0000 -0.0908819001
C   C227      1.0  0.15040  0.51940  0.41767  1.0000 -0.0908819001
C   C228      1.0  0.98060  0.65040  0.91767  1.0000 -0.0908819001
C   C229      1.0  0.34960  0.01940  0.08233  1.0000 -0.0908819001
C   C230      1.0  0.65040  0.98060  0.08233  1.0000 -0.0908819001
C   C231      1.0  0.48060  0.84960  0.58233  1.0000 -0.0908819001
C   C232      1.0  0.51940  0.15040  0.58233  1.0000 -0.0908819001
C   C233      1.0  0.82100  0.45190  0.44816  1.0000 -0.0501521698
C   C234      1.0  0.04810  0.32100  0.94816  1.0000 -0.0501521698
C   C235      1.0  0.17900  0.54810  0.44816  1.0000 -0.0501521698
C   C236      1.0  0.95190  0.67900  0.94816  1.0000 -0.0501521698
C   C237      1.0  0.32100  0.04810  0.05184  1.0000 -0.0501521698
C   C238      1.0  0.67900  0.95190  0.05184  1.0000 -0.055141018
C   C239      1.0  0.45190  0.82100  0.55184  1.0000 -0.0501521698
C   C240      1.0  0.54810  0.17900  0.55184  1.0000 -0.0501521698
C   C241      1.0  0.91810  0.49560  0.41665  1.0000 -0.1425334557
C   C242      1.0  0.00440  0.41810  0.91665  1.0000 -0.1425334557
C   C243      1.0  0.08190  0.50440  0.41665  1.0000 -0.1477655969
C   C244      1.0  0.99560  0.58190  0.91665  1.0000 -0.1425334557
C   C245      1.0  0.41810  0.00440  0.08335  1.0000 -0.1477655969
C   C246      1.0  0.58190  0.99560  0.08335  1.0000 -0.1425334557
C   C247      1.0  0.49560  0.91810  0.58335  1.0000 -0.1425334557
C   C248      1.0  0.50440  0.08190  0.58335  1.0000 -0.1425334557
C   C249      1.0  0.86400  0.44140  0.47882  1.0000 -0.0981733736
C   C250      1.0  0.05860  0.36400  0.97882  1.0000 -0.0981733736
C   C251      1.0  0.13600  0.55860  0.47882  1.0000 -0.0981733736
C   C252      1.0  0.94140  0.63600  0.97882  1.0000 -0.0981733736
C   C253      1.0  0.36400  0.05860  0.02118  1.0000 -0.0981733736
C   C254      1.0  0.63600  0.94140  0.02118  1.0000 -0.0981733736
C   C255      1.0  0.44140  0.86400  0.52118  1.0000 -0.0981733736
C   C256      1.0  0.55860  0.13600  0.52118  1.0000 -0.0981733736
C   C257      1.0  0.95950  0.49090  0.44677  1.0000 0.0804331974
C   C258      1.0  0.00910  0.45950  0.94677  1.0000 0.0804331974
C   C259      1.0  0.04050  0.50910  0.44677  1.0000 0.0804331974
C   C260      1.0  0.99090  0.54050  0.94677  1.0000 0.0804331974
C   C261      1.0  0.45950  0.00910  0.05323  1.0000 0.0804331974
C   C262      1.0  0.54050  0.99090  0.05323  1.0000 0.0804331974
C   C263      1.0  0.49090  0.95950  0.55323  1.0000 0.0804331974
C   C264      1.0  0.50910  0.04050  0.55323  1.0000 0.0804331974
C   C265      1.0  0.93630  0.44880  0.47748  1.0000 -0.1595439103
C   C266      1.0  0.05120  0.43630  0.97748  1.0000 -0.1595439103
C   C267      1.0  0.06370  0.55120  0.47748  1.0000 -0.1595439103
C   C268      1.0  0.94880  0.56370  0.97748  1.0000 -0.1595439103
C   C269      1.0  0.43630  0.05120  0.02252  1.0000 -0.1595439103
C   C270      1.0  0.56370  0.94880  0.02252  1.0000 -0.1595439103
C   C271      1.0  0.44880  0.93630  0.52252  1.0000 -0.1595439103
C   C272      1.0  0.55120  0.06370  0.52252  1.0000 -0.1595439103
O   O1        1.0  0.56712  0.47186  0.41764  1.0000 -1.0052490022
O   O2        1.0  0.02814  0.06712  0.91764  1.0000 -1.0042328256
O   O3        1.0  0.43288  0.52814  0.41764  1.0000 -1.0042328256
O   O4        1.0  0.97186  0.93288  0.91764  1.0000 -1.0052490022
O   O5        1.0  0.06712  0.02814  0.08236  1.0000 -1.0052490022
O   O6        1.0  0.93288  0.97186  0.08236  1.0000 -1.0042328256
O   O7        1.0  0.47186  0.56712  0.58236  1.0000 -1.0042328256
O   O8        1.0  0.52814  0.43288  0.58236  1.0000 -1.0042328256
O   O9        1.0  0.64136  0.39570  0.36593  1.0000 -0.6181454819
O   O10       1.0  0.10430  0.14136  0.86593  1.0000 -0.6181454819
O   O11       1.0  0.35864  0.60430  0.36593  1.0000 -0.6181454819
O   O12       1.0  0.89570  0.85864  0.86593  1.0000 -0.6181454819
O   O13       1.0  0.14136  0.10430  0.13407  1.0000 -0.6181454819
O   O14       1.0  0.85864  0.89570  0.13407  1.0000 -0.6181454819
O   O15       1.0  0.39570  0.64136  0.63407  1.0000 -0.6181454819
O   O16       1.0  0.60430  0.35864  0.63407  1.0000 -0.6181454819
O   O17       1.0  0.60207  0.36571  0.46515  1.0000 -1.0042328256
O   O18       1.0  0.13429  0.10207  0.96515  1.0000 -1.0042328256
O   O19       1.0  0.39793  0.63429  0.46515  1.0000 -1.0042328256
O   O20       1.0  0.86571  0.89793  0.96515  1.0000 -1.0042328256
O   O21       1.0  0.10207  0.13429  0.03485  1.0000 -1.0042328256
O   O22       1.0  0.89793  0.86571  0.03485  1.0000 -1.0042328256
O   O23       1.0  0.36571  0.60207  0.53485  1.0000 -1.0042328256
O   O24       1.0  0.63429  0.39793  0.53485  1.0000 -1.0042328256
O   O25       1.0  0.55720  0.47260  0.34543  1.0000 -0.5767541912
O   O26       1.0  0.02740  0.05720  0.84543  1.0000 -0.5767541912
O   O27       1.0  0.44280  0.52740  0.34543  1.0000 -0.5767541912
O   O28       1.0  0.97260  0.94280  0.84543  1.0000 -0.5767541912
O   O29       1.0  0.05720  0.02740  0.15457  1.0000 -0.5767541912
O   O30       1.0  0.94280  0.97260  0.15457  1.0000 -0.5767541912
O   O31       1.0  0.47260  0.55720  0.65457  1.0000 -0.5767541912
O   O32       1.0  0.52740  0.44280  0.65457  1.0000 -0.5767541912
O   O33       1.0  0.82650  0.80550  0.08817  1.0000 -0.5967533485
O   O34       1.0  0.69450  0.32650  0.58817  1.0000 -0.5967533485
O   O35       1.0  0.17350  0.19450  0.08817  1.0000 -0.5967533485
O   O36       1.0  0.30550  0.67350  0.58817  1.0000 -0.5967533485
O   O37       1.0  0.32650  0.69450  0.41183  1.0000 -0.5967533485
O   O38       1.0  0.67350  0.30550  0.41183  1.0000 -0.5967533485
O   O39       1.0  0.80550  0.82650  0.91183  1.0000 -0.5967533485
O   O40       1.0  0.19450  0.17350  0.91183  1.0000 -0.5967533485
O   O41       1.0  0.73488  0.39500  0.48164  1.0000 -0.5967533485
O   O42       1.0  0.10500  0.23488  0.98164  1.0000 -0.5967533485
O   O43       1.0  0.26512  0.60500  0.48164  1.0000 -0.5967533485
O   O44       1.0  0.89500  0.76512  0.98164  1.0000 -0.5967533485
O   O45       1.0  0.23488  0.10500  0.01836  1.0000 -0.5967533485
O   O46       1.0  0.76512  0.89500  0.01836  1.0000 -0.5967533485
O   O47       1.0  0.39500  0.73488  0.51836  1.0000 -0.5967533485
O   O48       1.0  0.60500  0.26512  0.51836  1.0000 -0.5967533485
O   O49       1.0  0.03950  0.16541  0.09767  1.0000 -0.5967533485
O   O50       1.0  0.33459  0.53950  0.59767  1.0000 -0.5967533485
O   O51       1.0  0.96050  0.83459  0.09767  1.0000 -0.5967533485
O   O52       1.0  0.66541  0.46050  0.59767  1.0000 -0.5967533485
O   O53       1.0  0.53950  0.33459  0.40233  1.0000 -0.5967533485
O   O54       1.0  0.46050  0.66541  0.40233  1.0000 -0.5967533485
O   O55       1.0  0.16541  0.03950  0.90233  1.0000 -0.5948718574
O   O56       1.0  0.83459  0.96050  0.90233  1.0000 -0.5948718574
O   O57       1.0  0.95780  0.09060  0.11695  1.0000 -0.5704971638
O   O58       1.0  0.40940  0.45780  0.61695  1.0000 -0.5704971638
O   O59       1.0  0.04220  0.90940  0.11695  1.0000 -0.5704971638
O   O60       1.0  0.59060  0.54220  0.61695  1.0000 -0.5704971638
O   O61       1.0  0.45780  0.40940  0.38305  1.0000 -0.5704971638
O   O62       1.0  0.54220  0.59060  0.38305  1.0000 -0.5704971638
O   O63       1.0  0.09060  0.95780  0.88305  1.0000 -0.5704971638
O   O64       1.0  0.90940  0.04220  0.88305  1.0000 -0.5704971638
O   O65       1.0  0.70548  0.43710  0.42587  1.0000 -0.5704971638
O   O66       1.0  0.06290  0.20548  0.92587  1.0000 -0.5704971638
O   O67       1.0  0.29452  0.56290  0.42587  1.0000 -0.5704971638
O   O68       1.0  0.93710  0.79452  0.92587  1.0000 -0.5704971638
O   O69       1.0  0.20548  0.06290  0.07413  1.0000 -0.5704971638
O   O70       1.0  0.79452  0.93710  0.07413  1.0000 -0.5704971638
O   O71       1.0  0.43710  0.70548  0.57413  1.0000 -0.5704971638
O   O72       1.0  0.56290  0.29452  0.57413  1.0000 -0.5704971638
O   O73       1.0  0.80070  0.76024  0.03253  1.0000 -0.5294384744
O   O74       1.0  0.73976  0.30070  0.53253  1.0000 -0.5294384744
O   O75       1.0  0.19930  0.23976  0.03253  1.0000 -0.5294384744
O   O76       1.0  0.26024  0.69930  0.53253  1.0000 -0.5294384744
O   O77       1.0  0.30070  0.73976  0.46747  1.0000 -0.5294384744
O   O78       1.0  0.69930  0.26024  0.46747  1.0000 -0.5294384744
O   O79       1.0  0.76024  0.80070  0.96747  1.0000 -0.5294384744
O   O80       1.0  0.23976  0.19930  0.96747  1.0000 -0.5294384744
