# DDEC6 charges by PACMAN v1.1 (https://github.com/mtap-research/PACMAN-charge/)
data_d0ta06830f2_25_FSR_pacman
_symmetry_space_group_name_H-M   'P 1'
_cell_length_a   45.61000000
_cell_length_b   45.61000000
_cell_length_c   45.61000000
_cell_angle_alpha   90.00000000
_cell_angle_beta   90.00000000
_cell_angle_gamma   90.00000000
_symmetry_Int_Tables_number   1
_chemical_formula_structural   ZnH10C20NO5
_chemical_formula_sum   'Zn48 H480 C960 N48 O240'
_cell_volume   94881.21048100
_cell_formula_units_Z   48
loop_
 _symmetry_equiv_pos_site_id
 _symmetry_equiv_pos_as_xyz
  1  'x, y, z'
loop_
 _atom_site_type_symbol
 _atom_site_label
 _atom_site_symmetry_multiplicity
 _atom_site_fract_x
 _atom_site_fract_y
 _atom_site_fract_z
 _atom_site_occupancy
 _atom_site_charge
Zn  Zn1  1  0.35538000  0.97678000  0.96826000  1.0 1.0554899557
Zn  Zn2  1  0.14462000  0.02322000  0.46826000  1.0 1.0554899557
Zn  Zn3  1  0.64462000  0.47678000  0.53174000  1.0 1.0554899557
Zn  Zn4  1  0.85538000  0.52322000  0.03174000  1.0 1.0538532111
Zn  Zn5  1  0.96826000  0.35538000  0.97678000  1.0 1.0538532111
Zn  Zn6  1  0.46826000  0.14462000  0.02322000  1.0 1.0554899557
Zn  Zn7  1  0.53174000  0.64462000  0.47678000  1.0 1.0554899557
Zn  Zn8  1  0.03174000  0.85538000  0.52322000  1.0 1.0554899557
Zn  Zn9  1  0.97678000  0.96826000  0.35538000  1.0 1.0538532111
Zn  Zn10  1  0.02322000  0.46826000  0.14462000  1.0 1.0554899557
Zn  Zn11  1  0.47678000  0.53174000  0.64462000  1.0 1.0554899557
Zn  Zn12  1  0.52322000  0.03174000  0.85538000  1.0 1.0554899557
Zn  Zn13  1  0.64462000  0.02322000  0.03174000  1.0 1.0538532111
Zn  Zn14  1  0.85538000  0.97678000  0.53174000  1.0 1.0538532111
Zn  Zn15  1  0.35538000  0.52322000  0.46826000  1.0 1.0554899557
Zn  Zn16  1  0.14462000  0.47678000  0.96826000  1.0 1.0554899557
Zn  Zn17  1  0.03174000  0.64462000  0.02322000  1.0 1.0554899557
Zn  Zn18  1  0.53174000  0.85538000  0.97678000  1.0 1.0554899557
Zn  Zn19  1  0.46826000  0.35538000  0.52322000  1.0 1.0554899557
Zn  Zn20  1  0.96826000  0.14462000  0.47678000  1.0 1.0538532111
Zn  Zn21  1  0.02322000  0.03174000  0.64462000  1.0 1.0554899557
Zn  Zn22  1  0.97678000  0.53174000  0.85538000  1.0 1.0538532111
Zn  Zn23  1  0.52322000  0.46826000  0.35538000  1.0 1.0554899557
Zn  Zn24  1  0.47678000  0.96826000  0.14462000  1.0 1.0554899557
Zn  Zn25  1  0.29234000  0.96527000  0.95545000  1.0 1.0828311771
Zn  Zn26  1  0.20766000  0.03473000  0.45545000  1.0 1.0828311771
Zn  Zn27  1  0.70766000  0.46527000  0.54455000  1.0 1.0828311771
Zn  Zn28  1  0.79234000  0.53473000  0.04455000  1.0 1.0828311771
Zn  Zn29  1  0.95545000  0.29234000  0.96527000  1.0 1.0828311771
Zn  Zn30  1  0.45545000  0.20766000  0.03473000  1.0 1.0828311771
Zn  Zn31  1  0.54455000  0.70766000  0.46527000  1.0 1.0828311771
Zn  Zn32  1  0.04455000  0.79234000  0.53473000  1.0 1.0828311771
Zn  Zn33  1  0.96527000  0.95545000  0.29234000  1.0 1.0828311771
Zn  Zn34  1  0.03473000  0.45545000  0.20766000  1.0 1.0828311771
Zn  Zn35  1  0.46527000  0.54455000  0.70766000  1.0 1.0828311771
Zn  Zn36  1  0.53473000  0.04455000  0.79234000  1.0 1.0828311771
Zn  Zn37  1  0.70766000  0.03473000  0.04455000  1.0 1.0828311771
Zn  Zn38  1  0.79234000  0.96527000  0.54455000  1.0 1.0828311771
Zn  Zn39  1  0.29234000  0.53473000  0.45545000  1.0 1.0828311771
Zn  Zn40  1  0.20766000  0.46527000  0.95545000  1.0 1.0828311771
Zn  Zn41  1  0.04455000  0.70766000  0.03473000  1.0 1.0828311771
Zn  Zn42  1  0.54455000  0.79234000  0.96527000  1.0 1.0828311771
Zn  Zn43  1  0.45545000  0.29234000  0.53473000  1.0 1.0828311771
Zn  Zn44  1  0.95545000  0.20766000  0.46527000  1.0 1.0828311771
Zn  Zn45  1  0.03473000  0.04455000  0.70766000  1.0 1.0828311771
Zn  Zn46  1  0.96527000  0.54455000  0.79234000  1.0 1.0828311771
Zn  Zn47  1  0.53473000  0.45545000  0.29234000  1.0 1.0828311771
Zn  Zn48  1  0.46527000  0.95545000  0.20766000  1.0 1.0828311771
H  H1  1  0.34485000  0.06842000  0.98685000  1.0 0.1506582209
H  H2  1  0.15515000  0.93158000  0.48685000  1.0 0.1506582209
H  H3  1  0.65515000  0.56842000  0.51315000  1.0 0.1506582209
H  H4  1  0.84485000  0.43158000  0.01315000  1.0 0.1506582209
H  H5  1  0.98685000  0.34485000  0.06842000  1.0 0.1506582209
H  H6  1  0.48685000  0.15515000  0.93158000  1.0 0.1506582209
H  H7  1  0.51315000  0.65515000  0.56842000  1.0 0.1506582209
H  H8  1  0.01315000  0.84485000  0.43158000  1.0 0.1506582209
H  H9  1  0.06842000  0.98685000  0.34485000  1.0 0.1506582209
H  H10  1  0.93158000  0.48685000  0.15515000  1.0 0.1506582209
H  H11  1  0.56842000  0.51315000  0.65515000  1.0 0.1506582209
H  H12  1  0.43158000  0.01315000  0.84485000  1.0 0.1506582209
H  H13  1  0.65515000  0.93158000  0.01315000  1.0 0.1506582209
H  H14  1  0.84485000  0.06842000  0.51315000  1.0 0.1506582209
H  H15  1  0.34485000  0.43158000  0.48685000  1.0 0.1506582209
H  H16  1  0.15515000  0.56842000  0.98685000  1.0 0.1506582209
H  H17  1  0.01315000  0.65515000  0.93158000  1.0 0.1506582209
H  H18  1  0.51315000  0.84485000  0.06842000  1.0 0.1506582209
H  H19  1  0.48685000  0.34485000  0.43158000  1.0 0.1506582209
H  H20  1  0.98685000  0.15515000  0.56842000  1.0 0.1506582209
H  H21  1  0.93158000  0.01315000  0.65515000  1.0 0.1506582209
H  H22  1  0.06842000  0.51315000  0.84485000  1.0 0.1506582209
H  H23  1  0.43158000  0.48685000  0.34485000  1.0 0.1506582209
H  H24  1  0.56842000  0.98685000  0.15515000  1.0 0.1506582209
H  H25  1  0.25104000  0.10429000  0.96583000  1.0 0.1396317679
H  H26  1  0.24896000  0.89571000  0.46583000  1.0 0.1396317679
H  H27  1  0.74896000  0.60429000  0.53417000  1.0 0.1396317679
H  H28  1  0.75104000  0.39571000  0.03417000  1.0 0.1396317679
H  H29  1  0.96583000  0.25104000  0.10429000  1.0 0.1396317679
H  H30  1  0.46583000  0.24896000  0.89571000  1.0 0.1396317679
H  H31  1  0.53417000  0.74896000  0.60429000  1.0 0.1396317679
H  H32  1  0.03417000  0.75104000  0.39571000  1.0 0.1396317679
H  H33  1  0.10429000  0.96583000  0.25104000  1.0 0.1396317679
H  H34  1  0.89571000  0.46583000  0.24896000  1.0 0.1396317679
H  H35  1  0.60429000  0.53417000  0.74896000  1.0 0.1396317679
H  H36  1  0.39571000  0.03417000  0.75104000  1.0 0.1396317679
H  H37  1  0.74896000  0.89571000  0.03417000  1.0 0.1396317679
H  H38  1  0.75104000  0.10429000  0.53417000  1.0 0.1396317679
H  H39  1  0.25104000  0.39571000  0.46583000  1.0 0.1396317679
H  H40  1  0.24896000  0.60429000  0.96583000  1.0 0.1396317679
H  H41  1  0.03417000  0.74896000  0.89571000  1.0 0.1396317679
H  H42  1  0.53417000  0.75104000  0.10429000  1.0 0.1396317679
H  H43  1  0.46583000  0.25104000  0.39571000  1.0 0.1396317679
H  H44  1  0.96583000  0.24896000  0.60429000  1.0 0.1396317679
H  H45  1  0.89571000  0.03417000  0.74896000  1.0 0.1396317679
H  H46  1  0.10429000  0.53417000  0.75104000  1.0 0.1396317679
H  H47  1  0.39571000  0.46583000  0.25104000  1.0 0.1396317679
H  H48  1  0.60429000  0.96583000  0.24896000  1.0 0.1396317679
H  H49  1  0.26211000  0.05492000  0.95738000  1.0 0.1396317679
H  H50  1  0.23789000  0.94508000  0.45738000  1.0 0.1396317679
H  H51  1  0.73789000  0.55492000  0.54262000  1.0 0.1396317679
H  H52  1  0.76211000  0.44508000  0.04262000  1.0 0.1396317679
H  H53  1  0.95738000  0.26211000  0.05492000  1.0 0.1396317679
H  H54  1  0.45738000  0.23789000  0.94508000  1.0 0.1396317679
H  H55  1  0.54262000  0.73789000  0.55492000  1.0 0.1396317679
H  H56  1  0.04262000  0.76211000  0.44508000  1.0 0.1396317679
H  H57  1  0.05492000  0.95738000  0.26211000  1.0 0.1396317679
H  H58  1  0.94508000  0.45738000  0.23789000  1.0 0.1396317679
H  H59  1  0.55492000  0.54262000  0.73789000  1.0 0.1396317679
H  H60  1  0.44508000  0.04262000  0.76211000  1.0 0.1396317679
H  H61  1  0.73789000  0.94508000  0.04262000  1.0 0.1396317679
H  H62  1  0.76211000  0.05492000  0.54262000  1.0 0.1396317679
H  H63  1  0.26211000  0.44508000  0.45738000  1.0 0.1396317679
H  H64  1  0.23789000  0.55492000  0.95738000  1.0 0.1396317679
H  H65  1  0.04262000  0.73789000  0.94508000  1.0 0.1396317679
H  H66  1  0.54262000  0.76211000  0.05492000  1.0 0.1396317679
H  H67  1  0.45738000  0.26211000  0.44508000  1.0 0.1396317679
H  H68  1  0.95738000  0.23789000  0.55492000  1.0 0.1396317679
H  H69  1  0.94508000  0.04262000  0.73789000  1.0 0.1396317679
H  H70  1  0.05492000  0.54262000  0.76211000  1.0 0.1396317679
H  H71  1  0.44508000  0.45738000  0.26211000  1.0 0.1396317679
H  H72  1  0.55492000  0.95738000  0.23789000  1.0 0.1396317679
H  H73  1  0.37855000  0.11861000  0.00594000  1.0 0.1506582209
H  H74  1  0.12145000  0.88139000  0.50594000  1.0 0.1506582209
H  H75  1  0.62145000  0.61861000  0.49406000  1.0 0.1506582209
H  H76  1  0.87855000  0.38139000  0.99406000  1.0 0.1506582209
H  H77  1  0.00594000  0.37855000  0.11861000  1.0 0.1506582209
H  H78  1  0.50594000  0.12145000  0.88139000  1.0 0.1506582209
H  H79  1  0.49406000  0.62145000  0.61861000  1.0 0.1506582209
H  H80  1  0.99406000  0.87855000  0.38139000  1.0 0.1506582209
H  H81  1  0.11861000  0.00594000  0.37855000  1.0 0.1506582209
H  H82  1  0.88139000  0.50594000  0.12145000  1.0 0.1506582209
H  H83  1  0.61861000  0.49406000  0.62145000  1.0 0.1506582209
H  H84  1  0.38139000  0.99406000  0.87855000  1.0 0.1506582209
H  H85  1  0.62145000  0.88139000  0.99406000  1.0 0.1506582209
H  H86  1  0.87855000  0.11861000  0.49406000  1.0 0.1506582209
H  H87  1  0.37855000  0.38139000  0.50594000  1.0 0.1506582209
H  H88  1  0.12145000  0.61861000  0.00594000  1.0 0.1506582209
H  H89  1  0.99406000  0.62145000  0.88139000  1.0 0.1506582209
H  H90  1  0.49406000  0.87855000  0.11861000  1.0 0.1506582209
H  H91  1  0.50594000  0.37855000  0.38139000  1.0 0.1506582209
H  H92  1  0.00594000  0.12145000  0.61861000  1.0 0.1506582209
H  H93  1  0.88139000  0.99406000  0.62145000  1.0 0.1506582209
H  H94  1  0.11861000  0.49406000  0.87855000  1.0 0.1506582209
H  H95  1  0.38139000  0.50594000  0.37855000  1.0 0.1506582209
H  H96  1  0.61861000  0.00594000  0.12145000  1.0 0.1506582209
H  H97  1  0.31394000  0.19832000  0.00487000  1.0 0.1396317679
H  H98  1  0.18606000  0.80168000  0.50487000  1.0 0.1396317679
H  H99  1  0.68606000  0.69832000  0.49513000  1.0 0.1396317679
H  H100  1  0.81394000  0.30168000  0.99513000  1.0 0.1396317679
H  H101  1  0.00487000  0.31394000  0.19832000  1.0 0.1396317679
H  H102  1  0.50487000  0.18606000  0.80168000  1.0 0.1396317679
H  H103  1  0.49513000  0.68606000  0.69832000  1.0 0.1396317679
H  H104  1  0.99513000  0.81394000  0.30168000  1.0 0.1396317679
H  H105  1  0.19832000  0.00487000  0.31394000  1.0 0.1396317679
H  H106  1  0.80168000  0.50487000  0.18606000  1.0 0.1396317679
H  H107  1  0.69832000  0.49513000  0.68606000  1.0 0.1396317679
H  H108  1  0.30168000  0.99513000  0.81394000  1.0 0.1396317679
H  H109  1  0.68606000  0.80168000  0.99513000  1.0 0.1396317679
H  H110  1  0.81394000  0.19832000  0.49513000  1.0 0.1396317679
H  H111  1  0.31394000  0.30168000  0.50487000  1.0 0.1396317679
H  H112  1  0.18606000  0.69832000  0.00487000  1.0 0.1396317679
H  H113  1  0.99513000  0.68606000  0.80168000  1.0 0.1396317679
H  H114  1  0.49513000  0.81394000  0.19832000  1.0 0.1396317679
H  H115  1  0.50487000  0.31394000  0.30168000  1.0 0.1396317679
H  H116  1  0.00487000  0.18606000  0.69832000  1.0 0.1396317679
H  H117  1  0.80168000  0.99513000  0.68606000  1.0 0.1396317679
H  H118  1  0.19832000  0.49513000  0.81394000  1.0 0.1396317679
H  H119  1  0.30168000  0.50487000  0.31394000  1.0 0.1396317679
H  H120  1  0.69832000  0.00487000  0.18606000  1.0 0.1396317679
H  H121  1  0.36275000  0.20504000  0.01919000  1.0 0.1396317679
H  H122  1  0.13725000  0.79496000  0.51919000  1.0 0.1396317679
H  H123  1  0.63725000  0.70504000  0.48081000  1.0 0.1396317679
H  H124  1  0.86275000  0.29496000  0.98081000  1.0 0.1396317679
H  H125  1  0.01919000  0.36275000  0.20504000  1.0 0.1396317679
H  H126  1  0.51919000  0.13725000  0.79496000  1.0 0.1396317679
H  H127  1  0.48081000  0.63725000  0.70504000  1.0 0.1396317679
H  H128  1  0.98081000  0.86275000  0.29496000  1.0 0.1396317679
H  H129  1  0.20504000  0.01919000  0.36275000  1.0 0.1396317679
H  H130  1  0.79496000  0.51919000  0.13725000  1.0 0.1396317679
H  H131  1  0.70504000  0.48081000  0.63725000  1.0 0.1396317679
H  H132  1  0.29496000  0.98081000  0.86275000  1.0 0.1396317679
H  H133  1  0.63725000  0.79496000  0.98081000  1.0 0.1396317679
H  H134  1  0.86275000  0.20504000  0.48081000  1.0 0.1396317679
H  H135  1  0.36275000  0.29496000  0.51919000  1.0 0.1396317679
H  H136  1  0.13725000  0.70504000  0.01919000  1.0 0.1396317679
H  H137  1  0.98081000  0.63725000  0.79496000  1.0 0.1396317679
H  H138  1  0.48081000  0.86275000  0.20504000  1.0 0.1396317679
H  H139  1  0.51919000  0.36275000  0.29496000  1.0 0.1396317679
H  H140  1  0.01919000  0.13725000  0.70504000  1.0 0.1396317679
H  H141  1  0.79496000  0.98081000  0.63725000  1.0 0.1396317679
H  H142  1  0.20504000  0.48081000  0.86275000  1.0 0.1396317679
H  H143  1  0.29496000  0.51919000  0.36275000  1.0 0.1396317679
H  H144  1  0.70504000  0.01919000  0.13725000  1.0 0.1396317679
H  H145  1  0.38703000  0.95800000  0.11337000  1.0 0.1506582209
H  H146  1  0.11297000  0.04200000  0.61337000  1.0 0.1506582209
H  H147  1  0.61297000  0.45800000  0.38663000  1.0 0.1506582209
H  H148  1  0.88703000  0.54200000  0.88663000  1.0 0.1506582209
H  H149  1  0.11337000  0.38703000  0.95800000  1.0 0.1506582209
H  H150  1  0.61337000  0.11297000  0.04200000  1.0 0.1506582209
H  H151  1  0.38663000  0.61297000  0.45800000  1.0 0.1506582209
H  H152  1  0.88663000  0.88703000  0.54200000  1.0 0.1506582209
H  H153  1  0.95800000  0.11337000  0.38703000  1.0 0.1506582209
H  H154  1  0.04200000  0.61337000  0.11297000  1.0 0.1506582209
H  H155  1  0.45800000  0.38663000  0.61297000  1.0 0.1506582209
H  H156  1  0.54200000  0.88663000  0.88703000  1.0 0.1506582209
H  H157  1  0.61297000  0.04200000  0.88663000  1.0 0.1506582209
H  H158  1  0.88703000  0.95800000  0.38663000  1.0 0.1506582209
H  H159  1  0.38703000  0.54200000  0.61337000  1.0 0.1506582209
H  H160  1  0.11297000  0.45800000  0.11337000  1.0 0.1506582209
H  H161  1  0.88663000  0.61297000  0.04200000  1.0 0.1506582209
H  H162  1  0.38663000  0.88703000  0.95800000  1.0 0.1506582209
H  H163  1  0.61337000  0.38703000  0.54200000  1.0 0.1506582209
H  H164  1  0.11337000  0.11297000  0.45800000  1.0 0.1506582209
H  H165  1  0.04200000  0.88663000  0.61297000  1.0 0.1506582209
H  H166  1  0.95800000  0.38663000  0.88703000  1.0 0.1506582209
H  H167  1  0.54200000  0.61337000  0.38703000  1.0 0.1506582209
H  H168  1  0.45800000  0.11337000  0.11297000  1.0 0.1506582209
H  H169  1  0.32173000  0.95310000  0.19236000  1.0 0.1347910785
H  H170  1  0.17827000  0.04690000  0.69236000  1.0 0.1347910785
H  H171  1  0.67827000  0.45310000  0.30764000  1.0 0.1347910785
H  H172  1  0.82173000  0.54690000  0.80764000  1.0 0.1347910785
H  H173  1  0.19236000  0.32173000  0.95310000  1.0 0.1347910785
H  H174  1  0.69236000  0.17827000  0.04690000  1.0 0.1347910785
H  H175  1  0.30764000  0.67827000  0.45310000  1.0 0.1347910785
H  H176  1  0.80764000  0.82173000  0.54690000  1.0 0.1347910785
H  H177  1  0.95310000  0.19236000  0.32173000  1.0 0.1347910785
H  H178  1  0.04690000  0.69236000  0.17827000  1.0 0.1347910785
H  H179  1  0.45310000  0.30764000  0.67827000  1.0 0.1347910785
H  H180  1  0.54690000  0.80764000  0.82173000  1.0 0.1347910785
H  H181  1  0.67827000  0.04690000  0.80764000  1.0 0.1347910785
H  H182  1  0.82173000  0.95310000  0.30764000  1.0 0.1347910785
H  H183  1  0.32173000  0.54690000  0.69236000  1.0 0.1347910785
H  H184  1  0.17827000  0.45310000  0.19236000  1.0 0.1347910785
H  H185  1  0.80764000  0.67827000  0.04690000  1.0 0.1347910785
H  H186  1  0.30764000  0.82173000  0.95310000  1.0 0.1347910785
H  H187  1  0.69236000  0.32173000  0.54690000  1.0 0.1347910785
H  H188  1  0.19236000  0.17827000  0.45310000  1.0 0.1347910785
H  H189  1  0.04690000  0.80764000  0.67827000  1.0 0.1347910785
H  H190  1  0.95310000  0.30764000  0.82173000  1.0 0.1347910785
H  H191  1  0.54690000  0.69236000  0.32173000  1.0 0.1347910785
H  H192  1  0.45310000  0.19236000  0.17827000  1.0 0.1347910785
H  H193  1  0.37231000  0.95399000  0.20091000  1.0 0.1396317679
H  H194  1  0.12769000  0.04601000  0.70091000  1.0 0.1396317679
H  H195  1  0.62769000  0.45399000  0.29909000  1.0 0.1396317679
H  H196  1  0.87231000  0.54601000  0.79909000  1.0 0.1396317679
H  H197  1  0.20091000  0.37231000  0.95399000  1.0 0.1396317679
H  H198  1  0.70091000  0.12769000  0.04601000  1.0 0.1396317679
H  H199  1  0.29909000  0.62769000  0.45399000  1.0 0.1396317679
H  H200  1  0.79909000  0.87231000  0.54601000  1.0 0.1396317679
H  H201  1  0.95399000  0.20091000  0.37231000  1.0 0.1396317679
H  H202  1  0.04601000  0.70091000  0.12769000  1.0 0.1396317679
H  H203  1  0.45399000  0.29909000  0.62769000  1.0 0.1396317679
H  H204  1  0.54601000  0.79909000  0.87231000  1.0 0.1396317679
H  H205  1  0.62769000  0.04601000  0.79909000  1.0 0.1396317679
H  H206  1  0.87231000  0.95399000  0.29909000  1.0 0.1396317679
H  H207  1  0.37231000  0.54601000  0.70091000  1.0 0.1396317679
H  H208  1  0.12769000  0.45399000  0.20091000  1.0 0.1396317679
H  H209  1  0.79909000  0.62769000  0.04601000  1.0 0.1396317679
H  H210  1  0.29909000  0.87231000  0.95399000  1.0 0.1396317679
H  H211  1  0.70091000  0.37231000  0.54601000  1.0 0.1396317679
H  H212  1  0.20091000  0.12769000  0.45399000  1.0 0.1396317679
H  H213  1  0.04601000  0.79909000  0.62769000  1.0 0.1396317679
H  H214  1  0.95399000  0.29909000  0.87231000  1.0 0.1396317679
H  H215  1  0.54601000  0.70091000  0.37231000  1.0 0.1396317679
H  H216  1  0.45399000  0.20091000  0.12769000  1.0 0.1396317679
H  H217  1  0.26317000  0.96201000  0.04472000  1.0 0.1396317679
H  H218  1  0.23683000  0.03799000  0.54472000  1.0 0.1396317679
H  H219  1  0.73683000  0.46201000  0.45528000  1.0 0.1396317679
H  H220  1  0.76317000  0.53799000  0.95528000  1.0 0.1396317679
H  H221  1  0.04472000  0.26317000  0.96201000  1.0 0.1396317679
H  H222  1  0.54472000  0.23683000  0.03799000  1.0 0.1396317679
H  H223  1  0.45528000  0.73683000  0.46201000  1.0 0.1396317679
H  H224  1  0.95528000  0.76317000  0.53799000  1.0 0.1396317679
H  H225  1  0.96201000  0.04472000  0.26317000  1.0 0.1396317679
H  H226  1  0.03799000  0.54472000  0.23683000  1.0 0.1396317679
H  H227  1  0.46201000  0.45528000  0.73683000  1.0 0.1396317679
H  H228  1  0.53799000  0.95528000  0.76317000  1.0 0.1396317679
H  H229  1  0.73683000  0.03799000  0.95528000  1.0 0.1396317679
H  H230  1  0.76317000  0.96201000  0.45528000  1.0 0.1396317679
H  H231  1  0.26317000  0.53799000  0.54472000  1.0 0.1396317679
H  H232  1  0.23683000  0.46201000  0.04472000  1.0 0.1396317679
H  H233  1  0.95528000  0.73683000  0.03799000  1.0 0.1396317679
H  H234  1  0.45528000  0.76317000  0.96201000  1.0 0.1396317679
H  H235  1  0.54472000  0.26317000  0.53799000  1.0 0.1396317679
H  H236  1  0.04472000  0.23683000  0.46201000  1.0 0.1396317679
H  H237  1  0.03799000  0.95528000  0.73683000  1.0 0.1396317679
H  H238  1  0.96201000  0.45528000  0.76317000  1.0 0.1396317679
H  H239  1  0.53799000  0.54472000  0.26317000  1.0 0.1396317679
H  H240  1  0.46201000  0.04472000  0.23683000  1.0 0.1396317679
H  H241  1  0.25359000  0.95790000  0.09495000  1.0 0.1347910785
H  H242  1  0.24641000  0.04210000  0.59495000  1.0 0.1347910785
H  H243  1  0.74641000  0.45790000  0.40505000  1.0 0.1347910785
H  H244  1  0.75359000  0.54210000  0.90505000  1.0 0.1347910785
H  H245  1  0.09495000  0.25359000  0.95790000  1.0 0.1347910785
H  H246  1  0.59495000  0.24641000  0.04210000  1.0 0.1347910785
H  H247  1  0.40505000  0.74641000  0.45790000  1.0 0.1347910785
H  H248  1  0.90505000  0.75359000  0.54210000  1.0 0.1347910785
H  H249  1  0.95790000  0.09495000  0.25359000  1.0 0.1347910785
H  H250  1  0.04210000  0.59495000  0.24641000  1.0 0.1347910785
H  H251  1  0.45790000  0.40505000  0.74641000  1.0 0.1347910785
H  H252  1  0.54210000  0.90505000  0.75359000  1.0 0.1347910785
H  H253  1  0.74641000  0.04210000  0.90505000  1.0 0.1347910785
H  H254  1  0.75359000  0.95790000  0.40505000  1.0 0.1347910785
H  H255  1  0.25359000  0.54210000  0.59495000  1.0 0.1347910785
H  H256  1  0.24641000  0.45790000  0.09495000  1.0 0.1347910785
H  H257  1  0.90505000  0.74641000  0.04210000  1.0 0.1347910785
H  H258  1  0.40505000  0.75359000  0.95790000  1.0 0.1347910785
H  H259  1  0.59495000  0.25359000  0.54210000  1.0 0.1347910785
H  H260  1  0.09495000  0.24641000  0.45790000  1.0 0.1347910785
H  H261  1  0.04210000  0.90505000  0.74641000  1.0 0.1347910785
H  H262  1  0.95790000  0.40505000  0.75359000  1.0 0.1347910785
H  H263  1  0.54210000  0.59495000  0.25359000  1.0 0.1347910785
H  H264  1  0.45790000  0.09495000  0.24641000  1.0 0.1347910785
H  H265  1  0.35047000  0.96143000  0.06131000  1.0 0.1506582209
H  H266  1  0.14953000  0.03857000  0.56131000  1.0 0.1506582209
H  H267  1  0.64953000  0.46143000  0.43869000  1.0 0.1506582209
H  H268  1  0.85047000  0.53857000  0.93869000  1.0 0.1506582209
H  H269  1  0.06131000  0.35047000  0.96143000  1.0 0.1506582209
H  H270  1  0.56131000  0.14953000  0.03857000  1.0 0.1506582209
H  H271  1  0.43869000  0.64953000  0.46143000  1.0 0.1506582209
H  H272  1  0.93869000  0.85047000  0.53857000  1.0 0.1506582209
H  H273  1  0.96143000  0.06131000  0.35047000  1.0 0.1506582209
H  H274  1  0.03857000  0.56131000  0.14953000  1.0 0.1506582209
H  H275  1  0.46143000  0.43869000  0.64953000  1.0 0.1506582209
H  H276  1  0.53857000  0.93869000  0.85047000  1.0 0.1506582209
H  H277  1  0.64953000  0.03857000  0.93869000  1.0 0.1506582209
H  H278  1  0.85047000  0.96143000  0.43869000  1.0 0.1506582209
H  H279  1  0.35047000  0.53857000  0.56131000  1.0 0.1506582209
H  H280  1  0.14953000  0.46143000  0.06131000  1.0 0.1506582209
H  H281  1  0.93869000  0.64953000  0.03857000  1.0 0.1506582209
H  H282  1  0.43869000  0.85047000  0.96143000  1.0 0.1506582209
H  H283  1  0.56131000  0.35047000  0.53857000  1.0 0.1506582209
H  H284  1  0.06131000  0.14953000  0.46143000  1.0 0.1506582209
H  H285  1  0.03857000  0.93869000  0.64953000  1.0 0.1506582209
H  H286  1  0.96143000  0.43869000  0.85047000  1.0 0.1506582209
H  H287  1  0.53857000  0.56131000  0.35047000  1.0 0.1506582209
H  H288  1  0.46143000  0.06131000  0.14953000  1.0 0.1506582209
H  H289  1  0.21973000  0.00268000  0.17521000  1.0 0.1187906547
H  H290  1  0.28027000  0.99732000  0.67521000  1.0 0.1187906547
H  H291  1  0.78027000  0.50268000  0.32479000  1.0 0.1187906547
H  H292  1  0.71973000  0.49732000  0.82479000  1.0 0.1187906547
H  H293  1  0.17521000  0.21973000  0.00268000  1.0 0.1187906547
H  H294  1  0.67521000  0.28027000  0.99732000  1.0 0.1187906547
H  H295  1  0.32479000  0.78027000  0.50268000  1.0 0.1187906547
H  H296  1  0.82479000  0.71973000  0.49732000  1.0 0.1187906547
H  H297  1  0.00268000  0.17521000  0.21973000  1.0 0.1187906547
H  H298  1  0.99732000  0.67521000  0.28027000  1.0 0.1187906547
H  H299  1  0.50268000  0.32479000  0.78027000  1.0 0.1187906547
H  H300  1  0.49732000  0.82479000  0.71973000  1.0 0.1187906547
H  H301  1  0.78027000  0.99732000  0.82479000  1.0 0.1187906547
H  H302  1  0.71973000  0.00268000  0.32479000  1.0 0.1187906547
H  H303  1  0.21973000  0.49732000  0.67521000  1.0 0.1187906547
H  H304  1  0.28027000  0.50268000  0.17521000  1.0 0.1187906547
H  H305  1  0.82479000  0.78027000  0.99732000  1.0 0.1187906547
H  H306  1  0.32479000  0.71973000  0.00268000  1.0 0.1187906547
H  H307  1  0.67521000  0.21973000  0.49732000  1.0 0.1187906547
H  H308  1  0.17521000  0.28027000  0.50268000  1.0 0.1187906547
H  H309  1  0.99732000  0.82479000  0.78027000  1.0 0.1187906547
H  H310  1  0.00268000  0.32479000  0.71973000  1.0 0.1187906547
H  H311  1  0.49732000  0.67521000  0.21973000  1.0 0.1187906547
H  H312  1  0.50268000  0.17521000  0.28027000  1.0 0.1187906547
H  H313  1  0.25853000  0.99684000  0.14215000  1.0 0.1396317679
H  H314  1  0.24147000  0.00316000  0.64215000  1.0 0.1396317679
H  H315  1  0.74147000  0.49684000  0.35785000  1.0 0.1396317679
H  H316  1  0.75853000  0.50316000  0.85785000  1.0 0.1396317679
H  H317  1  0.14215000  0.25853000  0.99684000  1.0 0.1396317679
H  H318  1  0.64215000  0.24147000  0.00316000  1.0 0.1396317679
H  H319  1  0.35785000  0.74147000  0.49684000  1.0 0.1396317679
H  H320  1  0.85785000  0.75853000  0.50316000  1.0 0.1396317679
H  H321  1  0.99684000  0.14215000  0.25853000  1.0 0.1396317679
H  H322  1  0.00316000  0.64215000  0.24147000  1.0 0.1396317679
H  H323  1  0.49684000  0.35785000  0.74147000  1.0 0.1396317679
H  H324  1  0.50316000  0.85785000  0.75853000  1.0 0.1396317679
H  H325  1  0.74147000  0.00316000  0.85785000  1.0 0.1396317679
H  H326  1  0.75853000  0.99684000  0.35785000  1.0 0.1396317679
H  H327  1  0.25853000  0.50316000  0.64215000  1.0 0.1396317679
H  H328  1  0.24147000  0.49684000  0.14215000  1.0 0.1396317679
H  H329  1  0.85785000  0.74147000  0.00316000  1.0 0.1396317679
H  H330  1  0.35785000  0.75853000  0.99684000  1.0 0.1396317679
H  H331  1  0.64215000  0.25853000  0.50316000  1.0 0.1396317679
H  H332  1  0.14215000  0.24147000  0.49684000  1.0 0.1396317679
H  H333  1  0.00316000  0.85785000  0.74147000  1.0 0.1396317679
H  H334  1  0.99684000  0.35785000  0.75853000  1.0 0.1396317679
H  H335  1  0.50316000  0.64215000  0.25853000  1.0 0.1396317679
H  H336  1  0.49684000  0.14215000  0.24147000  1.0 0.1396317679
H  H337  1  0.27732000  0.91781000  0.17818000  1.0 0.1396317679
H  H338  1  0.22268000  0.08219000  0.67818000  1.0 0.1396317679
H  H339  1  0.72268000  0.41781000  0.32182000  1.0 0.1396317679
H  H340  1  0.77732000  0.58219000  0.82182000  1.0 0.1396317679
H  H341  1  0.17818000  0.27732000  0.91781000  1.0 0.1396317679
H  H342  1  0.67818000  0.22268000  0.08219000  1.0 0.1396317679
H  H343  1  0.32182000  0.72268000  0.41781000  1.0 0.1396317679
H  H344  1  0.82182000  0.77732000  0.58219000  1.0 0.1396317679
H  H345  1  0.91781000  0.17818000  0.27732000  1.0 0.1396317679
H  H346  1  0.08219000  0.67818000  0.22268000  1.0 0.1396317679
H  H347  1  0.41781000  0.32182000  0.72268000  1.0 0.1396317679
H  H348  1  0.58219000  0.82182000  0.77732000  1.0 0.1396317679
H  H349  1  0.72268000  0.08219000  0.82182000  1.0 0.1396317679
H  H350  1  0.77732000  0.91781000  0.32182000  1.0 0.1396317679
H  H351  1  0.27732000  0.58219000  0.67818000  1.0 0.1396317679
H  H352  1  0.22268000  0.41781000  0.17818000  1.0 0.1396317679
H  H353  1  0.82182000  0.72268000  0.08219000  1.0 0.1396317679
H  H354  1  0.32182000  0.77732000  0.91781000  1.0 0.1396317679
H  H355  1  0.67818000  0.27732000  0.58219000  1.0 0.1396317679
H  H356  1  0.17818000  0.22268000  0.41781000  1.0 0.1396317679
H  H357  1  0.08219000  0.82182000  0.72268000  1.0 0.1396317679
H  H358  1  0.91781000  0.32182000  0.77732000  1.0 0.1396317679
H  H359  1  0.58219000  0.67818000  0.27732000  1.0 0.1396317679
H  H360  1  0.41781000  0.17818000  0.22268000  1.0 0.1396317679
H  H361  1  0.23853000  0.92365000  0.21124000  1.0 0.1187906547
H  H362  1  0.26147000  0.07635000  0.71124000  1.0 0.1187906547
H  H363  1  0.76147000  0.42365000  0.28876000  1.0 0.1187906547
H  H364  1  0.73853000  0.57635000  0.78876000  1.0 0.1187906547
H  H365  1  0.21124000  0.23853000  0.92365000  1.0 0.1187906547
H  H366  1  0.71124000  0.26147000  0.07635000  1.0 0.1187906547
H  H367  1  0.28876000  0.76147000  0.42365000  1.0 0.1187906547
H  H368  1  0.78876000  0.73853000  0.57635000  1.0 0.1187906547
H  H369  1  0.92365000  0.21124000  0.23853000  1.0 0.1187906547
H  H370  1  0.07635000  0.71124000  0.26147000  1.0 0.1187906547
H  H371  1  0.42365000  0.28876000  0.76147000  1.0 0.1187906547
H  H372  1  0.57635000  0.78876000  0.73853000  1.0 0.1187906547
H  H373  1  0.76147000  0.07635000  0.78876000  1.0 0.1187906547
H  H374  1  0.73853000  0.92365000  0.28876000  1.0 0.1187906547
H  H375  1  0.23853000  0.57635000  0.71124000  1.0 0.1187906547
H  H376  1  0.26147000  0.42365000  0.21124000  1.0 0.1187906547
H  H377  1  0.78876000  0.76147000  0.07635000  1.0 0.1187906547
H  H378  1  0.28876000  0.73853000  0.92365000  1.0 0.1187906547
H  H379  1  0.71124000  0.23853000  0.57635000  1.0 0.1187906547
H  H380  1  0.21124000  0.26147000  0.42365000  1.0 0.1187906547
H  H381  1  0.07635000  0.78876000  0.76147000  1.0 0.1187906547
H  H382  1  0.92365000  0.28876000  0.73853000  1.0 0.1187906547
H  H383  1  0.57635000  0.71124000  0.23853000  1.0 0.1187906547
H  H384  1  0.42365000  0.21124000  0.26147000  1.0 0.1187906547
H  H385  1  0.28647000  0.18847000  0.94629000  1.0 0.1506582209
H  H386  1  0.21353000  0.81153000  0.44629000  1.0 0.1506582209
H  H387  1  0.71353000  0.68847000  0.55371000  1.0 0.1506582209
H  H388  1  0.78647000  0.31153000  0.05371000  1.0 0.1506582209
H  H389  1  0.94629000  0.28647000  0.18847000  1.0 0.1506582209
H  H390  1  0.44629000  0.21353000  0.81153000  1.0 0.1506582209
H  H391  1  0.55371000  0.71353000  0.68847000  1.0 0.1506582209
H  H392  1  0.05371000  0.78647000  0.31153000  1.0 0.1506582209
H  H393  1  0.18847000  0.94629000  0.28647000  1.0 0.1506582209
H  H394  1  0.81153000  0.44629000  0.21353000  1.0 0.1506582209
H  H395  1  0.68847000  0.55371000  0.71353000  1.0 0.1506582209
H  H396  1  0.31153000  0.05371000  0.78647000  1.0 0.1506582209
H  H397  1  0.71353000  0.81153000  0.05371000  1.0 0.1506582209
H  H398  1  0.78647000  0.18847000  0.55371000  1.0 0.1506582209
H  H399  1  0.28647000  0.31153000  0.44629000  1.0 0.1506582209
H  H400  1  0.21353000  0.68847000  0.94629000  1.0 0.1506582209
H  H401  1  0.05371000  0.71353000  0.81153000  1.0 0.1506582209
H  H402  1  0.55371000  0.78647000  0.18847000  1.0 0.1506582209
H  H403  1  0.44629000  0.28647000  0.31153000  1.0 0.1506582209
H  H404  1  0.94629000  0.21353000  0.68847000  1.0 0.1506582209
H  H405  1  0.81153000  0.05371000  0.71353000  1.0 0.1506582209
H  H406  1  0.18847000  0.55371000  0.78647000  1.0 0.1506582209
H  H407  1  0.31153000  0.44629000  0.28647000  1.0 0.1506582209
H  H408  1  0.68847000  0.94629000  0.21353000  1.0 0.1506582209
H  H409  1  0.24749000  0.22111000  0.93936000  1.0 0.1187906547
H  H410  1  0.25251000  0.77889000  0.43936000  1.0 0.1187906547
H  H411  1  0.75251000  0.72111000  0.56064000  1.0 0.1187906547
H  H412  1  0.74749000  0.27889000  0.06064000  1.0 0.1187906547
H  H413  1  0.93936000  0.24749000  0.22111000  1.0 0.1187906547
H  H414  1  0.43936000  0.25251000  0.77889000  1.0 0.1187906547
H  H415  1  0.56064000  0.75251000  0.72111000  1.0 0.1187906547
H  H416  1  0.06064000  0.74749000  0.27889000  1.0 0.1187906547
H  H417  1  0.22111000  0.93936000  0.24749000  1.0 0.1187906547
H  H418  1  0.77889000  0.43936000  0.25251000  1.0 0.1187906547
H  H419  1  0.72111000  0.56064000  0.75251000  1.0 0.1187906547
H  H420  1  0.27889000  0.06064000  0.74749000  1.0 0.1187906547
H  H421  1  0.75251000  0.77889000  0.06064000  1.0 0.1187906547
H  H422  1  0.74749000  0.22111000  0.56064000  1.0 0.1187906547
H  H423  1  0.24749000  0.27889000  0.43936000  1.0 0.1187906547
H  H424  1  0.25251000  0.72111000  0.93936000  1.0 0.1187906547
H  H425  1  0.06064000  0.75251000  0.77889000  1.0 0.1187906547
H  H426  1  0.56064000  0.74749000  0.22111000  1.0 0.1187906547
H  H427  1  0.43936000  0.24749000  0.27889000  1.0 0.1187906547
H  H428  1  0.93936000  0.25251000  0.72111000  1.0 0.1187906547
H  H429  1  0.77889000  0.06064000  0.75251000  1.0 0.1187906547
H  H430  1  0.22111000  0.56064000  0.74749000  1.0 0.1187906547
H  H431  1  0.27889000  0.43936000  0.24749000  1.0 0.1187906547
H  H432  1  0.72111000  0.93936000  0.25251000  1.0 0.1187906547
H  H433  1  0.20269000  0.18155000  0.00512000  1.0 0.1187906547
H  H434  1  0.29731000  0.81845000  0.50512000  1.0 0.1187906547
H  H435  1  0.79731000  0.68155000  0.49488000  1.0 0.1187906547
H  H436  1  0.70269000  0.31845000  0.99488000  1.0 0.1187906547
H  H437  1  0.00512000  0.20269000  0.18155000  1.0 0.1187906547
H  H438  1  0.50512000  0.29731000  0.81845000  1.0 0.1187906547
H  H439  1  0.49488000  0.79731000  0.68155000  1.0 0.1187906547
H  H440  1  0.99488000  0.70269000  0.31845000  1.0 0.1187906547
H  H441  1  0.18155000  0.00512000  0.20269000  1.0 0.1187906547
H  H442  1  0.81845000  0.50512000  0.29731000  1.0 0.1187906547
H  H443  1  0.68155000  0.49488000  0.79731000  1.0 0.1187906547
H  H444  1  0.31845000  0.99488000  0.70269000  1.0 0.1187906547
H  H445  1  0.79731000  0.81845000  0.99488000  1.0 0.1187906547
H  H446  1  0.70269000  0.18155000  0.49488000  1.0 0.1187906547
H  H447  1  0.20269000  0.31845000  0.50512000  1.0 0.1187906547
H  H448  1  0.29731000  0.68155000  0.00512000  1.0 0.1187906547
H  H449  1  0.99488000  0.79731000  0.81845000  1.0 0.1187906547
H  H450  1  0.49488000  0.70269000  0.18155000  1.0 0.1187906547
H  H451  1  0.50512000  0.20269000  0.31845000  1.0 0.1187906547
H  H452  1  0.00512000  0.29731000  0.68155000  1.0 0.1187906547
H  H453  1  0.81845000  0.99488000  0.79731000  1.0 0.1187906547
H  H454  1  0.18155000  0.49488000  0.70269000  1.0 0.1187906547
H  H455  1  0.31845000  0.50512000  0.20269000  1.0 0.1187906547
H  H456  1  0.68155000  0.00512000  0.29731000  1.0 0.1187906547
H  H457  1  0.24166000  0.14892000  0.01205000  1.0 0.1396317679
H  H458  1  0.25834000  0.85108000  0.51205000  1.0 0.1396317679
H  H459  1  0.75834000  0.64892000  0.48795000  1.0 0.1396317679
H  H460  1  0.74166000  0.35108000  0.98795000  1.0 0.1396317679
H  H461  1  0.01205000  0.24166000  0.14892000  1.0 0.1396317679
H  H462  1  0.51205000  0.25834000  0.85108000  1.0 0.1396317679
H  H463  1  0.48795000  0.75834000  0.64892000  1.0 0.1396317679
H  H464  1  0.98795000  0.74166000  0.35108000  1.0 0.1396317679
H  H465  1  0.14892000  0.01205000  0.24166000  1.0 0.1396317679
H  H466  1  0.85108000  0.51205000  0.25834000  1.0 0.1396317679
H  H467  1  0.64892000  0.48795000  0.75834000  1.0 0.1396317679
H  H468  1  0.35108000  0.98795000  0.74166000  1.0 0.1396317679
H  H469  1  0.75834000  0.85108000  0.98795000  1.0 0.1396317679
H  H470  1  0.74166000  0.14892000  0.48795000  1.0 0.1396317679
H  H471  1  0.24166000  0.35108000  0.51205000  1.0 0.1396317679
H  H472  1  0.25834000  0.64892000  0.01205000  1.0 0.1396317679
H  H473  1  0.98795000  0.75834000  0.85108000  1.0 0.1396317679
H  H474  1  0.48795000  0.74166000  0.14892000  1.0 0.1396317679
H  H475  1  0.51205000  0.24166000  0.35108000  1.0 0.1396317679
H  H476  1  0.01205000  0.25834000  0.64892000  1.0 0.1396317679
H  H477  1  0.85108000  0.98795000  0.75834000  1.0 0.1396317679
H  H478  1  0.14892000  0.48795000  0.74166000  1.0 0.1396317679
H  H479  1  0.35108000  0.51205000  0.24166000  1.0 0.1396317679
H  H480  1  0.64892000  0.01205000  0.25834000  1.0 0.1396317679
C  C1  1  0.31190000  0.02670000  0.96830000  1.0 0.5785584045
C  C2  1  0.18810000  0.97330000  0.46830000  1.0 0.5785584045
C  C3  1  0.68810000  0.52670000  0.53170000  1.0 0.5785584045
C  C4  1  0.81190000  0.47330000  0.03170000  1.0 0.5785584045
C  C5  1  0.96830000  0.31190000  0.02670000  1.0 0.5785584045
C  C6  1  0.46830000  0.18810000  0.97330000  1.0 0.5785584045
C  C7  1  0.53170000  0.68810000  0.52670000  1.0 0.5785584045
C  C8  1  0.03170000  0.81190000  0.47330000  1.0 0.5785584045
C  C9  1  0.02670000  0.96830000  0.31190000  1.0 0.5785584045
C  C10  1  0.97330000  0.46830000  0.18810000  1.0 0.5785584045
C  C11  1  0.52670000  0.53170000  0.68810000  1.0 0.5785584045
C  C12  1  0.47330000  0.03170000  0.81190000  1.0 0.5785584045
C  C13  1  0.68810000  0.97330000  0.03170000  1.0 0.5785584045
C  C14  1  0.81190000  0.02670000  0.53170000  1.0 0.5785584045
C  C15  1  0.31190000  0.47330000  0.46830000  1.0 0.5785584045
C  C16  1  0.18810000  0.52670000  0.96830000  1.0 0.5785584045
C  C17  1  0.03170000  0.68810000  0.97330000  1.0 0.5785584045
C  C18  1  0.53170000  0.81190000  0.02670000  1.0 0.5785584045
C  C19  1  0.46830000  0.31190000  0.47330000  1.0 0.5785584045
C  C20  1  0.96830000  0.18810000  0.52670000  1.0 0.5785584045
C  C21  1  0.97330000  0.03170000  0.68810000  1.0 0.5785584045
C  C22  1  0.02670000  0.53170000  0.81190000  1.0 0.5785584045
C  C23  1  0.47330000  0.46830000  0.31190000  1.0 0.5785584045
C  C24  1  0.52670000  0.96830000  0.18810000  1.0 0.5785584045
C  C25  1  0.30452000  0.05703000  0.97132000  1.0 -0.0756798365
C  C26  1  0.19548000  0.94297000  0.47132000  1.0 -0.0756798365
C  C27  1  0.69548000  0.55703000  0.52868000  1.0 -0.0756798365
C  C28  1  0.80452000  0.44297000  0.02868000  1.0 -0.0756798365
C  C29  1  0.97132000  0.30452000  0.05703000  1.0 -0.0756798365
C  C30  1  0.47132000  0.19548000  0.94297000  1.0 -0.0756798365
C  C31  1  0.52868000  0.69548000  0.55703000  1.0 -0.0756798365
C  C32  1  0.02868000  0.80452000  0.44297000  1.0 -0.0756798365
C  C33  1  0.05703000  0.97132000  0.30452000  1.0 -0.0756798365
C  C34  1  0.94297000  0.47132000  0.19548000  1.0 -0.0756798365
C  C35  1  0.55703000  0.52868000  0.69548000  1.0 -0.0756798365
C  C36  1  0.44297000  0.02868000  0.80452000  1.0 -0.0756798365
C  C37  1  0.69548000  0.94297000  0.02868000  1.0 -0.0756798365
C  C38  1  0.80452000  0.05703000  0.52868000  1.0 -0.0756798365
C  C39  1  0.30452000  0.44297000  0.47132000  1.0 -0.0756798365
C  C40  1  0.19548000  0.55703000  0.97132000  1.0 -0.0756798365
C  C41  1  0.02868000  0.69548000  0.94297000  1.0 -0.0756798365
C  C42  1  0.52868000  0.80452000  0.05703000  1.0 -0.0756798365
C  C43  1  0.47132000  0.30452000  0.44297000  1.0 -0.0756798365
C  C44  1  0.97132000  0.19548000  0.55703000  1.0 -0.0756798365
C  C45  1  0.94297000  0.02868000  0.69548000  1.0 -0.0756798365
C  C46  1  0.05703000  0.52868000  0.80452000  1.0 -0.0756798365
C  C47  1  0.44297000  0.47132000  0.30452000  1.0 -0.0756798365
C  C48  1  0.55703000  0.97132000  0.19548000  1.0 -0.0756798365
C  C49  1  0.32581000  0.07570000  0.98258000  1.0 -0.0997143606
C  C50  1  0.17419000  0.92430000  0.48258000  1.0 -0.0997143606
C  C51  1  0.67419000  0.57570000  0.51742000  1.0 -0.0997143606
C  C52  1  0.82581000  0.42430000  0.01742000  1.0 -0.0997143606
C  C53  1  0.98258000  0.32581000  0.07570000  1.0 -0.0997143606
C  C54  1  0.48258000  0.17419000  0.92430000  1.0 -0.0997143606
C  C55  1  0.51742000  0.67419000  0.57570000  1.0 -0.0997143606
C  C56  1  0.01742000  0.82581000  0.42430000  1.0 -0.0997143606
C  C57  1  0.07570000  0.98258000  0.32581000  1.0 -0.0997143606
C  C58  1  0.92430000  0.48258000  0.17419000  1.0 -0.0997143606
C  C59  1  0.57570000  0.51742000  0.67419000  1.0 -0.0997143606
C  C60  1  0.42430000  0.01742000  0.82581000  1.0 -0.0997143606
C  C61  1  0.67419000  0.92430000  0.01742000  1.0 -0.0997143606
C  C62  1  0.82581000  0.07570000  0.51742000  1.0 -0.0997143606
C  C63  1  0.32581000  0.42430000  0.48258000  1.0 -0.0997143606
C  C64  1  0.17419000  0.57570000  0.98258000  1.0 -0.0997143606
C  C65  1  0.01742000  0.67419000  0.92430000  1.0 -0.0997143606
C  C66  1  0.51742000  0.82581000  0.07570000  1.0 -0.0997143606
C  C67  1  0.48258000  0.32581000  0.42430000  1.0 -0.0997143606
C  C68  1  0.98258000  0.17419000  0.57570000  1.0 -0.0997143606
C  C69  1  0.92430000  0.01742000  0.67419000  1.0 -0.0997143606
C  C70  1  0.07570000  0.51742000  0.82581000  1.0 -0.0997143606
C  C71  1  0.42430000  0.48258000  0.32581000  1.0 -0.0997143606
C  C72  1  0.57570000  0.98258000  0.17419000  1.0 -0.0997143606
C  C73  1  0.31923000  0.10504000  0.98760000  1.0 -0.018628517
C  C74  1  0.18077000  0.89496000  0.48760000  1.0 -0.018628517
C  C75  1  0.68077000  0.60504000  0.51240000  1.0 -0.018628517
C  C76  1  0.81923000  0.39496000  0.01240000  1.0 -0.018628517
C  C77  1  0.98760000  0.31923000  0.10504000  1.0 -0.018628517
C  C78  1  0.48760000  0.18077000  0.89496000  1.0 -0.018628517
C  C79  1  0.51240000  0.68077000  0.60504000  1.0 -0.018628517
C  C80  1  0.01240000  0.81923000  0.39496000  1.0 -0.018628517
C  C81  1  0.10504000  0.98760000  0.31923000  1.0 -0.018628517
C  C82  1  0.89496000  0.48760000  0.18077000  1.0 -0.018628517
C  C83  1  0.60504000  0.51240000  0.68077000  1.0 -0.018628517
C  C84  1  0.39496000  0.01240000  0.81923000  1.0 -0.018628517
C  C85  1  0.68077000  0.89496000  0.01240000  1.0 -0.018628517
C  C86  1  0.81923000  0.10504000  0.51240000  1.0 -0.018628517
C  C87  1  0.31923000  0.39496000  0.48760000  1.0 -0.018628517
C  C88  1  0.18077000  0.60504000  0.98760000  1.0 -0.018628517
C  C89  1  0.01240000  0.68077000  0.89496000  1.0 -0.018628517
C  C90  1  0.51240000  0.81923000  0.10504000  1.0 -0.018628517
C  C91  1  0.48760000  0.31923000  0.39496000  1.0 -0.018628517
C  C92  1  0.98760000  0.18077000  0.60504000  1.0 -0.018628517
C  C93  1  0.89496000  0.01240000  0.68077000  1.0 -0.018628517
C  C94  1  0.10504000  0.51240000  0.81923000  1.0 -0.018628517
C  C95  1  0.39496000  0.48760000  0.31923000  1.0 -0.018628517
C  C96  1  0.60504000  0.98760000  0.18077000  1.0 -0.018628517
C  C97  1  0.29137000  0.11569000  0.98140000  1.0 0.1506582209
C  C98  1  0.20863000  0.88431000  0.48140000  1.0 0.1506582209
C  C99  1  0.70863000  0.61569000  0.51860000  1.0 0.1506582209
C  C100  1  0.79137000  0.38431000  0.01860000  1.0 0.1506582209
C  C101  1  0.98140000  0.29137000  0.11569000  1.0 0.1506582209
C  C102  1  0.48140000  0.20863000  0.88431000  1.0 0.1506582209
C  C103  1  0.51860000  0.70863000  0.61569000  1.0 0.1506582209
C  C104  1  0.01860000  0.79137000  0.38431000  1.0 0.1506582209
C  C105  1  0.11569000  0.98140000  0.29137000  1.0 0.1506582209
C  C106  1  0.88431000  0.48140000  0.20863000  1.0 0.1506582209
C  C107  1  0.61569000  0.51860000  0.70863000  1.0 0.1506582209
C  C108  1  0.38431000  0.01860000  0.79137000  1.0 0.1506582209
C  C109  1  0.70863000  0.88431000  0.01860000  1.0 0.1506582209
C  C110  1  0.79137000  0.11569000  0.51860000  1.0 0.1506582209
C  C111  1  0.29137000  0.38431000  0.48140000  1.0 0.1506582209
C  C112  1  0.20863000  0.61569000  0.98140000  1.0 0.1506582209
C  C113  1  0.01860000  0.70863000  0.88431000  1.0 0.1506582209
C  C114  1  0.51860000  0.79137000  0.11569000  1.0 0.1506582209
C  C115  1  0.48140000  0.29137000  0.38431000  1.0 0.1506582209
C  C116  1  0.98140000  0.20863000  0.61569000  1.0 0.1506582209
C  C117  1  0.88431000  0.01860000  0.70863000  1.0 0.1506582209
C  C118  1  0.11569000  0.51860000  0.79137000  1.0 0.1506582209
C  C119  1  0.38431000  0.48140000  0.29137000  1.0 0.1506582209
C  C120  1  0.61569000  0.98140000  0.20863000  1.0 0.1506582209
C  C121  1  0.27008000  0.09701000  0.97010000  1.0 -0.1983962319
C  C122  1  0.22992000  0.90299000  0.47010000  1.0 -0.1983962319
C  C123  1  0.72992000  0.59701000  0.52990000  1.0 -0.1983962319
C  C124  1  0.77008000  0.40299000  0.02990000  1.0 -0.1983962319
C  C125  1  0.97010000  0.27008000  0.09701000  1.0 -0.1983962319
C  C126  1  0.47010000  0.22992000  0.90299000  1.0 -0.1983962319
C  C127  1  0.52990000  0.72992000  0.59701000  1.0 -0.1983962319
C  C128  1  0.02990000  0.77008000  0.40299000  1.0 -0.1983962319
C  C129  1  0.09701000  0.97010000  0.27008000  1.0 -0.1983962319
C  C130  1  0.90299000  0.47010000  0.22992000  1.0 -0.1983962319
C  C131  1  0.59701000  0.52990000  0.72992000  1.0 -0.1983962319
C  C132  1  0.40299000  0.02990000  0.77008000  1.0 -0.1983962319
C  C133  1  0.72992000  0.90299000  0.02990000  1.0 -0.1983962319
C  C134  1  0.77008000  0.09701000  0.52990000  1.0 -0.1983962319
C  C135  1  0.27008000  0.40299000  0.47010000  1.0 -0.1983962319
C  C136  1  0.22992000  0.59701000  0.97010000  1.0 -0.1983962319
C  C137  1  0.02990000  0.72992000  0.90299000  1.0 -0.1983962319
C  C138  1  0.52990000  0.77008000  0.09701000  1.0 -0.1983962319
C  C139  1  0.47010000  0.27008000  0.40299000  1.0 -0.1983962319
C  C140  1  0.97010000  0.22992000  0.59701000  1.0 -0.1983962319
C  C141  1  0.90299000  0.02990000  0.72992000  1.0 -0.1983962319
C  C142  1  0.09701000  0.52990000  0.77008000  1.0 -0.1983962319
C  C143  1  0.40299000  0.47010000  0.27008000  1.0 -0.1983962319
C  C144  1  0.59701000  0.97010000  0.22992000  1.0 -0.1983962319
C  C145  1  0.27666000  0.06768000  0.96508000  1.0 -0.0516863563
C  C146  1  0.22334000  0.93232000  0.46508000  1.0 -0.0516863563
C  C147  1  0.72334000  0.56768000  0.53492000  1.0 -0.0516863563
C  C148  1  0.77666000  0.43232000  0.03492000  1.0 -0.0516863563
C  C149  1  0.96508000  0.27666000  0.06768000  1.0 -0.0516863563
C  C150  1  0.46508000  0.22334000  0.93232000  1.0 -0.0516863563
C  C151  1  0.53492000  0.72334000  0.56768000  1.0 -0.0516863563
C  C152  1  0.03492000  0.77666000  0.43232000  1.0 -0.0516863563
C  C153  1  0.06768000  0.96508000  0.27666000  1.0 -0.0516863563
C  C154  1  0.93232000  0.46508000  0.22334000  1.0 -0.0516863563
C  C155  1  0.56768000  0.53492000  0.72334000  1.0 -0.0516863563
C  C156  1  0.43232000  0.03492000  0.77666000  1.0 -0.0516863563
C  C157  1  0.72334000  0.93232000  0.03492000  1.0 -0.0516863563
C  C158  1  0.77666000  0.06768000  0.53492000  1.0 -0.0516863563
C  C159  1  0.27666000  0.43232000  0.46508000  1.0 -0.0516863563
C  C160  1  0.22334000  0.56768000  0.96508000  1.0 -0.0516863563
C  C161  1  0.03492000  0.72334000  0.93232000  1.0 -0.0516863563
C  C162  1  0.53492000  0.77666000  0.06768000  1.0 -0.0516863563
C  C163  1  0.46508000  0.27666000  0.43232000  1.0 -0.0516863563
C  C164  1  0.96508000  0.22334000  0.56768000  1.0 -0.0516863563
C  C165  1  0.93232000  0.03492000  0.72334000  1.0 -0.0516863563
C  C166  1  0.06768000  0.53492000  0.77666000  1.0 -0.0516863563
C  C167  1  0.43232000  0.46508000  0.27666000  1.0 -0.0516863563
C  C168  1  0.56768000  0.96508000  0.22334000  1.0 -0.0516863563
C  C169  1  0.37524000  0.16246000  0.01391000  1.0 -0.0587322639
C  C170  1  0.12476000  0.83754000  0.51391000  1.0 -0.0587322639
C  C171  1  0.62476000  0.66246000  0.48609000  1.0 -0.0587322639
C  C172  1  0.87524000  0.33754000  0.98609000  1.0 -0.0587322639
C  C173  1  0.01391000  0.37524000  0.16246000  1.0 -0.0587322639
C  C174  1  0.51391000  0.12476000  0.83754000  1.0 -0.0587322639
C  C175  1  0.48609000  0.62476000  0.66246000  1.0 -0.0587322639
C  C176  1  0.98609000  0.87524000  0.33754000  1.0 -0.0587322639
C  C177  1  0.16246000  0.01391000  0.37524000  1.0 -0.0587322639
C  C178  1  0.83754000  0.51391000  0.12476000  1.0 -0.0587322639
C  C179  1  0.66246000  0.48609000  0.62476000  1.0 -0.0587322639
C  C180  1  0.33754000  0.98609000  0.87524000  1.0 -0.0587322639
C  C181  1  0.62476000  0.83754000  0.98609000  1.0 -0.0587322639
C  C182  1  0.87524000  0.16246000  0.48609000  1.0 -0.0587322639
C  C183  1  0.37524000  0.33754000  0.51391000  1.0 -0.0587322639
C  C184  1  0.12476000  0.66246000  0.01391000  1.0 -0.0587322639
C  C185  1  0.98609000  0.62476000  0.83754000  1.0 -0.0587322639
C  C186  1  0.48609000  0.87524000  0.16246000  1.0 -0.0587322639
C  C187  1  0.51391000  0.37524000  0.33754000  1.0 -0.0587322639
C  C188  1  0.01391000  0.12476000  0.66246000  1.0 -0.0587322639
C  C189  1  0.83754000  0.98609000  0.62476000  1.0 -0.0587322639
C  C190  1  0.16246000  0.48609000  0.87524000  1.0 -0.0587322639
C  C191  1  0.33754000  0.51391000  0.37524000  1.0 -0.0587322639
C  C192  1  0.66246000  0.01391000  0.12476000  1.0 -0.0587322639
C  C193  1  0.36543000  0.13479000  0.00572000  1.0 -0.0997143606
C  C194  1  0.13457000  0.86521000  0.50572000  1.0 -0.0997143606
C  C195  1  0.63457000  0.63479000  0.49428000  1.0 -0.0997143606
C  C196  1  0.86543000  0.36521000  0.99428000  1.0 -0.0997143606
C  C197  1  0.00572000  0.36543000  0.13479000  1.0 -0.0997143606
C  C198  1  0.50572000  0.13457000  0.86521000  1.0 -0.0997143606
C  C199  1  0.49428000  0.63457000  0.63479000  1.0 -0.0997143606
C  C200  1  0.99428000  0.86543000  0.36521000  1.0 -0.0997143606
C  C201  1  0.13479000  0.00572000  0.36543000  1.0 -0.0997143606
C  C202  1  0.86521000  0.50572000  0.13457000  1.0 -0.0997143606
C  C203  1  0.63479000  0.49428000  0.63457000  1.0 -0.0997143606
C  C204  1  0.36521000  0.99428000  0.86543000  1.0 -0.0997143606
C  C205  1  0.63457000  0.86521000  0.99428000  1.0 -0.0997143606
C  C206  1  0.86543000  0.13479000  0.49428000  1.0 -0.0997143606
C  C207  1  0.36543000  0.36521000  0.50572000  1.0 -0.0997143606
C  C208  1  0.13457000  0.63479000  0.00572000  1.0 -0.0997143606
C  C209  1  0.99428000  0.63457000  0.86521000  1.0 -0.0997143606
C  C210  1  0.49428000  0.86543000  0.13479000  1.0 -0.0997143606
C  C211  1  0.50572000  0.36543000  0.36521000  1.0 -0.0997143606
C  C212  1  0.00572000  0.13457000  0.63479000  1.0 -0.0997143606
C  C213  1  0.86521000  0.99428000  0.63457000  1.0 -0.0997143606
C  C214  1  0.13479000  0.49428000  0.86543000  1.0 -0.0997143606
C  C215  1  0.36521000  0.50572000  0.36543000  1.0 -0.0997143606
C  C216  1  0.63479000  0.00572000  0.13457000  1.0 -0.0997143606
C  C217  1  0.33644000  0.13079000  0.99722000  1.0 -0.018628517
C  C218  1  0.16356000  0.86921000  0.49722000  1.0 -0.018628517
C  C219  1  0.66356000  0.63079000  0.50278000  1.0 -0.018628517
C  C220  1  0.83644000  0.36921000  0.00278000  1.0 -0.018628517
C  C221  1  0.99722000  0.33644000  0.13079000  1.0 -0.018628517
C  C222  1  0.49722000  0.16356000  0.86921000  1.0 -0.018628517
C  C223  1  0.50278000  0.66356000  0.63079000  1.0 -0.018628517
C  C224  1  0.00278000  0.83644000  0.36921000  1.0 -0.018628517
C  C225  1  0.13079000  0.99722000  0.33644000  1.0 -0.018628517
C  C226  1  0.86921000  0.49722000  0.16356000  1.0 -0.018628517
C  C227  1  0.63079000  0.50278000  0.66356000  1.0 -0.018628517
C  C228  1  0.36921000  0.00278000  0.83644000  1.0 -0.018628517
C  C229  1  0.66356000  0.86921000  0.00278000  1.0 -0.018628517
C  C230  1  0.83644000  0.13079000  0.50278000  1.0 -0.018628517
C  C231  1  0.33644000  0.36921000  0.49722000  1.0 -0.018628517
C  C232  1  0.16356000  0.63079000  0.99722000  1.0 -0.018628517
C  C233  1  0.00278000  0.66356000  0.86921000  1.0 -0.018628517
C  C234  1  0.50278000  0.83644000  0.13079000  1.0 -0.018628517
C  C235  1  0.49722000  0.33644000  0.36921000  1.0 -0.018628517
C  C236  1  0.99722000  0.16356000  0.63079000  1.0 -0.018628517
C  C237  1  0.86921000  0.00278000  0.66356000  1.0 -0.018628517
C  C238  1  0.13079000  0.50278000  0.83644000  1.0 -0.018628517
C  C239  1  0.36921000  0.49722000  0.33644000  1.0 -0.018628517
C  C240  1  0.63079000  0.99722000  0.16356000  1.0 -0.018628517
C  C241  1  0.31725000  0.15447000  0.99690000  1.0 0.1396317679
C  C242  1  0.18275000  0.84553000  0.49690000  1.0 0.1396317679
C  C243  1  0.68275000  0.65447000  0.50310000  1.0 0.1396317679
C  C244  1  0.81725000  0.34553000  0.00310000  1.0 0.1396317679
C  C245  1  0.99690000  0.31725000  0.15447000  1.0 0.1396317679
C  C246  1  0.49690000  0.18275000  0.84553000  1.0 0.1396317679
C  C247  1  0.50310000  0.68275000  0.65447000  1.0 0.1396317679
C  C248  1  0.00310000  0.81725000  0.34553000  1.0 0.1396317679
C  C249  1  0.15447000  0.99690000  0.31725000  1.0 0.1396317679
C  C250  1  0.84553000  0.49690000  0.18275000  1.0 0.1396317679
C  C251  1  0.65447000  0.50310000  0.68275000  1.0 0.1396317679
C  C252  1  0.34553000  0.00310000  0.81725000  1.0 0.1396317679
C  C253  1  0.68275000  0.84553000  0.00310000  1.0 0.1396317679
C  C254  1  0.81725000  0.15447000  0.50310000  1.0 0.1396317679
C  C255  1  0.31725000  0.34553000  0.49690000  1.0 0.1396317679
C  C256  1  0.18275000  0.65447000  0.99690000  1.0 0.1396317679
C  C257  1  0.00310000  0.68275000  0.84553000  1.0 0.1396317679
C  C258  1  0.50310000  0.81725000  0.15447000  1.0 0.1396317679
C  C259  1  0.49690000  0.31725000  0.34553000  1.0 0.1396317679
C  C260  1  0.99690000  0.18275000  0.65447000  1.0 0.1396317679
C  C261  1  0.84553000  0.00310000  0.68275000  1.0 0.1396317679
C  C262  1  0.15447000  0.50310000  0.81725000  1.0 0.1396317679
C  C263  1  0.34553000  0.49690000  0.31725000  1.0 0.1396317679
C  C264  1  0.65447000  0.99690000  0.18275000  1.0 0.1396317679
C  C265  1  0.32706000  0.18214000  0.00510000  1.0 -0.1983962319
C  C266  1  0.17294000  0.81786000  0.50510000  1.0 -0.1983962319
C  C267  1  0.67294000  0.68214000  0.49490000  1.0 -0.1983962319
C  C268  1  0.82706000  0.31786000  0.99490000  1.0 -0.1983962319
C  C269  1  0.00510000  0.32706000  0.18214000  1.0 -0.1983962319
C  C270  1  0.50510000  0.17294000  0.81786000  1.0 -0.1983962319
C  C271  1  0.49490000  0.67294000  0.68214000  1.0 -0.1983962319
C  C272  1  0.99490000  0.82706000  0.31786000  1.0 -0.1983962319
C  C273  1  0.18214000  0.00510000  0.32706000  1.0 -0.1983962319
C  C274  1  0.81786000  0.50510000  0.17294000  1.0 -0.1983962319
C  C275  1  0.68214000  0.49490000  0.67294000  1.0 -0.1983962319
C  C276  1  0.31786000  0.99490000  0.82706000  1.0 -0.1983962319
C  C277  1  0.67294000  0.81786000  0.99490000  1.0 -0.1983962319
C  C278  1  0.82706000  0.18214000  0.49490000  1.0 -0.1983962319
C  C279  1  0.32706000  0.31786000  0.50510000  1.0 -0.1983962319
C  C280  1  0.17294000  0.68214000  0.00510000  1.0 -0.1983962319
C  C281  1  0.99490000  0.67294000  0.81786000  1.0 -0.1983962319
C  C282  1  0.49490000  0.82706000  0.18214000  1.0 -0.1983962319
C  C283  1  0.50510000  0.32706000  0.31786000  1.0 -0.1983962319
C  C284  1  0.00510000  0.17294000  0.68214000  1.0 -0.1983962319
C  C285  1  0.81786000  0.99490000  0.67294000  1.0 -0.1983962319
C  C286  1  0.18214000  0.49490000  0.82706000  1.0 -0.1983962319
C  C287  1  0.31786000  0.50510000  0.32706000  1.0 -0.1983962319
C  C288  1  0.68214000  0.00510000  0.17294000  1.0 -0.1983962319
C  C289  1  0.35605000  0.18613000  0.01359000  1.0 -0.0587322639
C  C290  1  0.14395000  0.81387000  0.51359000  1.0 -0.0587322639
C  C291  1  0.64395000  0.68613000  0.48641000  1.0 -0.0587322639
C  C292  1  0.85605000  0.31387000  0.98641000  1.0 -0.0587322639
C  C293  1  0.01359000  0.35605000  0.18613000  1.0 -0.0587322639
C  C294  1  0.51359000  0.14395000  0.81387000  1.0 -0.0587322639
C  C295  1  0.48641000  0.64395000  0.68613000  1.0 -0.0587322639
C  C296  1  0.98641000  0.85605000  0.31387000  1.0 -0.0587322639
C  C297  1  0.18613000  0.01359000  0.35605000  1.0 -0.0587322639
C  C298  1  0.81387000  0.51359000  0.14395000  1.0 -0.0587322639
C  C299  1  0.68613000  0.48641000  0.64395000  1.0 -0.0587322639
C  C300  1  0.31387000  0.98641000  0.85605000  1.0 -0.0587322639
C  C301  1  0.64395000  0.81387000  0.98641000  1.0 -0.0587322639
C  C302  1  0.85605000  0.18613000  0.48641000  1.0 -0.0587322639
C  C303  1  0.35605000  0.31387000  0.51359000  1.0 -0.0587322639
C  C304  1  0.14395000  0.68613000  0.01359000  1.0 -0.0587322639
C  C305  1  0.98641000  0.64395000  0.81387000  1.0 -0.0587322639
C  C306  1  0.48641000  0.85605000  0.18613000  1.0 -0.0587322639
C  C307  1  0.51359000  0.35605000  0.31387000  1.0 -0.0587322639
C  C308  1  0.01359000  0.14395000  0.68613000  1.0 -0.0587322639
C  C309  1  0.81387000  0.98641000  0.64395000  1.0 -0.0587322639
C  C310  1  0.18613000  0.48641000  0.85605000  1.0 -0.0587322639
C  C311  1  0.31387000  0.51359000  0.35605000  1.0 -0.0587322639
C  C312  1  0.68613000  0.01359000  0.14395000  1.0 -0.0587322639
C  C313  1  0.38442000  0.95608000  0.15794000  1.0 -0.0587322639
C  C314  1  0.11558000  0.04392000  0.65794000  1.0 -0.0587322639
C  C315  1  0.61558000  0.45608000  0.34206000  1.0 -0.0587322639
C  C316  1  0.88442000  0.54392000  0.84206000  1.0 -0.0587322639
C  C317  1  0.15794000  0.38442000  0.95608000  1.0 -0.0587322639
C  C318  1  0.65794000  0.11558000  0.04392000  1.0 -0.0587322639
C  C319  1  0.34206000  0.61558000  0.45608000  1.0 -0.0587322639
C  C320  1  0.84206000  0.88442000  0.54392000  1.0 -0.0587322639
C  C321  1  0.95608000  0.15794000  0.38442000  1.0 -0.0587322639
C  C322  1  0.04392000  0.65794000  0.11558000  1.0 -0.0587322639
C  C323  1  0.45608000  0.34206000  0.61558000  1.0 -0.0587322639
C  C324  1  0.54392000  0.84206000  0.88442000  1.0 -0.0587322639
C  C325  1  0.61558000  0.04392000  0.84206000  1.0 -0.0587322639
C  C326  1  0.88442000  0.95608000  0.34206000  1.0 -0.0587322639
C  C327  1  0.38442000  0.54392000  0.65794000  1.0 -0.0587322639
C  C328  1  0.11558000  0.45608000  0.15794000  1.0 -0.0587322639
C  C329  1  0.84206000  0.61558000  0.04392000  1.0 -0.0587322639
C  C330  1  0.34206000  0.88442000  0.95608000  1.0 -0.0587322639
C  C331  1  0.65794000  0.38442000  0.54392000  1.0 -0.0587322639
C  C332  1  0.15794000  0.11558000  0.45608000  1.0 -0.0587322639
C  C333  1  0.04392000  0.84206000  0.61558000  1.0 -0.0587322639
C  C334  1  0.95608000  0.34206000  0.88442000  1.0 -0.0587322639
C  C335  1  0.54392000  0.65794000  0.38442000  1.0 -0.0587322639
C  C336  1  0.45608000  0.15794000  0.11558000  1.0 -0.0587322639
C  C337  1  0.37377000  0.95700000  0.12940000  1.0 -0.0997143606
C  C338  1  0.12623000  0.04300000  0.62940000  1.0 -0.0997143606
C  C339  1  0.62623000  0.45700000  0.37060000  1.0 -0.0997143606
C  C340  1  0.87377000  0.54300000  0.87060000  1.0 -0.0997143606
C  C341  1  0.12940000  0.37377000  0.95700000  1.0 -0.0997143606
C  C342  1  0.62940000  0.12623000  0.04300000  1.0 -0.0997143606
C  C343  1  0.37060000  0.62623000  0.45700000  1.0 -0.0997143606
C  C344  1  0.87060000  0.87377000  0.54300000  1.0 -0.0997143606
C  C345  1  0.95700000  0.12940000  0.37377000  1.0 -0.0997143606
C  C346  1  0.04300000  0.62940000  0.12623000  1.0 -0.0997143606
C  C347  1  0.45700000  0.37060000  0.62623000  1.0 -0.0997143606
C  C348  1  0.54300000  0.87060000  0.87377000  1.0 -0.0997143606
C  C349  1  0.62623000  0.04300000  0.87060000  1.0 -0.0997143606
C  C350  1  0.87377000  0.95700000  0.37060000  1.0 -0.0997143606
C  C351  1  0.37377000  0.54300000  0.62940000  1.0 -0.0997143606
C  C352  1  0.12623000  0.45700000  0.12940000  1.0 -0.0997143606
C  C353  1  0.87060000  0.62623000  0.04300000  1.0 -0.0997143606
C  C354  1  0.37060000  0.87377000  0.95700000  1.0 -0.0997143606
C  C355  1  0.62940000  0.37377000  0.54300000  1.0 -0.0997143606
C  C356  1  0.12940000  0.12623000  0.45700000  1.0 -0.0997143606
C  C357  1  0.04300000  0.87060000  0.62623000  1.0 -0.0997143606
C  C358  1  0.95700000  0.37060000  0.87377000  1.0 -0.0997143606
C  C359  1  0.54300000  0.62940000  0.37377000  1.0 -0.0997143606
C  C360  1  0.45700000  0.12940000  0.12623000  1.0 -0.0997143606
C  C361  1  0.34373000  0.95647000  0.12433000  1.0 -0.018628517
C  C362  1  0.15627000  0.04353000  0.62433000  1.0 -0.018628517
C  C363  1  0.65627000  0.45647000  0.37567000  1.0 -0.018628517
C  C364  1  0.84373000  0.54353000  0.87567000  1.0 -0.018628517
C  C365  1  0.12433000  0.34373000  0.95647000  1.0 -0.018628517
C  C366  1  0.62433000  0.15627000  0.04353000  1.0 -0.018628517
C  C367  1  0.37567000  0.65627000  0.45647000  1.0 -0.018628517
C  C368  1  0.87567000  0.84373000  0.54353000  1.0 -0.018628517
C  C369  1  0.95647000  0.12433000  0.34373000  1.0 -0.018628517
C  C370  1  0.04353000  0.62433000  0.15627000  1.0 -0.018628517
C  C371  1  0.45647000  0.37567000  0.65627000  1.0 -0.018628517
C  C372  1  0.54353000  0.87567000  0.84373000  1.0 -0.018628517
C  C373  1  0.65627000  0.04353000  0.87567000  1.0 -0.018628517
C  C374  1  0.84373000  0.95647000  0.37567000  1.0 -0.018628517
C  C375  1  0.34373000  0.54353000  0.62433000  1.0 -0.018628517
C  C376  1  0.15627000  0.45647000  0.12433000  1.0 -0.018628517
C  C377  1  0.87567000  0.65627000  0.04353000  1.0 -0.018628517
C  C378  1  0.37567000  0.84373000  0.95647000  1.0 -0.018628517
C  C379  1  0.62433000  0.34373000  0.54353000  1.0 -0.018628517
C  C380  1  0.12433000  0.15627000  0.45647000  1.0 -0.018628517
C  C381  1  0.04353000  0.87567000  0.65627000  1.0 -0.018628517
C  C382  1  0.95647000  0.37567000  0.84373000  1.0 -0.018628517
C  C383  1  0.54353000  0.62433000  0.34373000  1.0 -0.018628517
C  C384  1  0.45647000  0.12433000  0.15627000  1.0 -0.018628517
C  C385  1  0.32433000  0.95500000  0.14779000  1.0 0.1396317679
C  C386  1  0.17567000  0.04500000  0.64779000  1.0 0.1396317679
C  C387  1  0.67567000  0.45500000  0.35221000  1.0 0.1396317679
C  C388  1  0.82433000  0.54500000  0.85221000  1.0 0.1396317679
C  C389  1  0.14779000  0.32433000  0.95500000  1.0 0.1396317679
C  C390  1  0.64779000  0.17567000  0.04500000  1.0 0.1396317679
C  C391  1  0.35221000  0.67567000  0.45500000  1.0 0.1396317679
C  C392  1  0.85221000  0.82433000  0.54500000  1.0 0.1396317679
C  C393  1  0.95500000  0.14779000  0.32433000  1.0 0.1396317679
C  C394  1  0.04500000  0.64779000  0.17567000  1.0 0.1396317679
C  C395  1  0.45500000  0.35221000  0.67567000  1.0 0.1396317679
C  C396  1  0.54500000  0.85221000  0.82433000  1.0 0.1396317679
C  C397  1  0.67567000  0.04500000  0.85221000  1.0 0.1396317679
C  C398  1  0.82433000  0.95500000  0.35221000  1.0 0.1396317679
C  C399  1  0.32433000  0.54500000  0.64779000  1.0 0.1396317679
C  C400  1  0.17567000  0.45500000  0.14779000  1.0 0.1396317679
C  C401  1  0.85221000  0.67567000  0.04500000  1.0 0.1396317679
C  C402  1  0.35221000  0.82433000  0.95500000  1.0 0.1396317679
C  C403  1  0.64779000  0.32433000  0.54500000  1.0 0.1396317679
C  C404  1  0.14779000  0.17567000  0.45500000  1.0 0.1396317679
C  C405  1  0.04500000  0.85221000  0.67567000  1.0 0.1396317679
C  C406  1  0.95500000  0.35221000  0.82433000  1.0 0.1396317679
C  C407  1  0.54500000  0.64779000  0.32433000  1.0 0.1396317679
C  C408  1  0.45500000  0.14779000  0.17567000  1.0 0.1396317679
C  C409  1  0.33498000  0.95410000  0.17633000  1.0 -0.1983962319
C  C410  1  0.16502000  0.04590000  0.67633000  1.0 -0.1983962319
C  C411  1  0.66502000  0.45410000  0.32367000  1.0 -0.1983962319
C  C412  1  0.83498000  0.54590000  0.82367000  1.0 -0.1983962319
C  C413  1  0.17633000  0.33498000  0.95410000  1.0 -0.1983962319
C  C414  1  0.67633000  0.16502000  0.04590000  1.0 -0.1983962319
C  C415  1  0.32367000  0.66502000  0.45410000  1.0 -0.1983962319
C  C416  1  0.82367000  0.83498000  0.54590000  1.0 -0.1983962319
C  C417  1  0.95410000  0.17633000  0.33498000  1.0 -0.1983962319
C  C418  1  0.04590000  0.67633000  0.16502000  1.0 -0.1983962319
C  C419  1  0.45410000  0.32367000  0.66502000  1.0 -0.1983962319
C  C420  1  0.54590000  0.82367000  0.83498000  1.0 -0.1983962319
C  C421  1  0.66502000  0.04590000  0.82367000  1.0 -0.1983962319
C  C422  1  0.83498000  0.95410000  0.32367000  1.0 -0.1983962319
C  C423  1  0.33498000  0.54590000  0.67633000  1.0 -0.1983962319
C  C424  1  0.16502000  0.45410000  0.17633000  1.0 -0.1983962319
C  C425  1  0.82367000  0.66502000  0.04590000  1.0 -0.1983962319
C  C426  1  0.32367000  0.83498000  0.95410000  1.0 -0.1983962319
C  C427  1  0.67633000  0.33498000  0.54590000  1.0 -0.1983962319
C  C428  1  0.17633000  0.16502000  0.45410000  1.0 -0.1983962319
C  C429  1  0.04590000  0.82367000  0.66502000  1.0 -0.1983962319
C  C430  1  0.95410000  0.32367000  0.83498000  1.0 -0.1983962319
C  C431  1  0.54590000  0.67633000  0.33498000  1.0 -0.1983962319
C  C432  1  0.45410000  0.17633000  0.16502000  1.0 -0.1983962319
C  C433  1  0.36503000  0.95460000  0.18141000  1.0 -0.0587322639
C  C434  1  0.13497000  0.04540000  0.68141000  1.0 -0.0587322639
C  C435  1  0.63497000  0.45460000  0.31859000  1.0 -0.0587322639
C  C436  1  0.86503000  0.54540000  0.81859000  1.0 -0.0587322639
C  C437  1  0.18141000  0.36503000  0.95460000  1.0 -0.0587322639
C  C438  1  0.68141000  0.13497000  0.04540000  1.0 -0.0587322639
C  C439  1  0.31859000  0.63497000  0.45460000  1.0 -0.0587322639
C  C440  1  0.81859000  0.86503000  0.54540000  1.0 -0.0587322639
C  C441  1  0.95460000  0.18141000  0.36503000  1.0 -0.0587322639
C  C442  1  0.04540000  0.68141000  0.13497000  1.0 -0.0587322639
C  C443  1  0.45460000  0.31859000  0.63497000  1.0 -0.0587322639
C  C444  1  0.54540000  0.81859000  0.86503000  1.0 -0.0587322639
C  C445  1  0.63497000  0.04540000  0.81859000  1.0 -0.0587322639
C  C446  1  0.86503000  0.95460000  0.31859000  1.0 -0.0587322639
C  C447  1  0.36503000  0.54540000  0.68141000  1.0 -0.0587322639
C  C448  1  0.13497000  0.45460000  0.18141000  1.0 -0.0587322639
C  C449  1  0.81859000  0.63497000  0.04540000  1.0 -0.0587322639
C  C450  1  0.31859000  0.86503000  0.95460000  1.0 -0.0587322639
C  C451  1  0.68141000  0.36503000  0.54540000  1.0 -0.0587322639
C  C452  1  0.18141000  0.13497000  0.45460000  1.0 -0.0587322639
C  C453  1  0.04540000  0.81859000  0.63497000  1.0 -0.0587322639
C  C454  1  0.95460000  0.31859000  0.86503000  1.0 -0.0587322639
C  C455  1  0.54540000  0.68141000  0.36503000  1.0 -0.0587322639
C  C456  1  0.45460000  0.18141000  0.13497000  1.0 -0.0587322639
C  C457  1  0.31470000  0.96510000  0.01770000  1.0 0.5785584045
C  C458  1  0.18530000  0.03490000  0.51770000  1.0 0.5785584045
C  C459  1  0.68530000  0.46510000  0.48230000  1.0 0.5785584045
C  C460  1  0.81470000  0.53490000  0.98230000  1.0 0.5785584045
C  C461  1  0.01770000  0.31470000  0.96510000  1.0 0.5785584045
C  C462  1  0.51770000  0.18530000  0.03490000  1.0 0.5785584045
C  C463  1  0.48230000  0.68530000  0.46510000  1.0 0.5785584045
C  C464  1  0.98230000  0.81470000  0.53490000  1.0 0.5785584045
C  C465  1  0.96510000  0.01770000  0.31470000  1.0 0.5785584045
C  C466  1  0.03490000  0.51770000  0.18530000  1.0 0.5785584045
C  C467  1  0.46510000  0.48230000  0.68530000  1.0 0.5785584045
C  C468  1  0.53490000  0.98230000  0.81470000  1.0 0.5785584045
C  C469  1  0.68530000  0.03490000  0.98230000  1.0 0.5785584045
C  C470  1  0.81470000  0.96510000  0.48230000  1.0 0.5785584045
C  C471  1  0.31470000  0.53490000  0.51770000  1.0 0.5785584045
C  C472  1  0.18530000  0.46510000  0.01770000  1.0 0.5785584045
C  C473  1  0.98230000  0.68530000  0.03490000  1.0 0.5785584045
C  C474  1  0.48230000  0.81470000  0.96510000  1.0 0.5785584045
C  C475  1  0.51770000  0.31470000  0.53490000  1.0 0.5785584045
C  C476  1  0.01770000  0.18530000  0.46510000  1.0 0.5785584045
C  C477  1  0.03490000  0.98230000  0.68530000  1.0 0.5785584045
C  C478  1  0.96510000  0.48230000  0.81470000  1.0 0.5785584045
C  C479  1  0.53490000  0.51770000  0.31470000  1.0 0.5785584045
C  C480  1  0.46510000  0.01770000  0.18530000  1.0 0.5785584045
C  C481  1  0.30772000  0.96211000  0.04829000  1.0 -0.0683433071
C  C482  1  0.19228000  0.03789000  0.54829000  1.0 -0.0683433071
C  C483  1  0.69228000  0.46211000  0.45171000  1.0 -0.0683433071
C  C484  1  0.80772000  0.53789000  0.95171000  1.0 -0.0683433071
C  C485  1  0.04829000  0.30772000  0.96211000  1.0 -0.0683433071
C  C486  1  0.54829000  0.19228000  0.03789000  1.0 -0.0683433071
C  C487  1  0.45171000  0.69228000  0.46211000  1.0 -0.0683433071
C  C488  1  0.95171000  0.80772000  0.53789000  1.0 -0.0683433071
C  C489  1  0.96211000  0.04829000  0.30772000  1.0 -0.0683433071
C  C490  1  0.03789000  0.54829000  0.19228000  1.0 -0.0683433071
C  C491  1  0.46211000  0.45171000  0.69228000  1.0 -0.0683433071
C  C492  1  0.53789000  0.95171000  0.80772000  1.0 -0.0683433071
C  C493  1  0.69228000  0.03789000  0.95171000  1.0 -0.0683433071
C  C494  1  0.80772000  0.96211000  0.45171000  1.0 -0.0683433071
C  C495  1  0.30772000  0.53789000  0.54829000  1.0 -0.0683433071
C  C496  1  0.19228000  0.46211000  0.04829000  1.0 -0.0683433071
C  C497  1  0.95171000  0.69228000  0.03789000  1.0 -0.0683433071
C  C498  1  0.45171000  0.80772000  0.96211000  1.0 -0.0683433071
C  C499  1  0.54829000  0.30772000  0.53789000  1.0 -0.0683433071
C  C500  1  0.04829000  0.19228000  0.46211000  1.0 -0.0683433071
C  C501  1  0.03789000  0.95171000  0.69228000  1.0 -0.0683433071
C  C502  1  0.96211000  0.45171000  0.80772000  1.0 -0.0683433071
C  C503  1  0.53789000  0.54829000  0.30772000  1.0 -0.0683433071
C  C504  1  0.46211000  0.04829000  0.19228000  1.0 -0.0683433071
C  C505  1  0.27894000  0.96110000  0.05828000  1.0 -0.0587322639
C  C506  1  0.22106000  0.03890000  0.55828000  1.0 -0.0587322639
C  C507  1  0.72106000  0.46110000  0.44172000  1.0 -0.0587322639
C  C508  1  0.77894000  0.53890000  0.94172000  1.0 -0.0587322639
C  C509  1  0.05828000  0.27894000  0.96110000  1.0 -0.0587322639
C  C510  1  0.55828000  0.22106000  0.03890000  1.0 -0.0587322639
C  C511  1  0.44172000  0.72106000  0.46110000  1.0 -0.0587322639
C  C512  1  0.94172000  0.77894000  0.53890000  1.0 -0.0587322639
C  C513  1  0.96110000  0.05828000  0.27894000  1.0 -0.0587322639
C  C514  1  0.03890000  0.55828000  0.22106000  1.0 -0.0587322639
C  C515  1  0.46110000  0.44172000  0.72106000  1.0 -0.0587322639
C  C516  1  0.53890000  0.94172000  0.77894000  1.0 -0.0587322639
C  C517  1  0.72106000  0.03890000  0.94172000  1.0 -0.0587322639
C  C518  1  0.77894000  0.96110000  0.44172000  1.0 -0.0587322639
C  C519  1  0.27894000  0.53890000  0.55828000  1.0 -0.0587322639
C  C520  1  0.22106000  0.46110000  0.05828000  1.0 -0.0587322639
C  C521  1  0.94172000  0.72106000  0.03890000  1.0 -0.0587322639
C  C522  1  0.44172000  0.77894000  0.96110000  1.0 -0.0587322639
C  C523  1  0.55828000  0.27894000  0.53890000  1.0 -0.0587322639
C  C524  1  0.05828000  0.22106000  0.46110000  1.0 -0.0587322639
C  C525  1  0.03890000  0.94172000  0.72106000  1.0 -0.0587322639
C  C526  1  0.96110000  0.44172000  0.77894000  1.0 -0.0587322639
C  C527  1  0.53890000  0.55828000  0.27894000  1.0 -0.0587322639
C  C528  1  0.46110000  0.05828000  0.22106000  1.0 -0.0587322639
C  C529  1  0.27326000  0.95860000  0.08812000  1.0 -0.1871208767
C  C530  1  0.22674000  0.04140000  0.58812000  1.0 -0.1871208767
C  C531  1  0.72674000  0.45860000  0.41188000  1.0 -0.1871208767
C  C532  1  0.77326000  0.54140000  0.91188000  1.0 -0.1871208767
C  C533  1  0.08812000  0.27326000  0.95860000  1.0 -0.1871208767
C  C534  1  0.58812000  0.22674000  0.04140000  1.0 -0.1871208767
C  C535  1  0.41188000  0.72674000  0.45860000  1.0 -0.1871208767
C  C536  1  0.91188000  0.77326000  0.54140000  1.0 -0.1871208767
C  C537  1  0.95860000  0.08812000  0.27326000  1.0 -0.1871208767
C  C538  1  0.04140000  0.58812000  0.22674000  1.0 -0.1871208767
C  C539  1  0.45860000  0.41188000  0.72674000  1.0 -0.1871208767
C  C540  1  0.54140000  0.91188000  0.77326000  1.0 -0.1871208767
C  C541  1  0.72674000  0.04140000  0.91188000  1.0 -0.1871208767
C  C542  1  0.77326000  0.95860000  0.41188000  1.0 -0.1871208767
C  C543  1  0.27326000  0.54140000  0.58812000  1.0 -0.1871208767
C  C544  1  0.22674000  0.45860000  0.08812000  1.0 -0.1871208767
C  C545  1  0.91188000  0.72674000  0.04140000  1.0 -0.1871208767
C  C546  1  0.41188000  0.77326000  0.95860000  1.0 -0.1871208767
C  C547  1  0.58812000  0.27326000  0.54140000  1.0 -0.1871208767
C  C548  1  0.08812000  0.22674000  0.45860000  1.0 -0.1871208767
C  C549  1  0.04140000  0.91188000  0.72674000  1.0 -0.1871208767
C  C550  1  0.95860000  0.41188000  0.77326000  1.0 -0.1871208767
C  C551  1  0.54140000  0.58812000  0.27326000  1.0 -0.1871208767
C  C552  1  0.45860000  0.08812000  0.22674000  1.0 -0.1871208767
C  C553  1  0.29634000  0.95720000  0.10797000  1.0 0.1187906547
C  C554  1  0.20366000  0.04280000  0.60797000  1.0 0.1187906547
C  C555  1  0.70366000  0.45720000  0.39203000  1.0 0.1187906547
C  C556  1  0.79634000  0.54280000  0.89203000  1.0 0.1187906547
C  C557  1  0.10797000  0.29634000  0.95720000  1.0 0.1187906547
C  C558  1  0.60797000  0.20366000  0.04280000  1.0 0.1187906547
C  C559  1  0.39203000  0.70366000  0.45720000  1.0 0.1187906547
C  C560  1  0.89203000  0.79634000  0.54280000  1.0 0.1187906547
C  C561  1  0.95720000  0.10797000  0.29634000  1.0 0.1187906547
C  C562  1  0.04280000  0.60797000  0.20366000  1.0 0.1187906547
C  C563  1  0.45720000  0.39203000  0.70366000  1.0 0.1187906547
C  C564  1  0.54280000  0.89203000  0.79634000  1.0 0.1187906547
C  C565  1  0.70366000  0.04280000  0.89203000  1.0 0.1187906547
C  C566  1  0.79634000  0.95720000  0.39203000  1.0 0.1187906547
C  C567  1  0.29634000  0.54280000  0.60797000  1.0 0.1187906547
C  C568  1  0.20366000  0.45720000  0.10797000  1.0 0.1187906547
C  C569  1  0.89203000  0.70366000  0.04280000  1.0 0.1187906547
C  C570  1  0.39203000  0.79634000  0.95720000  1.0 0.1187906547
C  C571  1  0.60797000  0.29634000  0.54280000  1.0 0.1187906547
C  C572  1  0.10797000  0.20366000  0.45720000  1.0 0.1187906547
C  C573  1  0.04280000  0.89203000  0.70366000  1.0 0.1187906547
C  C574  1  0.95720000  0.39203000  0.79634000  1.0 0.1187906547
C  C575  1  0.54280000  0.60797000  0.29634000  1.0 0.1187906547
C  C576  1  0.45720000  0.10797000  0.20366000  1.0 0.1187906547
C  C577  1  0.32511000  0.95830000  0.09798000  1.0 -0.0108056436
C  C578  1  0.17489000  0.04170000  0.59798000  1.0 -0.0108056436
C  C579  1  0.67489000  0.45830000  0.40202000  1.0 -0.0108056436
C  C580  1  0.82511000  0.54170000  0.90202000  1.0 -0.0108056436
C  C581  1  0.09798000  0.32511000  0.95830000  1.0 -0.0108056436
C  C582  1  0.59798000  0.17489000  0.04170000  1.0 -0.0108056436
C  C583  1  0.40202000  0.67489000  0.45830000  1.0 -0.0108056436
C  C584  1  0.90202000  0.82511000  0.54170000  1.0 -0.0108056436
C  C585  1  0.95830000  0.09798000  0.32511000  1.0 -0.0108056436
C  C586  1  0.04170000  0.59798000  0.17489000  1.0 -0.0108056436
C  C587  1  0.45830000  0.40202000  0.67489000  1.0 -0.0108056436
C  C588  1  0.54170000  0.90202000  0.82511000  1.0 -0.0108056436
C  C589  1  0.67489000  0.04170000  0.90202000  1.0 -0.0108056436
C  C590  1  0.82511000  0.95830000  0.40202000  1.0 -0.0108056436
C  C591  1  0.32511000  0.54170000  0.59798000  1.0 -0.0108056436
C  C592  1  0.17489000  0.45830000  0.09798000  1.0 -0.0108056436
C  C593  1  0.90202000  0.67489000  0.04170000  1.0 -0.0108056436
C  C594  1  0.40202000  0.82511000  0.95830000  1.0 -0.0108056436
C  C595  1  0.59798000  0.32511000  0.54170000  1.0 -0.0108056436
C  C596  1  0.09798000  0.17489000  0.45830000  1.0 -0.0108056436
C  C597  1  0.04170000  0.90202000  0.67489000  1.0 -0.0108056436
C  C598  1  0.95830000  0.40202000  0.82511000  1.0 -0.0108056436
C  C599  1  0.54170000  0.59798000  0.32511000  1.0 -0.0108056436
C  C600  1  0.45830000  0.09798000  0.17489000  1.0 -0.0108056436
C  C601  1  0.33080000  0.96072000  0.06814000  1.0 -0.0997143606
C  C602  1  0.16920000  0.03928000  0.56814000  1.0 -0.0997143606
C  C603  1  0.66920000  0.46072000  0.43186000  1.0 -0.0997143606
C  C604  1  0.83080000  0.53928000  0.93186000  1.0 -0.0997143606
C  C605  1  0.06814000  0.33080000  0.96072000  1.0 -0.0997143606
C  C606  1  0.56814000  0.16920000  0.03928000  1.0 -0.0997143606
C  C607  1  0.43186000  0.66920000  0.46072000  1.0 -0.0997143606
C  C608  1  0.93186000  0.83080000  0.53928000  1.0 -0.0997143606
C  C609  1  0.96072000  0.06814000  0.33080000  1.0 -0.0997143606
C  C610  1  0.03928000  0.56814000  0.16920000  1.0 -0.0997143606
C  C611  1  0.46072000  0.43186000  0.66920000  1.0 -0.0997143606
C  C612  1  0.53928000  0.93186000  0.83080000  1.0 -0.0997143606
C  C613  1  0.66920000  0.03928000  0.93186000  1.0 -0.0997143606
C  C614  1  0.83080000  0.96072000  0.43186000  1.0 -0.0997143606
C  C615  1  0.33080000  0.53928000  0.56814000  1.0 -0.0997143606
C  C616  1  0.16920000  0.46072000  0.06814000  1.0 -0.0997143606
C  C617  1  0.93186000  0.66920000  0.03928000  1.0 -0.0997143606
C  C618  1  0.43186000  0.83080000  0.96072000  1.0 -0.0997143606
C  C619  1  0.56814000  0.33080000  0.53928000  1.0 -0.0997143606
C  C620  1  0.06814000  0.16920000  0.46072000  1.0 -0.0997143606
C  C621  1  0.03928000  0.93186000  0.66920000  1.0 -0.0997143606
C  C622  1  0.96072000  0.43186000  0.83080000  1.0 -0.0997143606
C  C623  1  0.53928000  0.56814000  0.33080000  1.0 -0.0997143606
C  C624  1  0.46072000  0.06814000  0.16920000  1.0 -0.0997143606
C  C625  1  0.33310000  0.98050000  0.90650000  1.0 0.5898956599
C  C626  1  0.16690000  0.01950000  0.40650000  1.0 0.5898956599
C  C627  1  0.66690000  0.48050000  0.59350000  1.0 0.5898956599
C  C628  1  0.83310000  0.51950000  0.09350000  1.0 0.5898956599
C  C629  1  0.90650000  0.33310000  0.98050000  1.0 0.5898956599
C  C630  1  0.40650000  0.16690000  0.01950000  1.0 0.5898956599
C  C631  1  0.59350000  0.66690000  0.48050000  1.0 0.5898956599
C  C632  1  0.09350000  0.83310000  0.51950000  1.0 0.5898956599
C  C633  1  0.98050000  0.90650000  0.33310000  1.0 0.5898956599
C  C634  1  0.01950000  0.40650000  0.16690000  1.0 0.5898956599
C  C635  1  0.48050000  0.59350000  0.66690000  1.0 0.5898956599
C  C636  1  0.51950000  0.09350000  0.83310000  1.0 0.5898956599
C  C637  1  0.66690000  0.01950000  0.09350000  1.0 0.5898956599
C  C638  1  0.83310000  0.98050000  0.59350000  1.0 0.5898956599
C  C639  1  0.33310000  0.51950000  0.40650000  1.0 0.5898956599
C  C640  1  0.16690000  0.48050000  0.90650000  1.0 0.5898956599
C  C641  1  0.09350000  0.66690000  0.01950000  1.0 0.5898956599
C  C642  1  0.59350000  0.83310000  0.98050000  1.0 0.5898956599
C  C643  1  0.40650000  0.33310000  0.51950000  1.0 0.5898956599
C  C644  1  0.90650000  0.16690000  0.48050000  1.0 0.5898956599
C  C645  1  0.01950000  0.09350000  0.66690000  1.0 0.5898956599
C  C646  1  0.98050000  0.59350000  0.83310000  1.0 0.5898956599
C  C647  1  0.51950000  0.40650000  0.33310000  1.0 0.5898956599
C  C648  1  0.48050000  0.90650000  0.16690000  1.0 0.5898956599
C  C649  1  0.41580000  0.95673000  0.16360000  1.0 0.5898956599
C  C650  1  0.08420000  0.04327000  0.66360000  1.0 0.5898956599
C  C651  1  0.58420000  0.45673000  0.33640000  1.0 0.5898956599
C  C652  1  0.91580000  0.54327000  0.83640000  1.0 0.5898956599
C  C653  1  0.16360000  0.41580000  0.95673000  1.0 0.5898956599
C  C654  1  0.66360000  0.08420000  0.04327000  1.0 0.5898956599
C  C655  1  0.33640000  0.58420000  0.45673000  1.0 0.5898956599
C  C656  1  0.83640000  0.91580000  0.54327000  1.0 0.5898956599
C  C657  1  0.95673000  0.16360000  0.41580000  1.0 0.5898956599
C  C658  1  0.04327000  0.66360000  0.08420000  1.0 0.5898956599
C  C659  1  0.45673000  0.33640000  0.58420000  1.0 0.5898956599
C  C660  1  0.54327000  0.83640000  0.91580000  1.0 0.5898956599
C  C661  1  0.58420000  0.04327000  0.83640000  1.0 0.5898956599
C  C662  1  0.91580000  0.95673000  0.33640000  1.0 0.5898956599
C  C663  1  0.41580000  0.54327000  0.66360000  1.0 0.5898956599
C  C664  1  0.08420000  0.45673000  0.16360000  1.0 0.5898956599
C  C665  1  0.83640000  0.58420000  0.04327000  1.0 0.5898956599
C  C666  1  0.33640000  0.91580000  0.95673000  1.0 0.5898956599
C  C667  1  0.66360000  0.41580000  0.54327000  1.0 0.5898956599
C  C668  1  0.16360000  0.08420000  0.45673000  1.0 0.5898956599
C  C669  1  0.04327000  0.83640000  0.58420000  1.0 0.5898956599
C  C670  1  0.95673000  0.33640000  0.91580000  1.0 0.5898956599
C  C671  1  0.54327000  0.66360000  0.41580000  1.0 0.5898956599
C  C672  1  0.45673000  0.16360000  0.08420000  1.0 0.5898956599
C  C673  1  0.22548000  0.96370000  0.19633000  1.0 0.0755278808
C  C674  1  0.27452000  0.03630000  0.69633000  1.0 0.0755278808
C  C675  1  0.77452000  0.46370000  0.30367000  1.0 0.0755278808
C  C676  1  0.72548000  0.53630000  0.80367000  1.0 0.0755278808
C  C677  1  0.19633000  0.22548000  0.96370000  1.0 0.0755278808
C  C678  1  0.69633000  0.27452000  0.03630000  1.0 0.0755278808
C  C679  1  0.30367000  0.77452000  0.46370000  1.0 0.0755278808
C  C680  1  0.80367000  0.72548000  0.53630000  1.0 0.0755278808
C  C681  1  0.96370000  0.19633000  0.22548000  1.0 0.0755278808
C  C682  1  0.03630000  0.69633000  0.27452000  1.0 0.0755278808
C  C683  1  0.46370000  0.30367000  0.77452000  1.0 0.0755278808
C  C684  1  0.53630000  0.80367000  0.72548000  1.0 0.0755278808
C  C685  1  0.77452000  0.03630000  0.80367000  1.0 0.0755278808
C  C686  1  0.72548000  0.96370000  0.30367000  1.0 0.0755278808
C  C687  1  0.22548000  0.53630000  0.69633000  1.0 0.0755278808
C  C688  1  0.27452000  0.46370000  0.19633000  1.0 0.0755278808
C  C689  1  0.80367000  0.77452000  0.03630000  1.0 0.0755278808
C  C690  1  0.30367000  0.72548000  0.96370000  1.0 0.0755278808
C  C691  1  0.69633000  0.22548000  0.53630000  1.0 0.0755278808
C  C692  1  0.19633000  0.27452000  0.46370000  1.0 0.0755278808
C  C693  1  0.03630000  0.80367000  0.77452000  1.0 0.0755278808
C  C694  1  0.96370000  0.30367000  0.72548000  1.0 0.0755278808
C  C695  1  0.53630000  0.69633000  0.22548000  1.0 0.0755278808
C  C696  1  0.46370000  0.19633000  0.27452000  1.0 0.0755278808
C  C697  1  0.23142000  0.98545000  0.17580000  1.0 -0.1391893405
C  C698  1  0.26858000  0.01455000  0.67580000  1.0 -0.1391893405
C  C699  1  0.76858000  0.48545000  0.32420000  1.0 -0.1391893405
C  C700  1  0.73142000  0.51455000  0.82420000  1.0 -0.1391893405
C  C701  1  0.17580000  0.23142000  0.98545000  1.0 -0.1391893405
C  C702  1  0.67580000  0.26858000  0.01455000  1.0 -0.1391893405
C  C703  1  0.32420000  0.76858000  0.48545000  1.0 -0.1391893405
C  C704  1  0.82420000  0.73142000  0.51455000  1.0 -0.1391893405
C  C705  1  0.98545000  0.17580000  0.23142000  1.0 -0.1391893405
C  C706  1  0.01455000  0.67580000  0.26858000  1.0 -0.1391893405
C  C707  1  0.48545000  0.32420000  0.76858000  1.0 -0.1391893405
C  C708  1  0.51455000  0.82420000  0.73142000  1.0 -0.1391893405
C  C709  1  0.76858000  0.01455000  0.82420000  1.0 -0.1391893405
C  C710  1  0.73142000  0.98545000  0.32420000  1.0 -0.1391893405
C  C711  1  0.23142000  0.51455000  0.67580000  1.0 -0.1391893405
C  C712  1  0.26858000  0.48545000  0.17580000  1.0 -0.1391893405
C  C713  1  0.82420000  0.76858000  0.01455000  1.0 -0.1391893405
C  C714  1  0.32420000  0.73142000  0.98545000  1.0 -0.1391893405
C  C715  1  0.67580000  0.23142000  0.51455000  1.0 -0.1391893405
C  C716  1  0.17580000  0.26858000  0.48545000  1.0 -0.1391893405
C  C717  1  0.01455000  0.82420000  0.76858000  1.0 -0.1391893405
C  C718  1  0.98545000  0.32420000  0.73142000  1.0 -0.1391893405
C  C719  1  0.51455000  0.67580000  0.23142000  1.0 -0.1391893405
C  C720  1  0.48545000  0.17580000  0.26858000  1.0 -0.1391893405
C  C721  1  0.25450000  0.98200000  0.15617000  1.0 -0.1791636335
C  C722  1  0.24550000  0.01800000  0.65617000  1.0 -0.1791636335
C  C723  1  0.74550000  0.48200000  0.34383000  1.0 -0.1791636335
C  C724  1  0.75450000  0.51800000  0.84383000  1.0 -0.1791636335
C  C725  1  0.15617000  0.25450000  0.98200000  1.0 -0.1791636335
C  C726  1  0.65617000  0.24550000  0.01800000  1.0 -0.1791636335
C  C727  1  0.34383000  0.74550000  0.48200000  1.0 -0.1791636335
C  C728  1  0.84383000  0.75450000  0.51800000  1.0 -0.1791636335
C  C729  1  0.98200000  0.15617000  0.25450000  1.0 -0.1791636335
C  C730  1  0.01800000  0.65617000  0.24550000  1.0 -0.1791636335
C  C731  1  0.48200000  0.34383000  0.74550000  1.0 -0.1791636335
C  C732  1  0.51800000  0.84383000  0.75450000  1.0 -0.1791636335
C  C733  1  0.74550000  0.01800000  0.84383000  1.0 -0.1791636335
C  C734  1  0.75450000  0.98200000  0.34383000  1.0 -0.1791636335
C  C735  1  0.25450000  0.51800000  0.65617000  1.0 -0.1791636335
C  C736  1  0.24550000  0.48200000  0.15617000  1.0 -0.1791636335
C  C737  1  0.84383000  0.74550000  0.01800000  1.0 -0.1791636335
C  C738  1  0.34383000  0.75450000  0.98200000  1.0 -0.1791636335
C  C739  1  0.65617000  0.25450000  0.51800000  1.0 -0.1791636335
C  C740  1  0.15617000  0.24550000  0.48200000  1.0 -0.1791636335
C  C741  1  0.01800000  0.84383000  0.74550000  1.0 -0.1791636335
C  C742  1  0.98200000  0.34383000  0.75450000  1.0 -0.1791636335
C  C743  1  0.51800000  0.65617000  0.25450000  1.0 -0.1791636335
C  C744  1  0.48200000  0.15617000  0.24550000  1.0 -0.1791636335
C  C745  1  0.27157000  0.95680000  0.15706000  1.0 0.1598418769
C  C746  1  0.22843000  0.04320000  0.65706000  1.0 0.1598418769
C  C747  1  0.72843000  0.45680000  0.34294000  1.0 0.1598418769
C  C748  1  0.77157000  0.54320000  0.84294000  1.0 0.1598418769
C  C749  1  0.15706000  0.27157000  0.95680000  1.0 0.1598418769
C  C750  1  0.65706000  0.22843000  0.04320000  1.0 0.1598418769
C  C751  1  0.34294000  0.72843000  0.45680000  1.0 0.1598418769
C  C752  1  0.84294000  0.77157000  0.54320000  1.0 0.1598418769
C  C753  1  0.95680000  0.15706000  0.27157000  1.0 0.1598418769
C  C754  1  0.04320000  0.65706000  0.22843000  1.0 0.1598418769
C  C755  1  0.45680000  0.34294000  0.72843000  1.0 0.1598418769
C  C756  1  0.54320000  0.84294000  0.77157000  1.0 0.1598418769
C  C757  1  0.72843000  0.04320000  0.84294000  1.0 0.1598418769
C  C758  1  0.77157000  0.95680000  0.34294000  1.0 0.1598418769
C  C759  1  0.27157000  0.54320000  0.65706000  1.0 0.1598418769
C  C760  1  0.22843000  0.45680000  0.15706000  1.0 0.1598418769
C  C761  1  0.84294000  0.72843000  0.04320000  1.0 0.1598418769
C  C762  1  0.34294000  0.77157000  0.95680000  1.0 0.1598418769
C  C763  1  0.65706000  0.27157000  0.54320000  1.0 0.1598418769
C  C764  1  0.15706000  0.22843000  0.45680000  1.0 0.1598418769
C  C765  1  0.04320000  0.84294000  0.72843000  1.0 0.1598418769
C  C766  1  0.95680000  0.34294000  0.77157000  1.0 0.1598418769
C  C767  1  0.54320000  0.65706000  0.27157000  1.0 0.1598418769
C  C768  1  0.45680000  0.15706000  0.22843000  1.0 0.1598418769
C  C769  1  0.26563000  0.93500000  0.17760000  1.0 -0.1791636335
C  C770  1  0.23437000  0.06500000  0.67760000  1.0 -0.1791636335
C  C771  1  0.73437000  0.43500000  0.32240000  1.0 -0.1791636335
C  C772  1  0.76563000  0.56500000  0.82240000  1.0 -0.1791636335
C  C773  1  0.17760000  0.26563000  0.93500000  1.0 -0.1791636335
C  C774  1  0.67760000  0.23437000  0.06500000  1.0 -0.1791636335
C  C775  1  0.32240000  0.73437000  0.43500000  1.0 -0.1791636335
C  C776  1  0.82240000  0.76563000  0.56500000  1.0 -0.1791636335
C  C777  1  0.93500000  0.17760000  0.26563000  1.0 -0.1791636335
C  C778  1  0.06500000  0.67760000  0.23437000  1.0 -0.1791636335
C  C779  1  0.43500000  0.32240000  0.73437000  1.0 -0.1791636335
C  C780  1  0.56500000  0.82240000  0.76563000  1.0 -0.1791636335
C  C781  1  0.73437000  0.06500000  0.82240000  1.0 -0.1791636335
C  C782  1  0.76563000  0.93500000  0.32240000  1.0 -0.1791636335
C  C783  1  0.26563000  0.56500000  0.67760000  1.0 -0.1791636335
C  C784  1  0.23437000  0.43500000  0.17760000  1.0 -0.1791636335
C  C785  1  0.82240000  0.73437000  0.06500000  1.0 -0.1791636335
C  C786  1  0.32240000  0.76563000  0.93500000  1.0 -0.1791636335
C  C787  1  0.67760000  0.26563000  0.56500000  1.0 -0.1791636335
C  C788  1  0.17760000  0.23437000  0.43500000  1.0 -0.1791636335
C  C789  1  0.06500000  0.82240000  0.73437000  1.0 -0.1791636335
C  C790  1  0.93500000  0.32240000  0.76563000  1.0 -0.1791636335
C  C791  1  0.56500000  0.67760000  0.26563000  1.0 -0.1791636335
C  C792  1  0.43500000  0.17760000  0.23437000  1.0 -0.1791636335
C  C793  1  0.24259000  0.93850000  0.19721000  1.0 -0.1490042118
C  C794  1  0.25741000  0.06150000  0.69721000  1.0 -0.1490042118
C  C795  1  0.75741000  0.43850000  0.30279000  1.0 -0.1490042118
C  C796  1  0.74259000  0.56150000  0.80279000  1.0 -0.1490042118
C  C797  1  0.19721000  0.24259000  0.93850000  1.0 -0.1490042118
C  C798  1  0.69721000  0.25741000  0.06150000  1.0 -0.1490042118
C  C799  1  0.30279000  0.75741000  0.43850000  1.0 -0.1490042118
C  C800  1  0.80279000  0.74259000  0.56150000  1.0 -0.1490042118
C  C801  1  0.93850000  0.19721000  0.24259000  1.0 -0.1490042118
C  C802  1  0.06150000  0.69721000  0.25741000  1.0 -0.1490042118
C  C803  1  0.43850000  0.30279000  0.75741000  1.0 -0.1490042118
C  C804  1  0.56150000  0.80279000  0.74259000  1.0 -0.1490042118
C  C805  1  0.75741000  0.06150000  0.80279000  1.0 -0.1490042118
C  C806  1  0.74259000  0.93850000  0.30279000  1.0 -0.1490042118
C  C807  1  0.24259000  0.56150000  0.69721000  1.0 -0.1490042118
C  C808  1  0.25741000  0.43850000  0.19721000  1.0 -0.1490042118
C  C809  1  0.80279000  0.75741000  0.06150000  1.0 -0.1490042118
C  C810  1  0.30279000  0.74259000  0.93850000  1.0 -0.1490042118
C  C811  1  0.69721000  0.24259000  0.56150000  1.0 -0.1490042118
C  C812  1  0.19721000  0.25741000  0.43850000  1.0 -0.1490042118
C  C813  1  0.06150000  0.80279000  0.75741000  1.0 -0.1490042118
C  C814  1  0.93850000  0.30279000  0.74259000  1.0 -0.1490042118
C  C815  1  0.56150000  0.69721000  0.24259000  1.0 -0.1490042118
C  C816  1  0.43850000  0.19721000  0.25741000  1.0 -0.1490042118
C  C817  1  0.26770000  0.16560000  0.97980000  1.0 0.1506582209
C  C818  1  0.23230000  0.83440000  0.47980000  1.0 0.1506582209
C  C819  1  0.73230000  0.66560000  0.52020000  1.0 0.1506582209
C  C820  1  0.76770000  0.33440000  0.02020000  1.0 0.1506582209
C  C821  1  0.97980000  0.26770000  0.16560000  1.0 0.1506582209
C  C822  1  0.47980000  0.23230000  0.83440000  1.0 0.1506582209
C  C823  1  0.52020000  0.73230000  0.66560000  1.0 0.1506582209
C  C824  1  0.02020000  0.76770000  0.33440000  1.0 0.1506582209
C  C825  1  0.16560000  0.97980000  0.26770000  1.0 0.1506582209
C  C826  1  0.83440000  0.47980000  0.23230000  1.0 0.1506582209
C  C827  1  0.66560000  0.52020000  0.73230000  1.0 0.1506582209
C  C828  1  0.33440000  0.02020000  0.76770000  1.0 0.1506582209
C  C829  1  0.73230000  0.83440000  0.02020000  1.0 0.1506582209
C  C830  1  0.76770000  0.16560000  0.52020000  1.0 0.1506582209
C  C831  1  0.26770000  0.33440000  0.47980000  1.0 0.1506582209
C  C832  1  0.23230000  0.66560000  0.97980000  1.0 0.1506582209
C  C833  1  0.02020000  0.73230000  0.83440000  1.0 0.1506582209
C  C834  1  0.52020000  0.76770000  0.16560000  1.0 0.1506582209
C  C835  1  0.47980000  0.26770000  0.33440000  1.0 0.1506582209
C  C836  1  0.97980000  0.23230000  0.66560000  1.0 0.1506582209
C  C837  1  0.83440000  0.02020000  0.73230000  1.0 0.1506582209
C  C838  1  0.16560000  0.52020000  0.76770000  1.0 0.1506582209
C  C839  1  0.33440000  0.47980000  0.26770000  1.0 0.1506582209
C  C840  1  0.66560000  0.97980000  0.23230000  1.0 0.1506582209
C  C841  1  0.26950000  0.18710000  0.95820000  1.0 -0.1871208767
C  C842  1  0.23050000  0.81290000  0.45820000  1.0 -0.1871208767
C  C843  1  0.73050000  0.68710000  0.54180000  1.0 -0.1871208767
C  C844  1  0.76950000  0.31290000  0.04180000  1.0 -0.1871208767
C  C845  1  0.95820000  0.26950000  0.18710000  1.0 -0.1871208767
C  C846  1  0.45820000  0.23050000  0.81290000  1.0 -0.1871208767
C  C847  1  0.54180000  0.73050000  0.68710000  1.0 -0.1871208767
C  C848  1  0.04180000  0.76950000  0.31290000  1.0 -0.1871208767
C  C849  1  0.18710000  0.95820000  0.26950000  1.0 -0.1871208767
C  C850  1  0.81290000  0.45820000  0.23050000  1.0 -0.1871208767
C  C851  1  0.68710000  0.54180000  0.73050000  1.0 -0.1871208767
C  C852  1  0.31290000  0.04180000  0.76950000  1.0 -0.1871208767
C  C853  1  0.73050000  0.81290000  0.04180000  1.0 -0.1871208767
C  C854  1  0.76950000  0.18710000  0.54180000  1.0 -0.1871208767
C  C855  1  0.26950000  0.31290000  0.45820000  1.0 -0.1871208767
C  C856  1  0.23050000  0.68710000  0.95820000  1.0 -0.1871208767
C  C857  1  0.04180000  0.73050000  0.81290000  1.0 -0.1871208767
C  C858  1  0.54180000  0.76950000  0.18710000  1.0 -0.1871208767
C  C859  1  0.45820000  0.26950000  0.31290000  1.0 -0.1871208767
C  C860  1  0.95820000  0.23050000  0.68710000  1.0 -0.1871208767
C  C861  1  0.81290000  0.04180000  0.73050000  1.0 -0.1871208767
C  C862  1  0.18710000  0.54180000  0.76950000  1.0 -0.1871208767
C  C863  1  0.31290000  0.45820000  0.26950000  1.0 -0.1871208767
C  C864  1  0.68710000  0.95820000  0.23050000  1.0 -0.1871208767
C  C865  1  0.24630000  0.20650000  0.95410000  1.0 -0.1391893405
C  C866  1  0.25370000  0.79350000  0.45410000  1.0 -0.1391893405
C  C867  1  0.75370000  0.70650000  0.54590000  1.0 -0.1391893405
C  C868  1  0.74630000  0.29350000  0.04590000  1.0 -0.1391893405
C  C869  1  0.95410000  0.24630000  0.20650000  1.0 -0.1391893405
C  C870  1  0.45410000  0.25370000  0.79350000  1.0 -0.1391893405
C  C871  1  0.54590000  0.75370000  0.70650000  1.0 -0.1391893405
C  C872  1  0.04590000  0.74630000  0.29350000  1.0 -0.1391893405
C  C873  1  0.20650000  0.95410000  0.24630000  1.0 -0.1391893405
C  C874  1  0.79350000  0.45410000  0.25370000  1.0 -0.1391893405
C  C875  1  0.70650000  0.54590000  0.75370000  1.0 -0.1391893405
C  C876  1  0.29350000  0.04590000  0.74630000  1.0 -0.1391893405
C  C877  1  0.75370000  0.79350000  0.04590000  1.0 -0.1391893405
C  C878  1  0.74630000  0.20650000  0.54590000  1.0 -0.1391893405
C  C879  1  0.24630000  0.29350000  0.45410000  1.0 -0.1391893405
C  C880  1  0.25370000  0.70650000  0.95410000  1.0 -0.1391893405
C  C881  1  0.04590000  0.75370000  0.79350000  1.0 -0.1391893405
C  C882  1  0.54590000  0.74630000  0.20650000  1.0 -0.1391893405
C  C883  1  0.45410000  0.24630000  0.29350000  1.0 -0.1391893405
C  C884  1  0.95410000  0.25370000  0.70650000  1.0 -0.1391893405
C  C885  1  0.79350000  0.04590000  0.75370000  1.0 -0.1391893405
C  C886  1  0.20650000  0.54590000  0.74630000  1.0 -0.1391893405
C  C887  1  0.29350000  0.45410000  0.24630000  1.0 -0.1391893405
C  C888  1  0.70650000  0.95410000  0.25370000  1.0 -0.1391893405
C  C889  1  0.22140000  0.20440000  0.97160000  1.0 0.0730155413
C  C890  1  0.27860000  0.79560000  0.47160000  1.0 0.0730155413
C  C891  1  0.77860000  0.70440000  0.52840000  1.0 0.0730155413
C  C892  1  0.72140000  0.29560000  0.02840000  1.0 0.0730155413
C  C893  1  0.97160000  0.22140000  0.20440000  1.0 0.0730155413
C  C894  1  0.47160000  0.27860000  0.79560000  1.0 0.0730155413
C  C895  1  0.52840000  0.77860000  0.70440000  1.0 0.0730155413
C  C896  1  0.02840000  0.72140000  0.29560000  1.0 0.0730155413
C  C897  1  0.20440000  0.97160000  0.22140000  1.0 0.0730155413
C  C898  1  0.79560000  0.47160000  0.27860000  1.0 0.0730155413
C  C899  1  0.70440000  0.52840000  0.77860000  1.0 0.0730155413
C  C900  1  0.29560000  0.02840000  0.72140000  1.0 0.0730155413
C  C901  1  0.77860000  0.79560000  0.02840000  1.0 0.0730155413
C  C902  1  0.72140000  0.20440000  0.52840000  1.0 0.0730155413
C  C903  1  0.22140000  0.29560000  0.47160000  1.0 0.0730155413
C  C904  1  0.27860000  0.70440000  0.97160000  1.0 0.0730155413
C  C905  1  0.02840000  0.77860000  0.79560000  1.0 0.0730155413
C  C906  1  0.52840000  0.72140000  0.20440000  1.0 0.0730155413
C  C907  1  0.47160000  0.22140000  0.29560000  1.0 0.0730155413
C  C908  1  0.97160000  0.27860000  0.70440000  1.0 0.0730155413
C  C909  1  0.79560000  0.02840000  0.77860000  1.0 0.0730155413
C  C910  1  0.20440000  0.52840000  0.72140000  1.0 0.0730155413
C  C911  1  0.29560000  0.47160000  0.22140000  1.0 0.0730155413
C  C912  1  0.70440000  0.97160000  0.27860000  1.0 0.0730155413
C  C913  1  0.21970000  0.18300000  0.99320000  1.0 -0.1391893405
C  C914  1  0.28030000  0.81700000  0.49320000  1.0 -0.1391893405
C  C915  1  0.78030000  0.68300000  0.50680000  1.0 -0.1391893405
C  C916  1  0.71970000  0.31700000  0.00680000  1.0 -0.1391893405
C  C917  1  0.99320000  0.21970000  0.18300000  1.0 -0.1391893405
C  C918  1  0.49320000  0.28030000  0.81700000  1.0 -0.1391893405
C  C919  1  0.50680000  0.78030000  0.68300000  1.0 -0.1391893405
C  C920  1  0.00680000  0.71970000  0.31700000  1.0 -0.1391893405
C  C921  1  0.18300000  0.99320000  0.21970000  1.0 -0.1391893405
C  C922  1  0.81700000  0.49320000  0.28030000  1.0 -0.1391893405
C  C923  1  0.68300000  0.50680000  0.78030000  1.0 -0.1391893405
C  C924  1  0.31700000  0.00680000  0.71970000  1.0 -0.1391893405
C  C925  1  0.78030000  0.81700000  0.00680000  1.0 -0.1391893405
C  C926  1  0.71970000  0.18300000  0.50680000  1.0 -0.1391893405
C  C927  1  0.21970000  0.31700000  0.49320000  1.0 -0.1391893405
C  C928  1  0.28030000  0.68300000  0.99320000  1.0 -0.1391893405
C  C929  1  0.00680000  0.78030000  0.81700000  1.0 -0.1391893405
C  C930  1  0.50680000  0.71970000  0.18300000  1.0 -0.1391893405
C  C931  1  0.49320000  0.21970000  0.31700000  1.0 -0.1391893405
C  C932  1  0.99320000  0.28030000  0.68300000  1.0 -0.1391893405
C  C933  1  0.81700000  0.00680000  0.78030000  1.0 -0.1391893405
C  C934  1  0.18300000  0.50680000  0.71970000  1.0 -0.1391893405
C  C935  1  0.31700000  0.49320000  0.21970000  1.0 -0.1391893405
C  C936  1  0.68300000  0.99320000  0.28030000  1.0 -0.1391893405
C  C937  1  0.24280000  0.16360000  0.99730000  1.0 -0.1791636335
C  C938  1  0.25720000  0.83640000  0.49730000  1.0 -0.1791636335
C  C939  1  0.75720000  0.66360000  0.50270000  1.0 -0.1791636335
C  C940  1  0.74280000  0.33640000  0.00270000  1.0 -0.1791636335
C  C941  1  0.99730000  0.24280000  0.16360000  1.0 -0.1791636335
C  C942  1  0.49730000  0.25720000  0.83640000  1.0 -0.1791636335
C  C943  1  0.50270000  0.75720000  0.66360000  1.0 -0.1791636335
C  C944  1  0.00270000  0.74280000  0.33640000  1.0 -0.1791636335
C  C945  1  0.16360000  0.99730000  0.24280000  1.0 -0.1791636335
C  C946  1  0.83640000  0.49730000  0.25720000  1.0 -0.1791636335
C  C947  1  0.66360000  0.50270000  0.75720000  1.0 -0.1791636335
C  C948  1  0.33640000  0.00270000  0.74280000  1.0 -0.1791636335
C  C949  1  0.75720000  0.83640000  0.00270000  1.0 -0.1791636335
C  C950  1  0.74280000  0.16360000  0.50270000  1.0 -0.1791636335
C  C951  1  0.24280000  0.33640000  0.49730000  1.0 -0.1791636335
C  C952  1  0.25720000  0.66360000  0.99730000  1.0 -0.1791636335
C  C953  1  0.00270000  0.75720000  0.83640000  1.0 -0.1791636335
C  C954  1  0.50270000  0.74280000  0.16360000  1.0 -0.1791636335
C  C955  1  0.49730000  0.24280000  0.33640000  1.0 -0.1791636335
C  C956  1  0.99730000  0.25720000  0.66360000  1.0 -0.1791636335
C  C957  1  0.83640000  0.00270000  0.75720000  1.0 -0.1791636335
C  C958  1  0.16360000  0.50270000  0.74280000  1.0 -0.1791636335
C  C959  1  0.33640000  0.49730000  0.24280000  1.0 -0.1791636335
C  C960  1  0.66360000  0.99730000  0.25720000  1.0 -0.1791636335
N  N1  1  0.29082000  0.14449000  0.98810000  1.0 -0.0683433071
N  N2  1  0.20918000  0.85551000  0.48810000  1.0 -0.0683433071
N  N3  1  0.70918000  0.64449000  0.51190000  1.0 -0.0683433071
N  N4  1  0.79082000  0.35551000  0.01190000  1.0 -0.0683433071
N  N5  1  0.98810000  0.29082000  0.14449000  1.0 -0.0683433071
N  N6  1  0.48810000  0.20918000  0.85551000  1.0 -0.0683433071
N  N7  1  0.51190000  0.70918000  0.64449000  1.0 -0.0683433071
N  N8  1  0.01190000  0.79082000  0.35551000  1.0 -0.0683433071
N  N9  1  0.14449000  0.98810000  0.29082000  1.0 -0.0683433071
N  N10  1  0.85551000  0.48810000  0.20918000  1.0 -0.0683433071
N  N11  1  0.64449000  0.51190000  0.70918000  1.0 -0.0683433071
N  N12  1  0.35551000  0.01190000  0.79082000  1.0 -0.0683433071
N  N13  1  0.70918000  0.85551000  0.01190000  1.0 -0.0683433071
N  N14  1  0.79082000  0.14449000  0.51190000  1.0 -0.0683433071
N  N15  1  0.29082000  0.35551000  0.48810000  1.0 -0.0683433071
N  N16  1  0.20918000  0.64449000  0.98810000  1.0 -0.0683433071
N  N17  1  0.01190000  0.70918000  0.85551000  1.0 -0.0683433071
N  N18  1  0.51190000  0.79082000  0.14449000  1.0 -0.0683433071
N  N19  1  0.48810000  0.29082000  0.35551000  1.0 -0.0683433071
N  N20  1  0.98810000  0.20918000  0.64449000  1.0 -0.0683433071
N  N21  1  0.85551000  0.01190000  0.70918000  1.0 -0.0683433071
N  N22  1  0.14449000  0.51190000  0.79082000  1.0 -0.0683433071
N  N23  1  0.35551000  0.48810000  0.29082000  1.0 -0.0683433071
N  N24  1  0.64449000  0.98810000  0.20918000  1.0 -0.0683433071
N  N25  1  0.29648000  0.95230000  0.13831000  1.0 -0.0756798365
N  N26  1  0.20352000  0.04770000  0.63831000  1.0 -0.0756798365
N  N27  1  0.70352000  0.45230000  0.36169000  1.0 -0.0756798365
N  N28  1  0.79648000  0.54770000  0.86169000  1.0 -0.0756798365
N  N29  1  0.13831000  0.29648000  0.95230000  1.0 -0.0756798365
N  N30  1  0.63831000  0.20352000  0.04770000  1.0 -0.0756798365
N  N31  1  0.36169000  0.70352000  0.45230000  1.0 -0.0756798365
N  N32  1  0.86169000  0.79648000  0.54770000  1.0 -0.0756798365
N  N33  1  0.95230000  0.13831000  0.29648000  1.0 -0.0756798365
N  N34  1  0.04770000  0.63831000  0.20352000  1.0 -0.0756798365
N  N35  1  0.45230000  0.36169000  0.70352000  1.0 -0.0756798365
N  N36  1  0.54770000  0.86169000  0.79648000  1.0 -0.0756798365
N  N37  1  0.70352000  0.04770000  0.86169000  1.0 -0.0756798365
N  N38  1  0.79648000  0.95230000  0.36169000  1.0 -0.0756798365
N  N39  1  0.29648000  0.54770000  0.63831000  1.0 -0.0756798365
N  N40  1  0.20352000  0.45230000  0.13831000  1.0 -0.0756798365
N  N41  1  0.86169000  0.70352000  0.04770000  1.0 -0.0756798365
N  N42  1  0.36169000  0.79648000  0.95230000  1.0 -0.0756798365
N  N43  1  0.63831000  0.29648000  0.54770000  1.0 -0.0756798365
N  N44  1  0.13831000  0.20352000  0.45230000  1.0 -0.0756798365
N  N45  1  0.04770000  0.86169000  0.70352000  1.0 -0.0756798365
N  N46  1  0.95230000  0.36169000  0.79648000  1.0 -0.0756798365
N  N47  1  0.54770000  0.63831000  0.29648000  1.0 -0.0756798365
N  N48  1  0.45230000  0.13831000  0.20352000  1.0 -0.0756798365
O  O1  1  0.34093000  0.96667000  0.00888000  1.0 -0.5171940992
O  O2  1  0.15907000  0.03333000  0.50888000  1.0 -0.5171940992
O  O3  1  0.65907000  0.46667000  0.49112000  1.0 -0.5171940992
O  O4  1  0.84093000  0.53333000  0.99112000  1.0 -0.5171940992
O  O5  1  0.00888000  0.34093000  0.96667000  1.0 -0.5171940992
O  O6  1  0.50888000  0.15907000  0.03333000  1.0 -0.5171940992
O  O7  1  0.49112000  0.65907000  0.46667000  1.0 -0.5171940992
O  O8  1  0.99112000  0.84093000  0.53333000  1.0 -0.5171940992
O  O9  1  0.96667000  0.00888000  0.34093000  1.0 -0.5171940992
O  O10  1  0.03333000  0.50888000  0.15907000  1.0 -0.5171940992
O  O11  1  0.46667000  0.49112000  0.65907000  1.0 -0.5171940992
O  O12  1  0.53333000  0.99112000  0.84093000  1.0 -0.5171940992
O  O13  1  0.65907000  0.03333000  0.99112000  1.0 -0.5171940992
O  O14  1  0.84093000  0.96667000  0.49112000  1.0 -0.5171940992
O  O15  1  0.34093000  0.53333000  0.50888000  1.0 -0.5171940992
O  O16  1  0.15907000  0.46667000  0.00888000  1.0 -0.5171940992
O  O17  1  0.99112000  0.65907000  0.03333000  1.0 -0.5171940992
O  O18  1  0.49112000  0.84093000  0.96667000  1.0 -0.5171940992
O  O19  1  0.50888000  0.34093000  0.53333000  1.0 -0.5171940992
O  O20  1  0.00888000  0.15907000  0.46667000  1.0 -0.5171940992
O  O21  1  0.03333000  0.99112000  0.65907000  1.0 -0.5171940992
O  O22  1  0.96667000  0.49112000  0.84093000  1.0 -0.5171940992
O  O23  1  0.53333000  0.50888000  0.34093000  1.0 -0.5171940992
O  O24  1  0.46667000  0.00888000  0.15907000  1.0 -0.5171940992
O  O25  1  0.29182000  0.96445000  0.99910000  1.0 -0.5508231566
O  O26  1  0.20818000  0.03555000  0.49910000  1.0 -0.5508231566
O  O27  1  0.70818000  0.46445000  0.50090000  1.0 -0.5508231566
O  O28  1  0.79182000  0.53555000  0.00090000  1.0 -0.5508231566
O  O29  1  0.99910000  0.29182000  0.96445000  1.0 -0.5508231566
O  O30  1  0.49910000  0.20818000  0.03555000  1.0 -0.5508231566
O  O31  1  0.50090000  0.70818000  0.46445000  1.0 -0.5508231566
O  O32  1  0.00090000  0.79182000  0.53555000  1.0 -0.5508231566
O  O33  1  0.96445000  0.99910000  0.29182000  1.0 -0.5508231566
O  O34  1  0.03555000  0.49910000  0.20818000  1.0 -0.5508231566
O  O35  1  0.46445000  0.50090000  0.70818000  1.0 -0.5508231566
O  O36  1  0.53555000  0.00090000  0.79182000  1.0 -0.5508231566
O  O37  1  0.70818000  0.03555000  0.00090000  1.0 -0.5508231566
O  O38  1  0.79182000  0.96445000  0.50090000  1.0 -0.5508231566
O  O39  1  0.29182000  0.53555000  0.49910000  1.0 -0.5508231566
O  O40  1  0.20818000  0.46445000  0.99910000  1.0 -0.5508231566
O  O41  1  0.00090000  0.70818000  0.03555000  1.0 -0.5508231566
O  O42  1  0.50090000  0.79182000  0.96445000  1.0 -0.5508231566
O  O43  1  0.49910000  0.29182000  0.53555000  1.0 -0.5508231566
O  O44  1  0.99910000  0.20818000  0.46445000  1.0 -0.5508231566
O  O45  1  0.03555000  0.00090000  0.70818000  1.0 -0.5508231566
O  O46  1  0.96445000  0.50090000  0.79182000  1.0 -0.5508231566
O  O47  1  0.53555000  0.49910000  0.29182000  1.0 -0.5508231566
O  O48  1  0.46445000  0.99910000  0.20818000  1.0 -0.5508231566
O  O49  1  0.35407000  0.98415000  0.92531000  1.0 -0.5375067768
O  O50  1  0.14593000  0.01585000  0.42531000  1.0 -0.5375067768
O  O51  1  0.64593000  0.48415000  0.57469000  1.0 -0.5375067768
O  O52  1  0.85407000  0.51585000  0.07469000  1.0 -0.5375067768
O  O53  1  0.92531000  0.35407000  0.98415000  1.0 -0.5375067768
O  O54  1  0.42531000  0.14593000  0.01585000  1.0 -0.5375067768
O  O55  1  0.57469000  0.64593000  0.48415000  1.0 -0.5375067768
O  O56  1  0.07469000  0.85407000  0.51585000  1.0 -0.5375067768
O  O57  1  0.98415000  0.92531000  0.35407000  1.0 -0.5375067768
O  O58  1  0.01585000  0.42531000  0.14593000  1.0 -0.5375067768
O  O59  1  0.48415000  0.57469000  0.64593000  1.0 -0.5375067768
O  O60  1  0.51585000  0.07469000  0.85407000  1.0 -0.5375067768
O  O61  1  0.64593000  0.01585000  0.07469000  1.0 -0.5375067768
O  O62  1  0.85407000  0.98415000  0.57469000  1.0 -0.5375067768
O  O63  1  0.35407000  0.51585000  0.42531000  1.0 -0.5375067768
O  O64  1  0.14593000  0.48415000  0.92531000  1.0 -0.5375067768
O  O65  1  0.07469000  0.64593000  0.01585000  1.0 -0.5375067768
O  O66  1  0.57469000  0.85407000  0.98415000  1.0 -0.5375067768
O  O67  1  0.42531000  0.35407000  0.51585000  1.0 -0.5375067768
O  O68  1  0.92531000  0.14593000  0.48415000  1.0 -0.5375067768
O  O69  1  0.01585000  0.07469000  0.64593000  1.0 -0.5375067768
O  O70  1  0.98415000  0.57469000  0.85407000  1.0 -0.5375067768
O  O71  1  0.51585000  0.42531000  0.35407000  1.0 -0.5375067768
O  O72  1  0.48415000  0.92531000  0.14593000  1.0 -0.5375067768
O  O73  1  0.30696000  0.96966000  0.91454000  1.0 -0.5581500078
O  O74  1  0.19304000  0.03034000  0.41454000  1.0 -0.5581500078
O  O75  1  0.69304000  0.46966000  0.58546000  1.0 -0.5581500078
O  O76  1  0.80696000  0.53034000  0.08546000  1.0 -0.5581500078
O  O77  1  0.91454000  0.30696000  0.96966000  1.0 -0.5581500078
O  O78  1  0.41454000  0.19304000  0.03034000  1.0 -0.5581500078
O  O79  1  0.58546000  0.69304000  0.46966000  1.0 -0.5581500078
O  O80  1  0.08546000  0.80696000  0.53034000  1.0 -0.5581500078
O  O81  1  0.96966000  0.91454000  0.30696000  1.0 -0.5581500078
O  O82  1  0.03034000  0.41454000  0.19304000  1.0 -0.5581500078
O  O83  1  0.46966000  0.58546000  0.69304000  1.0 -0.5581500078
O  O84  1  0.53034000  0.08546000  0.80696000  1.0 -0.5581500078
O  O85  1  0.69304000  0.03034000  0.08546000  1.0 -0.5581500078
O  O86  1  0.80696000  0.96966000  0.58546000  1.0 -0.5581500078
O  O87  1  0.30696000  0.53034000  0.41454000  1.0 -0.5581500078
O  O88  1  0.19304000  0.46966000  0.91454000  1.0 -0.5581500078
O  O89  1  0.08546000  0.69304000  0.03034000  1.0 -0.5581500078
O  O90  1  0.58546000  0.80696000  0.96966000  1.0 -0.5581500078
O  O91  1  0.41454000  0.30696000  0.53034000  1.0 -0.5581500078
O  O92  1  0.91454000  0.19304000  0.46966000  1.0 -0.5581500078
O  O93  1  0.03034000  0.08546000  0.69304000  1.0 -0.5581500078
O  O94  1  0.96966000  0.58546000  0.80696000  1.0 -0.5581500078
O  O95  1  0.53034000  0.41454000  0.30696000  1.0 -0.5581500078
O  O96  1  0.46966000  0.91454000  0.19304000  1.0 -0.5581500078
O  O97  1  0.33746000  0.01739000  0.97445000  1.0 -0.513179786
O  O98  1  0.16254000  0.98261000  0.47445000  1.0 -0.513179786
O  O99  1  0.66254000  0.51739000  0.52555000  1.0 -0.513179786
O  O100  1  0.83746000  0.48261000  0.02555000  1.0 -0.513179786
O  O101  1  0.97445000  0.33746000  0.01739000  1.0 -0.513179786
O  O102  1  0.47445000  0.16254000  0.98261000  1.0 -0.513179786
O  O103  1  0.52555000  0.66254000  0.51739000  1.0 -0.513179786
O  O104  1  0.02555000  0.83746000  0.48261000  1.0 -0.513179786
O  O105  1  0.01739000  0.97445000  0.33746000  1.0 -0.513179786
O  O106  1  0.98261000  0.47445000  0.16254000  1.0 -0.513179786
O  O107  1  0.51739000  0.52555000  0.66254000  1.0 -0.513179786
O  O108  1  0.48261000  0.02555000  0.83746000  1.0 -0.513179786
O  O109  1  0.66254000  0.98261000  0.02555000  1.0 -0.513179786
O  O110  1  0.83746000  0.01739000  0.52555000  1.0 -0.513179786
O  O111  1  0.33746000  0.48261000  0.47445000  1.0 -0.513179786
O  O112  1  0.16254000  0.51739000  0.97445000  1.0 -0.513179786
O  O113  1  0.02555000  0.66254000  0.98261000  1.0 -0.513179786
O  O114  1  0.52555000  0.83746000  0.01739000  1.0 -0.513179786
O  O115  1  0.47445000  0.33746000  0.48261000  1.0 -0.513179786
O  O116  1  0.97445000  0.16254000  0.51739000  1.0 -0.513179786
O  O117  1  0.98261000  0.02555000  0.66254000  1.0 -0.513179786
O  O118  1  0.01739000  0.52555000  0.83746000  1.0 -0.513179786
O  O119  1  0.48261000  0.47445000  0.33746000  1.0 -0.513179786
O  O120  1  0.51739000  0.97445000  0.16254000  1.0 -0.513179786
O  O121  1  0.29118000  0.00859000  0.95835000  1.0 -0.5508231566
O  O122  1  0.20882000  0.99141000  0.45835000  1.0 -0.5508231566
O  O123  1  0.70882000  0.50859000  0.54165000  1.0 -0.5508231566
O  O124  1  0.79118000  0.49141000  0.04165000  1.0 -0.5508231566
O  O125  1  0.95835000  0.29118000  0.00859000  1.0 -0.5508231566
O  O126  1  0.45835000  0.20882000  0.99141000  1.0 -0.5508231566
O  O127  1  0.54165000  0.70882000  0.50859000  1.0 -0.5508231566
O  O128  1  0.04165000  0.79118000  0.49141000  1.0 -0.5508231566
O  O129  1  0.00859000  0.95835000  0.29118000  1.0 -0.5508231566
O  O130  1  0.99141000  0.45835000  0.20882000  1.0 -0.5508231566
O  O131  1  0.50859000  0.54165000  0.70882000  1.0 -0.5508231566
O  O132  1  0.49141000  0.04165000  0.79118000  1.0 -0.5508231566
O  O133  1  0.70882000  0.99141000  0.04165000  1.0 -0.5508231566
O  O134  1  0.79118000  0.00859000  0.54165000  1.0 -0.5508231566
O  O135  1  0.29118000  0.49141000  0.45835000  1.0 -0.5508231566
O  O136  1  0.20882000  0.50859000  0.95835000  1.0 -0.5508231566
O  O137  1  0.04165000  0.70882000  0.99141000  1.0 -0.5508231566
O  O138  1  0.54165000  0.79118000  0.00859000  1.0 -0.5508231566
O  O139  1  0.45835000  0.29118000  0.49141000  1.0 -0.5508231566
O  O140  1  0.95835000  0.20882000  0.50859000  1.0 -0.5508231566
O  O141  1  0.99141000  0.04165000  0.70882000  1.0 -0.5508231566
O  O142  1  0.00859000  0.54165000  0.79118000  1.0 -0.5508231566
O  O143  1  0.49141000  0.45835000  0.29118000  1.0 -0.5508231566
O  O144  1  0.50859000  0.95835000  0.20882000  1.0 -0.5508231566
O  O145  1  0.43361000  0.95957000  0.14113000  1.0 -0.531134626
O  O146  1  0.06639000  0.04043000  0.64113000  1.0 -0.531134626
O  O147  1  0.56639000  0.45957000  0.35887000  1.0 -0.531134626
O  O148  1  0.93361000  0.54043000  0.85887000  1.0 -0.531134626
O  O149  1  0.14113000  0.43361000  0.95957000  1.0 -0.531134626
O  O150  1  0.64113000  0.06639000  0.04043000  1.0 -0.531134626
O  O151  1  0.35887000  0.56639000  0.45957000  1.0 -0.531134626
O  O152  1  0.85887000  0.93361000  0.54043000  1.0 -0.531134626
O  O153  1  0.95957000  0.14113000  0.43361000  1.0 -0.531134626
O  O154  1  0.04043000  0.64113000  0.06639000  1.0 -0.531134626
O  O155  1  0.45957000  0.35887000  0.56639000  1.0 -0.531134626
O  O156  1  0.54043000  0.85887000  0.93361000  1.0 -0.531134626
O  O157  1  0.56639000  0.04043000  0.85887000  1.0 -0.531134626
O  O158  1  0.93361000  0.95957000  0.35887000  1.0 -0.531134626
O  O159  1  0.43361000  0.54043000  0.64113000  1.0 -0.531134626
O  O160  1  0.06639000  0.45957000  0.14113000  1.0 -0.531134626
O  O161  1  0.85887000  0.56639000  0.04043000  1.0 -0.531134626
O  O162  1  0.35887000  0.93361000  0.95957000  1.0 -0.531134626
O  O163  1  0.64113000  0.43361000  0.54043000  1.0 -0.531134626
O  O164  1  0.14113000  0.06639000  0.45957000  1.0 -0.531134626
O  O165  1  0.04043000  0.85887000  0.56639000  1.0 -0.531134626
O  O166  1  0.95957000  0.35887000  0.93361000  1.0 -0.531134626
O  O167  1  0.54043000  0.64113000  0.43361000  1.0 -0.531134626
O  O168  1  0.45957000  0.14113000  0.06639000  1.0 -0.531134626
O  O169  1  0.42479000  0.95690000  0.19009000  1.0 -0.531134626
O  O170  1  0.07521000  0.04310000  0.69009000  1.0 -0.5375067768
O  O171  1  0.57521000  0.45690000  0.30991000  1.0 -0.531134626
O  O172  1  0.92479000  0.54310000  0.80991000  1.0 -0.531134626
O  O173  1  0.19009000  0.42479000  0.95690000  1.0 -0.531134626
O  O174  1  0.69009000  0.07521000  0.04310000  1.0 -0.5375067768
O  O175  1  0.30991000  0.57521000  0.45690000  1.0 -0.531134626
O  O176  1  0.80991000  0.92479000  0.54310000  1.0 -0.531134626
O  O177  1  0.95690000  0.19009000  0.42479000  1.0 -0.531134626
O  O178  1  0.04310000  0.69009000  0.07521000  1.0 -0.531134626
O  O179  1  0.45690000  0.30991000  0.57521000  1.0 -0.531134626
O  O180  1  0.54310000  0.80991000  0.92479000  1.0 -0.531134626
O  O181  1  0.57521000  0.04310000  0.80991000  1.0 -0.531134626
O  O182  1  0.92479000  0.95690000  0.30991000  1.0 -0.531134626
O  O183  1  0.42479000  0.54310000  0.69009000  1.0 -0.531134626
O  O184  1  0.07521000  0.45690000  0.19009000  1.0 -0.531134626
O  O185  1  0.80991000  0.57521000  0.04310000  1.0 -0.531134626
O  O186  1  0.30991000  0.92479000  0.95690000  1.0 -0.531134626
O  O187  1  0.69009000  0.42479000  0.54310000  1.0 -0.531134626
O  O188  1  0.19009000  0.07521000  0.45690000  1.0 -0.5375067768
O  O189  1  0.04310000  0.80991000  0.57521000  1.0 -0.531134626
O  O190  1  0.95690000  0.30991000  0.92479000  1.0 -0.531134626
O  O191  1  0.54310000  0.69009000  0.42479000  1.0 -0.531134626
O  O192  1  0.45690000  0.19009000  0.07521000  1.0 -0.5375067768
O  O193  1  0.25016000  0.95640000  0.94690000  1.0 -0.3561347458
O  O194  1  0.24984000  0.04360000  0.44690000  1.0 -0.3561347458
O  O195  1  0.74984000  0.45640000  0.55310000  1.0 -0.3561347458
O  O196  1  0.75016000  0.54360000  0.05310000  1.0 -0.354940928
O  O197  1  0.94690000  0.25016000  0.95640000  1.0 -0.3561347458
O  O198  1  0.44690000  0.24984000  0.04360000  1.0 -0.3561347458
O  O199  1  0.55310000  0.74984000  0.45640000  1.0 -0.354940928
O  O200  1  0.05310000  0.75016000  0.54360000  1.0 -0.3561347458
O  O201  1  0.95640000  0.94690000  0.25016000  1.0 -0.354940928
O  O202  1  0.04360000  0.44690000  0.24984000  1.0 -0.354940928
O  O203  1  0.45640000  0.55310000  0.74984000  1.0 -0.3561347458
O  O204  1  0.54360000  0.05310000  0.75016000  1.0 -0.3561347458
O  O205  1  0.74984000  0.04360000  0.05310000  1.0 -0.3561347458
O  O206  1  0.75016000  0.95640000  0.55310000  1.0 -0.354940928
O  O207  1  0.25016000  0.54360000  0.44690000  1.0 -0.3561347458
O  O208  1  0.24984000  0.45640000  0.94690000  1.0 -0.3561347458
O  O209  1  0.05310000  0.74984000  0.04360000  1.0 -0.354940928
O  O210  1  0.55310000  0.75016000  0.95640000  1.0 -0.3561347458
O  O211  1  0.44690000  0.25016000  0.54360000  1.0 -0.3561347458
O  O212  1  0.94690000  0.24984000  0.45640000  1.0 -0.3561347458
O  O213  1  0.04360000  0.05310000  0.74984000  1.0 -0.3561347458
O  O214  1  0.95640000  0.55310000  0.75016000  1.0 -0.3561347458
O  O215  1  0.54360000  0.44690000  0.25016000  1.0 -0.354940928
O  O216  1  0.45640000  0.94690000  0.24984000  1.0 -0.354940928
O  O217  1  0.39675000  0.98620000  0.97690000  1.0 -0.4180483515
O  O218  1  0.10325000  0.01380000  0.47690000  1.0 -0.4180483515
O  O219  1  0.60325000  0.48620000  0.52310000  1.0 -0.4180483515
O  O220  1  0.89675000  0.51380000  0.02310000  1.0 -0.4180483515
O  O221  1  0.97690000  0.39675000  0.98620000  1.0 -0.4180483515
O  O222  1  0.47690000  0.10325000  0.01380000  1.0 -0.4180483515
O  O223  1  0.52310000  0.60325000  0.48620000  1.0 -0.4180483515
O  O224  1  0.02310000  0.89675000  0.51380000  1.0 -0.4180483515
O  O225  1  0.98620000  0.97690000  0.39675000  1.0 -0.4180483515
O  O226  1  0.01380000  0.47690000  0.10325000  1.0 -0.4180483515
O  O227  1  0.48620000  0.52310000  0.60325000  1.0 -0.4180483515
O  O228  1  0.51380000  0.02310000  0.89675000  1.0 -0.4180483515
O  O229  1  0.60325000  0.01380000  0.02310000  1.0 -0.4180483515
O  O230  1  0.89675000  0.98620000  0.52310000  1.0 -0.4180483515
O  O231  1  0.39675000  0.51380000  0.47690000  1.0 -0.4180483515
O  O232  1  0.10325000  0.48620000  0.97690000  1.0 -0.4180483515
O  O233  1  0.02310000  0.60325000  0.01380000  1.0 -0.4180483515
O  O234  1  0.52310000  0.89675000  0.98620000  1.0 -0.4180483515
O  O235  1  0.47690000  0.39675000  0.51380000  1.0 -0.4180483515
O  O236  1  0.97690000  0.10325000  0.48620000  1.0 -0.4180483515
O  O237  1  0.01380000  0.02310000  0.60325000  1.0 -0.4180483515
O  O238  1  0.98620000  0.52310000  0.89675000  1.0 -0.4180483515
O  O239  1  0.51380000  0.47690000  0.39675000  1.0 -0.4180483515
O  O240  1  0.48620000  0.97690000  0.10325000  1.0 -0.4180483515
