# DDEC6 charges by PACMAN v1.1 (https://github.com/mtap-research/PACMAN-charge/)
data_d2cc02041f2_2_FSR_pacman
_symmetry_space_group_name_H-M   'P 1'
_cell_length_a   19.49970000
_cell_length_b   19.64560000
_cell_length_c   32.30930000
_cell_angle_alpha   90.00000000
_cell_angle_beta   90.00000000
_cell_angle_gamma   90.00000000
_symmetry_Int_Tables_number   1
_chemical_formula_structural   Zn2H7C12(NO)5
_chemical_formula_sum   'Zn32 H112 C192 N80 O80'
_cell_volume   12377.15346888
_cell_formula_units_Z   16
loop_
 _symmetry_equiv_pos_site_id
 _symmetry_equiv_pos_as_xyz
  1  'x, y, z'
loop_
 _atom_site_type_symbol
 _atom_site_label
 _atom_site_symmetry_multiplicity
 _atom_site_fract_x
 _atom_site_fract_y
 _atom_site_fract_z
 _atom_site_occupancy
 _atom_site_charge
Zn  Zn1  1  0.36687000  0.55743000  0.47408000  1.0 0.8077369847
Zn  Zn2  1  0.13313000  0.94257000  0.47408000  1.0 0.8077369847
Zn  Zn3  1  0.63313000  0.05743000  0.02592000  1.0 0.8077369847
Zn  Zn4  1  0.86687000  0.44257000  0.02592000  1.0 0.8077369847
Zn  Zn5  1  0.63313000  0.44257000  0.52592000  1.0 0.8077369847
Zn  Zn6  1  0.86687000  0.05743000  0.52592000  1.0 0.8077369847
Zn  Zn7  1  0.36687000  0.94257000  0.97408000  1.0 0.8077369847
Zn  Zn8  1  0.13313000  0.55743000  0.97408000  1.0 0.8077369847
Zn  Zn9  1  0.56316000  0.47225000  0.02494000  1.0 0.9365604289
Zn  Zn10  1  0.93684000  0.02775000  0.02494000  1.0 0.9365604289
Zn  Zn11  1  0.43684000  0.97225000  0.47506000  1.0 0.9365604289
Zn  Zn12  1  0.06316000  0.52775000  0.47506000  1.0 0.9365604289
Zn  Zn13  1  0.43684000  0.52775000  0.97506000  1.0 0.9365604289
Zn  Zn14  1  0.06316000  0.97225000  0.97506000  1.0 0.9365604289
Zn  Zn15  1  0.56316000  0.02775000  0.52494000  1.0 0.9365604289
Zn  Zn16  1  0.93684000  0.47225000  0.52494000  1.0 0.9365604289
Zn  Zn17  1  0.44200000  0.36697000  0.02036000  1.0 0.8327037014
Zn  Zn18  1  0.05800000  0.13303000  0.02036000  1.0 0.8327037014
Zn  Zn19  1  0.55800000  0.86697000  0.47964000  1.0 0.8327037014
Zn  Zn20  1  0.94200000  0.63303000  0.47964000  1.0 0.8327037014
Zn  Zn21  1  0.55800000  0.63303000  0.97964000  1.0 0.8327037014
Zn  Zn22  1  0.94200000  0.86697000  0.97964000  1.0 0.8327037014
Zn  Zn23  1  0.44200000  0.13303000  0.52036000  1.0 0.8327037014
Zn  Zn24  1  0.05800000  0.36697000  0.52036000  1.0 0.8327037014
Zn  Zn25  1  0.46616000  0.43019000  0.48919000  1.0 0.9177768149
Zn  Zn26  1  0.03384000  0.06981000  0.48919000  1.0 0.9177768149
Zn  Zn27  1  0.53384000  0.93019000  0.01081000  1.0 0.9177768149
Zn  Zn28  1  0.96616000  0.56981000  0.01081000  1.0 0.9177768149
Zn  Zn29  1  0.53384000  0.56981000  0.51081000  1.0 0.9177768149
Zn  Zn30  1  0.96616000  0.93019000  0.51081000  1.0 0.9177768149
Zn  Zn31  1  0.46616000  0.06981000  0.98919000  1.0 0.9177768149
Zn  Zn32  1  0.03384000  0.43019000  0.98919000  1.0 0.9177768149
H  H1  1  0.69286000  0.28676000  0.05776000  1.0 0.3204770044
H  H2  1  0.80714000  0.21324000  0.05776000  1.0 0.3204770044
H  H3  1  0.30714000  0.78676000  0.44224000  1.0 0.3204770044
H  H4  1  0.19286000  0.71324000  0.44224000  1.0 0.3204770044
H  H5  1  0.30714000  0.71324000  0.94224000  1.0 0.3204770044
H  H6  1  0.19286000  0.78676000  0.94224000  1.0 0.3204770044
H  H7  1  0.69286000  0.21324000  0.55776000  1.0 0.3204770044
H  H8  1  0.80714000  0.28676000  0.55776000  1.0 0.3204770044
H  H9  1  0.20961000  0.30709000  0.03387000  1.0 0.3204770044
H  H10  1  0.29039000  0.19291000  0.03387000  1.0 0.3204770044
H  H11  1  0.79039000  0.80709000  0.46613000  1.0 0.3204770044
H  H12  1  0.70961000  0.69291000  0.46613000  1.0 0.3204770044
H  H13  1  0.79039000  0.69291000  0.96613000  1.0 0.3204770044
H  H14  1  0.70961000  0.80709000  0.96613000  1.0 0.3204770044
H  H15  1  0.20961000  0.19291000  0.53387000  1.0 0.3204770044
H  H16  1  0.29039000  0.30709000  0.53387000  1.0 0.3204770044
H  H17  1  0.29079000  0.58714000  0.96602000  1.0 0.1100041394
H  H18  1  0.20921000  0.91286000  0.96602000  1.0 0.1100041394
H  H19  1  0.70921000  0.08714000  0.53398000  1.0 0.1100041394
H  H20  1  0.79079000  0.41286000  0.53398000  1.0 0.1100041394
H  H21  1  0.70921000  0.41286000  0.03398000  1.0 0.1100041394
H  H22  1  0.79079000  0.08714000  0.03398000  1.0 0.1100041394
H  H23  1  0.29079000  0.91286000  0.46602000  1.0 0.1100041394
H  H24  1  0.20921000  0.58714000  0.46602000  1.0 0.1100041394
H  H25  1  0.41100000  0.21484000  0.98801000  1.0 0.0985856836
H  H26  1  0.08900000  0.28516000  0.98801000  1.0 0.0985856836
H  H27  1  0.58900000  0.71484000  0.51199000  1.0 0.0985856836
H  H28  1  0.91100000  0.78516000  0.51199000  1.0 0.0985856836
H  H29  1  0.58900000  0.78516000  0.01199000  1.0 0.0985856836
H  H30  1  0.91100000  0.71484000  0.01199000  1.0 0.0985856836
H  H31  1  0.41100000  0.28516000  0.48801000  1.0 0.0985856836
H  H32  1  0.08900000  0.21484000  0.48801000  1.0 0.0985856836
H  H33  1  0.40454000  0.36820000  0.14774000  1.0 0.1374785819
H  H34  1  0.09546000  0.13180000  0.14774000  1.0 0.1374785819
H  H35  1  0.59546000  0.86820000  0.35226000  1.0 0.1374785819
H  H36  1  0.90454000  0.63180000  0.35226000  1.0 0.1374785819
H  H37  1  0.59546000  0.63180000  0.85226000  1.0 0.1374785819
H  H38  1  0.90454000  0.86820000  0.85226000  1.0 0.1374785819
H  H39  1  0.40454000  0.13180000  0.64774000  1.0 0.1374785819
H  H40  1  0.09546000  0.36820000  0.64774000  1.0 0.1374785819
H  H41  1  0.55209000  0.50913000  0.15580000  1.0 0.1100041394
H  H42  1  0.94791000  0.99087000  0.15580000  1.0 0.1100041394
H  H43  1  0.44791000  0.00913000  0.34420000  1.0 0.1100041394
H  H44  1  0.05209000  0.49087000  0.34420000  1.0 0.1100041394
H  H45  1  0.44791000  0.49087000  0.84420000  1.0 0.1100041394
H  H46  1  0.05209000  0.00913000  0.84420000  1.0 0.1100041394
H  H47  1  0.55209000  0.99087000  0.65580000  1.0 0.1100041394
H  H48  1  0.94791000  0.50913000  0.65580000  1.0 0.1100041394
H  H49  1  0.53444000  0.51449000  0.22636000  1.0 0.0985856836
H  H50  1  0.96556000  0.98551000  0.22636000  1.0 0.0985856836
H  H51  1  0.46556000  0.01449000  0.27364000  1.0 0.0985856836
H  H52  1  0.03444000  0.48551000  0.27364000  1.0 0.0985856836
H  H53  1  0.46556000  0.48551000  0.77364000  1.0 0.0985856836
H  H54  1  0.03444000  0.01449000  0.77364000  1.0 0.0985856836
H  H55  1  0.53444000  0.98551000  0.72636000  1.0 0.0985856836
H  H56  1  0.96556000  0.51449000  0.72636000  1.0 0.0985856836
H  H57  1  0.35363000  0.36629000  0.24809000  1.0 0.2703182088
H  H58  1  0.14637000  0.13371000  0.24809000  1.0 0.2703182088
H  H59  1  0.64637000  0.86629000  0.25191000  1.0 0.2777416462
H  H60  1  0.85363000  0.63371000  0.25191000  1.0 0.2777416462
H  H61  1  0.64637000  0.63371000  0.75191000  1.0 0.2703182088
H  H62  1  0.85363000  0.86629000  0.75191000  1.0 0.2777416462
H  H63  1  0.35363000  0.13371000  0.74809000  1.0 0.2703182088
H  H64  1  0.14637000  0.36629000  0.74809000  1.0 0.2703182088
H  H65  1  0.34070000  0.33682000  0.20634000  1.0 0.3006752946
H  H66  1  0.15930000  0.16318000  0.20634000  1.0 0.3006752946
H  H67  1  0.65930000  0.83682000  0.29366000  1.0 0.3006752946
H  H68  1  0.84070000  0.66318000  0.29366000  1.0 0.3006752946
H  H69  1  0.65930000  0.66318000  0.79366000  1.0 0.3006752946
H  H70  1  0.84070000  0.83682000  0.79366000  1.0 0.3006752946
H  H71  1  0.34070000  0.16318000  0.70634000  1.0 0.3006752946
H  H72  1  0.15930000  0.33682000  0.70634000  1.0 0.3006752946
H  H73  1  0.44689000  0.36418000  0.36047000  0.25 0.0882953482
H  H74  1  0.05311000  0.13582000  0.36047000  0.25 0.0882953482
H  H75  1  0.55311000  0.86418000  0.13953000  0.25 0.0882953482
H  H76  1  0.94689000  0.63582000  0.13953000  0.25 0.0882953482
H  H77  1  0.55311000  0.63582000  0.63953000  0.25 0.0882953482
H  H78  1  0.94689000  0.86418000  0.63953000  0.25 0.0882953482
H  H79  1  0.44689000  0.13582000  0.86047000  0.25 0.0882953482
H  H80  1  0.05311000  0.36418000  0.86047000  0.25 0.0882953482
H  H81  1  0.43437000  0.55407000  0.27540000  0.25 0.0882953482
H  H82  1  0.06563000  0.94593000  0.27540000  0.25 0.0882953482
H  H83  1  0.56563000  0.05407000  0.22460000  0.25 0.0882953482
H  H84  1  0.93437000  0.44593000  0.22460000  0.25 0.0882953482
H  H85  1  0.56563000  0.44593000  0.72460000  0.25 0.0882953482
H  H86  1  0.93437000  0.05407000  0.72460000  0.25 0.0882953482
H  H87  1  0.43437000  0.94593000  0.77540000  0.25 0.0882953482
H  H88  1  0.06563000  0.55407000  0.77540000  0.25 0.0882953482
H  H89  1  0.42162000  0.56586000  0.34643000  0.25 0.0985856836
H  H90  1  0.07838000  0.93414000  0.34643000  0.25 0.0985856836
H  H91  1  0.57838000  0.06586000  0.15357000  0.25 0.0985856836
H  H92  1  0.92162000  0.43414000  0.15357000  0.25 0.0985856836
H  H93  1  0.57838000  0.43414000  0.65357000  0.25 0.0985856836
H  H94  1  0.92162000  0.06586000  0.65357000  0.25 0.0985856836
H  H95  1  0.42162000  0.93414000  0.84643000  0.25 0.0985856836
H  H96  1  0.07838000  0.56586000  0.84643000  0.25 0.0985856836
H  H97  1  0.37299000  0.60283000  0.27892000  0.5 0.2408079572
H  H98  1  0.12701000  0.89717000  0.27892000  0.5 0.2408079572
H  H99  1  0.62701000  0.10283000  0.22108000  0.5 0.2408079572
H  H100  1  0.87299000  0.39717000  0.22108000  0.5 0.2408079572
H  H101  1  0.62701000  0.39717000  0.72108000  0.5 0.2408079572
H  H102  1  0.87299000  0.10283000  0.72108000  0.5 0.2408079572
H  H103  1  0.37299000  0.89717000  0.77892000  0.5 0.2408079572
H  H104  1  0.12701000  0.60283000  0.77892000  0.5 0.2408079572
H  H105  1  0.39251000  0.56655000  0.24019000  0.5 0.2116931432
H  H106  1  0.10749000  0.93345000  0.24019000  0.5 0.2116931432
H  H107  1  0.60749000  0.06655000  0.25981000  0.5 0.2116931432
H  H108  1  0.89251000  0.43345000  0.25981000  0.5 0.2116931432
H  H109  1  0.60749000  0.43345000  0.75981000  0.5 0.2116931432
H  H110  1  0.89251000  0.06655000  0.75981000  0.5 0.2116931432
H  H111  1  0.39251000  0.93345000  0.74019000  0.5 0.2116931432
H  H112  1  0.10749000  0.56655000  0.74019000  0.5 0.2116931432
H  H113  1  0.47849000  0.29394000  0.30458000  0.5 0.2777416462
H  H114  1  0.02151000  0.20606000  0.30458000  0.5 0.2777416462
H  H115  1  0.52151000  0.79394000  0.19542000  0.5 0.2777416462
H  H116  1  0.97849000  0.70606000  0.19542000  0.5 0.2777416462
H  H117  1  0.52151000  0.70606000  0.69542000  0.5 0.2777416462
H  H118  1  0.97849000  0.79394000  0.69542000  0.5 0.2777416462
H  H119  1  0.47849000  0.20606000  0.80458000  0.5 0.2777416462
H  H120  1  0.02151000  0.29394000  0.80458000  0.5 0.2777416462
H  H121  1  0.47803000  0.31788000  0.26083000  0.5 0.2703182088
H  H122  1  0.02197000  0.18212000  0.26083000  0.5 0.2703182088
H  H123  1  0.52197000  0.81788000  0.23917000  0.5 0.2703182088
H  H124  1  0.97803000  0.68212000  0.23917000  0.5 0.2703182088
H  H125  1  0.52197000  0.68212000  0.73917000  0.5 0.2703182088
H  H126  1  0.97803000  0.81788000  0.73917000  0.5 0.2703182088
H  H127  1  0.47803000  0.18212000  0.76083000  0.5 0.2703182088
H  H128  1  0.02197000  0.31788000  0.76083000  0.5 0.2703182088
H  H129  1  0.38123000  0.55000000  0.34455000  0.75 0.0985856836
H  H130  1  0.11877000  0.95000000  0.34455000  0.75 0.0985856836
H  H131  1  0.61877000  0.05000000  0.15545000  0.75 0.0985856836
H  H132  1  0.88123000  0.45000000  0.15545000  0.75 0.0985856836
H  H133  1  0.61877000  0.45000000  0.65545000  0.75 0.0985856836
H  H134  1  0.88123000  0.05000000  0.65545000  0.75 0.0985856836
H  H135  1  0.38123000  0.95000000  0.84455000  0.75 0.0985856836
H  H136  1  0.11877000  0.55000000  0.84455000  0.75 0.0985856836
H  H137  1  0.48866000  0.37958000  0.36215000  0.75 0.0882953482
H  H138  1  0.01134000  0.12042000  0.36215000  0.75 0.0882953482
H  H139  1  0.51134000  0.87958000  0.13785000  0.75 0.0882953482
H  H140  1  0.98866000  0.62042000  0.13785000  0.75 0.0882953482
H  H141  1  0.51134000  0.62042000  0.63785000  0.75 0.0882953482
H  H142  1  0.98866000  0.87958000  0.63785000  0.75 0.0882953482
H  H143  1  0.48866000  0.12042000  0.86215000  0.75 0.0882953482
H  H144  1  0.01134000  0.37958000  0.86215000  0.75 0.0882953482
H  H145  1  0.50952000  0.37968000  0.29025000  0.75 0.0882953482
H  H146  1  0.99048000  0.12032000  0.29025000  0.75 0.0882953482
H  H147  1  0.49048000  0.87968000  0.20975000  0.75 0.0882953482
H  H148  1  0.00952000  0.62032000  0.20975000  0.75 0.0882953482
H  H149  1  0.49048000  0.62032000  0.70975000  0.75 0.0882953482
H  H150  1  0.00952000  0.87968000  0.70975000  0.75 0.0882953482
H  H151  1  0.50952000  0.12032000  0.79025000  0.75 0.0882953482
H  H152  1  0.99048000  0.37968000  0.79025000  0.75 0.0882953482
C  C1  1  0.66551000  0.19480000  0.04546000  1.0 0.6338368533
C  C2  1  0.83449000  0.30520000  0.04546000  1.0 0.6338368533
C  C3  1  0.33449000  0.69480000  0.45454000  1.0 0.6338368533
C  C4  1  0.16551000  0.80520000  0.45454000  1.0 0.6338368533
C  C5  1  0.33449000  0.80520000  0.95454000  1.0 0.6338368533
C  C6  1  0.16551000  0.69480000  0.95454000  1.0 0.6338368533
C  C7  1  0.66551000  0.30520000  0.54546000  1.0 0.6338368533
C  C8  1  0.83449000  0.19480000  0.54546000  1.0 0.6353040256
C  C9  1  0.30983000  0.44362000  0.00030000  1.0 0.3204770044
C  C10  1  0.19017000  0.05638000  0.00030000  1.0 0.3204770044
C  C11  1  0.69017000  0.94362000  0.49970000  1.0 0.3204770044
C  C12  1  0.80983000  0.55638000  0.49970000  1.0 0.3204770044
C  C13  1  0.69017000  0.55638000  0.99970000  1.0 0.3204770044
C  C14  1  0.80983000  0.94362000  0.99970000  1.0 0.3204770044
C  C15  1  0.30983000  0.05638000  0.50030000  1.0 0.3204770044
C  C16  1  0.19017000  0.44362000  0.50030000  1.0 0.3204770044
C  C17  1  0.23939000  0.45112000  0.99922000  1.0 -0.1021445738
C  C18  1  0.26061000  0.04888000  0.99922000  1.0 -0.1021445738
C  C19  1  0.76061000  0.95112000  0.50078000  1.0 -0.1021445738
C  C20  1  0.73939000  0.54888000  0.50078000  1.0 -0.1021445738
C  C21  1  0.76061000  0.54888000  0.00078000  1.0 -0.1021445738
C  C22  1  0.73939000  0.95112000  0.00078000  1.0 -0.1021445738
C  C23  1  0.23939000  0.04888000  0.49922000  1.0 -0.1021445738
C  C24  1  0.26061000  0.45112000  0.49922000  1.0 -0.1021445738
C  C25  1  0.55735000  0.19131000  0.01709000  1.0 0.3204770044
C  C26  1  0.94265000  0.30869000  0.01709000  1.0 0.3204770044
C  C27  1  0.44265000  0.69131000  0.48291000  1.0 0.3204770044
C  C28  1  0.05735000  0.80869000  0.48291000  1.0 0.3204770044
C  C29  1  0.44265000  0.80869000  0.98291000  1.0 0.3204770044
C  C30  1  0.05735000  0.69131000  0.98291000  1.0 0.3204770044
C  C31  1  0.55735000  0.30869000  0.51709000  1.0 0.3204770044
C  C32  1  0.94265000  0.19131000  0.51709000  1.0 0.3204770044
C  C33  1  0.30292000  0.33546000  0.02709000  1.0 0.6338368533
C  C34  1  0.19708000  0.16454000  0.02709000  1.0 0.6338368533
C  C35  1  0.69708000  0.83546000  0.47291000  1.0 0.6338368533
C  C36  1  0.80292000  0.66454000  0.47291000  1.0 0.6338368533
C  C37  1  0.69708000  0.66454000  0.97291000  1.0 0.6338368533
C  C38  1  0.80292000  0.83546000  0.97291000  1.0 0.6338368533
C  C39  1  0.30292000  0.16454000  0.52709000  1.0 0.6338368533
C  C40  1  0.19708000  0.33546000  0.52709000  1.0 0.6338368533
C  C41  1  0.60248000  0.30222000  0.03626000  1.0 0.4731523462
C  C42  1  0.89752000  0.19778000  0.03626000  1.0 0.4731523462
C  C43  1  0.39752000  0.80222000  0.46374000  1.0 0.4731523462
C  C44  1  0.10248000  0.69778000  0.46374000  1.0 0.4731523462
C  C45  1  0.39752000  0.69778000  0.96374000  1.0 0.4731523462
C  C46  1  0.10248000  0.80222000  0.96374000  1.0 0.4731523462
C  C47  1  0.60248000  0.19778000  0.53626000  1.0 0.4731523462
C  C48  1  0.89752000  0.30222000  0.53626000  1.0 0.4731523462
C  C49  1  0.28537000  0.54353000  0.97673000  1.0 0.2116931432
C  C50  1  0.21463000  0.95647000  0.97673000  1.0 0.2116931432
C  C51  1  0.71463000  0.04353000  0.52327000  1.0 0.2116931432
C  C52  1  0.78537000  0.45647000  0.52327000  1.0 0.2116931432
C  C53  1  0.71463000  0.45647000  0.02327000  1.0 0.2116931432
C  C54  1  0.78537000  0.04353000  0.02327000  1.0 0.2116931432
C  C55  1  0.28537000  0.95647000  0.47673000  1.0 0.2116931432
C  C56  1  0.21463000  0.54353000  0.47673000  1.0 0.2116931432
C  C57  1  0.54916000  0.26105000  0.02115000  1.0 -0.1021445738
C  C58  1  0.95084000  0.23895000  0.02115000  1.0 -0.1021445738
C  C59  1  0.45084000  0.76105000  0.47885000  1.0 -0.1021445738
C  C60  1  0.04916000  0.73895000  0.47885000  1.0 -0.1021445738
C  C61  1  0.45084000  0.73895000  0.97885000  1.0 -0.1021445738
C  C62  1  0.04916000  0.76105000  0.97885000  1.0 -0.1021445738
C  C63  1  0.54916000  0.23895000  0.52115000  1.0 -0.1021445738
C  C64  1  0.95084000  0.26105000  0.52115000  1.0 -0.1021445738
C  C65  1  0.45562000  0.21875000  0.99789000  1.0 0.2116931432
C  C66  1  0.04438000  0.28125000  0.99789000  1.0 0.2116931432
C  C67  1  0.54438000  0.71875000  0.50211000  1.0 0.2116931432
C  C68  1  0.95562000  0.78125000  0.50211000  1.0 0.2116931432
C  C69  1  0.54438000  0.78125000  0.00211000  1.0 0.2116931432
C  C70  1  0.95562000  0.71875000  0.00211000  1.0 0.2116931432
C  C71  1  0.45562000  0.28125000  0.49789000  1.0 0.2116931432
C  C72  1  0.04438000  0.21875000  0.49789000  1.0 0.2116931432
C  C73  1  0.19661000  0.39699000  0.01116000  1.0 0.4775872782
C  C74  1  0.30339000  0.10301000  0.01116000  1.0 0.4775872782
C  C75  1  0.80339000  0.89699000  0.48884000  1.0 0.4775872782
C  C76  1  0.69661000  0.60301000  0.48884000  1.0 0.4775872782
C  C77  1  0.80339000  0.60301000  0.98884000  1.0 0.4775872782
C  C78  1  0.69661000  0.89699000  0.98884000  1.0 0.4775872782
C  C79  1  0.19661000  0.10301000  0.51116000  1.0 0.4775872782
C  C80  1  0.30339000  0.39699000  0.51116000  1.0 0.4775872782
C  C81  1  0.49118000  0.43297000  0.09908000  1.0 0.5839779593
C  C82  1  0.00882000  0.06703000  0.09908000  1.0 0.5839779593
C  C83  1  0.50882000  0.93297000  0.40092000  1.0 0.5839779593
C  C84  1  0.99118000  0.56703000  0.40092000  1.0 0.5839779593
C  C85  1  0.50882000  0.56703000  0.90092000  1.0 0.5839779593
C  C86  1  0.99118000  0.93297000  0.90092000  1.0 0.5839779593
C  C87  1  0.49118000  0.06703000  0.59908000  1.0 0.5839779593
C  C88  1  0.00882000  0.43297000  0.59908000  1.0 0.5839779593
C  C89  1  0.42557000  0.47441000  0.40599000  1.0 0.5300513871
C  C90  1  0.07443000  0.02559000  0.40599000  1.0 0.5300513871
C  C91  1  0.57443000  0.97441000  0.09401000  1.0 0.5300513871
C  C92  1  0.92557000  0.52559000  0.09401000  1.0 0.5300513871
C  C93  1  0.57443000  0.52559000  0.59401000  1.0 0.5300513871
C  C94  1  0.92557000  0.97441000  0.59401000  1.0 0.5300513871
C  C95  1  0.42557000  0.02559000  0.90599000  1.0 0.5300513871
C  C96  1  0.07443000  0.47441000  0.90599000  1.0 0.5300513871
C  C97  1  0.43300000  0.46620000  0.36049000  1.0 -0.0513703001
C  C98  1  0.06700000  0.03380000  0.36049000  1.0 -0.0513703001
C  C99  1  0.56700000  0.96620000  0.13951000  1.0 -0.0513703001
C  C100  1  0.93300000  0.53380000  0.13951000  1.0 -0.0513703001
C  C101  1  0.56700000  0.53380000  0.63951000  1.0 -0.0513703001
C  C102  1  0.93300000  0.96620000  0.63951000  1.0 -0.0513703001
C  C103  1  0.43300000  0.03380000  0.86049000  1.0 -0.0513703001
C  C104  1  0.06700000  0.46620000  0.86049000  1.0 -0.0513703001
C  C105  1  0.44830000  0.45210000  0.27538000  1.0 -0.0672812075
C  C106  1  0.05170000  0.04790000  0.27538000  1.0 -0.0672812075
C  C107  1  0.55170000  0.95210000  0.22462000  1.0 -0.0672812075
C  C108  1  0.94830000  0.54790000  0.22462000  1.0 -0.0672812075
C  C109  1  0.55170000  0.54790000  0.72462000  1.0 -0.0672812075
C  C110  1  0.94830000  0.95210000  0.72462000  1.0 -0.0640704155
C  C111  1  0.44830000  0.04790000  0.77538000  1.0 -0.0672812075
C  C112  1  0.05170000  0.45210000  0.77538000  1.0 -0.0672812075
C  C113  1  0.48000000  0.43792000  0.14436000  1.0 -0.0303150304
C  C114  1  0.02000000  0.06208000  0.14436000  1.0 -0.0303150304
C  C115  1  0.52000000  0.93792000  0.35564000  1.0 -0.0303150304
C  C116  1  0.98000000  0.56208000  0.35564000  1.0 -0.0303150304
C  C117  1  0.52000000  0.56208000  0.85564000  1.0 -0.0303150304
C  C118  1  0.98000000  0.93792000  0.85564000  1.0 -0.0303150304
C  C119  1  0.48000000  0.06208000  0.64436000  1.0 -0.0303150304
C  C120  1  0.02000000  0.43792000  0.64436000  1.0 -0.0303150304
C  C121  1  0.45900000  0.44600000  0.22952000  1.0 -0.0244046364
C  C122  1  0.04100000  0.05400000  0.22952000  1.0 -0.0244046364
C  C123  1  0.54100000  0.94600000  0.27048000  1.0 -0.0303150304
C  C124  1  0.95900000  0.55400000  0.27048000  1.0 -0.0244046364
C  C125  1  0.54100000  0.55400000  0.77048000  1.0 -0.0303150304
C  C126  1  0.95900000  0.94600000  0.77048000  1.0 -0.0244046364
C  C127  1  0.45900000  0.05400000  0.72952000  1.0 -0.0244046364
C  C128  1  0.04100000  0.44600000  0.72952000  1.0 -0.0303150304
C  C129  1  0.43070000  0.39820000  0.16343000  1.0 -0.1895915351
C  C130  1  0.06930000  0.10180000  0.16343000  1.0 -0.1895915351
C  C131  1  0.56930000  0.89820000  0.33657000  1.0 -0.1895915351
C  C132  1  0.93070000  0.60180000  0.33657000  1.0 -0.1895915351
C  C133  1  0.56930000  0.60180000  0.83657000  1.0 -0.1895915351
C  C134  1  0.93070000  0.89820000  0.83657000  1.0 -0.1895915351
C  C135  1  0.43070000  0.10180000  0.66343000  1.0 -0.1895915351
C  C136  1  0.06930000  0.39820000  0.66343000  1.0 -0.1895915351
C  C137  1  0.51890000  0.48190000  0.16812000  1.0 -0.1057244015
C  C138  1  0.98110000  0.01810000  0.16812000  1.0 -0.1057244015
C  C139  1  0.48110000  0.98190000  0.33188000  1.0 -0.1057244015
C  C140  1  0.01890000  0.51810000  0.33188000  1.0 -0.1057244015
C  C141  1  0.48110000  0.51810000  0.83188000  1.0 -0.1057244015
C  C142  1  0.01890000  0.98190000  0.83188000  1.0 -0.1057244015
C  C143  1  0.51890000  0.01810000  0.66812000  1.0 -0.1057244015
C  C144  1  0.98110000  0.48190000  0.66812000  1.0 -0.1057244015
C  C145  1  0.42000000  0.40280000  0.20563000  1.0 0.2116931432
C  C146  1  0.08000000  0.09720000  0.20563000  1.0 0.2116931432
C  C147  1  0.58000000  0.90280000  0.29437000  1.0 0.2116931432
C  C148  1  0.92000000  0.59720000  0.29437000  1.0 0.2116931432
C  C149  1  0.58000000  0.59720000  0.79437000  1.0 0.2116931432
C  C150  1  0.92000000  0.90280000  0.79437000  1.0 0.2116931432
C  C151  1  0.42000000  0.09720000  0.70563000  1.0 0.2116931432
C  C152  1  0.08000000  0.40280000  0.70563000  1.0 0.2116931432
C  C153  1  0.50790000  0.48510000  0.21047000  1.0 -0.1755188189
C  C154  1  0.99210000  0.01490000  0.21047000  1.0 -0.1755188189
C  C155  1  0.49210000  0.98510000  0.28953000  1.0 -0.1746496938
C  C156  1  0.00790000  0.51490000  0.28953000  1.0 -0.1746496938
C  C157  1  0.49210000  0.51490000  0.78953000  1.0 -0.1755188189
C  C158  1  0.00790000  0.98510000  0.78953000  1.0 -0.1755188189
C  C159  1  0.50790000  0.01490000  0.71047000  1.0 -0.1755188189
C  C160  1  0.99210000  0.48510000  0.71047000  1.0 -0.1755188189
C  C161  1  0.44440000  0.40224000  0.34342000  0.25 -0.0797058425
C  C162  1  0.05560000  0.09776000  0.34342000  0.25 -0.0797058425
C  C163  1  0.55560000  0.90224000  0.15658000  0.25 -0.0797058425
C  C164  1  0.94440000  0.59776000  0.15658000  0.25 -0.0797058425
C  C165  1  0.55560000  0.59776000  0.65658000  0.25 -0.0797058425
C  C166  1  0.94440000  0.90224000  0.65658000  0.25 -0.0797058425
C  C167  1  0.44440000  0.09776000  0.84342000  0.25 -0.0797058425
C  C168  1  0.05560000  0.40224000  0.84342000  0.25 -0.0797058425
C  C169  1  0.45200000  0.39517000  0.30086000  0.25 0.0564630947
C  C170  1  0.04800000  0.10483000  0.30086000  0.25 0.0564630947
C  C171  1  0.54800000  0.89517000  0.19914000  0.25 0.0564630947
C  C172  1  0.95200000  0.60483000  0.19914000  0.25 0.0564630947
C  C173  1  0.54800000  0.60483000  0.69914000  0.25 0.0564630947
C  C174  1  0.95200000  0.89517000  0.69914000  0.25 0.0564630947
C  C175  1  0.45200000  0.10483000  0.80086000  0.25 0.0564630947
C  C176  1  0.04800000  0.39517000  0.80086000  0.25 0.0564630947
C  C177  1  0.43690000  0.51601000  0.29245000  0.25 0.0403407936
C  C178  1  0.06310000  0.98399000  0.29245000  0.25 0.0403407936
C  C179  1  0.56310000  0.01601000  0.20755000  0.25 0.0403407936
C  C180  1  0.93690000  0.48399000  0.20755000  0.25 0.0403407936
C  C181  1  0.56310000  0.48399000  0.70755000  0.25 0.0403407936
C  C182  1  0.93690000  0.01601000  0.70755000  0.25 0.0403407936
C  C183  1  0.43690000  0.98399000  0.79245000  0.25 0.0403407936
C  C184  1  0.06310000  0.51601000  0.79245000  0.25 0.0403407936
C  C185  1  0.42920000  0.52308000  0.33501000  0.25 -0.1021445738
C  C186  1  0.07080000  0.97692000  0.33501000  0.25 -0.1021445738
C  C187  1  0.57080000  0.02308000  0.16499000  0.25 -0.1021445738
C  C188  1  0.92920000  0.47692000  0.16499000  0.25 -0.1021445738
C  C189  1  0.57080000  0.47692000  0.66499000  0.25 -0.1021445738
C  C190  1  0.92920000  0.02308000  0.66499000  0.25 -0.1021445738
C  C191  1  0.42920000  0.97692000  0.83501000  0.25 -0.1021445738
C  C192  1  0.07080000  0.52308000  0.83501000  0.25 -0.1021445738
C  C193  1  0.40530000  0.51320000  0.33374000  0.75 -0.1021445738
C  C194  1  0.09470000  0.98680000  0.33374000  0.75 -0.1021445738
C  C195  1  0.59470000  0.01320000  0.16626000  0.75 -0.1021445738
C  C196  1  0.90530000  0.48680000  0.16626000  0.75 -0.1021445738
C  C197  1  0.59470000  0.48680000  0.66626000  0.75 -0.1021445738
C  C198  1  0.90530000  0.01320000  0.66626000  0.75 -0.1021445738
C  C199  1  0.40530000  0.98680000  0.83374000  0.75 -0.1021445738
C  C200  1  0.09470000  0.51320000  0.83374000  0.75 -0.1021445738
C  C201  1  0.47030000  0.41300000  0.34506000  0.75 -0.0870436251
C  C202  1  0.02970000  0.08700000  0.34506000  0.75 -0.0870436251
C  C203  1  0.52970000  0.91300000  0.15494000  0.75 -0.0870436251
C  C204  1  0.97030000  0.58700000  0.15494000  0.75 -0.0870436251
C  C205  1  0.52970000  0.58700000  0.65494000  0.75 -0.0870436251
C  C206  1  0.97030000  0.91300000  0.65494000  0.75 -0.0870436251
C  C207  1  0.47030000  0.08700000  0.84506000  0.75 -0.0870436251
C  C208  1  0.02970000  0.41300000  0.84506000  0.75 -0.0870436251
C  C209  1  0.47930000  0.41170000  0.30110000  0.75 0.0087838831
C  C210  1  0.02070000  0.08830000  0.30110000  0.75 0.0087838831
C  C211  1  0.52070000  0.91170000  0.19890000  0.75 0.0087838831
C  C212  1  0.97930000  0.58830000  0.19890000  0.75 0.0087838831
C  C213  1  0.52070000  0.58830000  0.69890000  0.75 0.0087838831
C  C214  1  0.97930000  0.91170000  0.69890000  0.75 0.0087838831
C  C215  1  0.47930000  0.08830000  0.80110000  0.75 0.0087838831
C  C216  1  0.02070000  0.41170000  0.80110000  0.75 0.0087838831
C  C217  1  0.41220000  0.50760000  0.29170000  0.75 0.0403407936
C  C218  1  0.08780000  0.99240000  0.29170000  0.75 0.0403407936
C  C219  1  0.58780000  0.00760000  0.20830000  0.75 0.0403407936
C  C220  1  0.91220000  0.49240000  0.20830000  0.75 0.0403407936
C  C221  1  0.58780000  0.49240000  0.70830000  0.75 0.0403407936
C  C222  1  0.91220000  0.00760000  0.70830000  0.75 0.0403407936
C  C223  1  0.41220000  0.99240000  0.79170000  0.75 0.0403407936
C  C224  1  0.08780000  0.50760000  0.79170000  0.75 0.0403407936
N  N1  1  0.61526000  0.15657000  0.02816000  1.0 -0.5095361007
N  N2  1  0.88474000  0.34343000  0.02816000  1.0 -0.5095361007
N  N3  1  0.38474000  0.65657000  0.47184000  1.0 -0.5095361007
N  N4  1  0.11526000  0.84343000  0.47184000  1.0 -0.5095361007
N  N5  1  0.38474000  0.84343000  0.97184000  1.0 -0.5095361007
N  N6  1  0.11526000  0.65657000  0.97184000  1.0 -0.5095361007
N  N7  1  0.61526000  0.34343000  0.52816000  1.0 -0.5095361007
N  N8  1  0.88474000  0.15657000  0.52816000  1.0 -0.5095361007
N  N9  1  0.22423000  0.51607000  0.98428000  1.0 -0.2852079056
N  N10  1  0.27577000  0.98393000  0.98428000  1.0 -0.2852079056
N  N11  1  0.77577000  0.01607000  0.51572000  1.0 -0.2852079056
N  N12  1  0.72423000  0.48393000  0.51572000  1.0 -0.2852079056
N  N13  1  0.77577000  0.48393000  0.01572000  1.0 -0.2847038589
N  N14  1  0.72423000  0.01607000  0.01572000  1.0 -0.2847038589
N  N15  1  0.22423000  0.98393000  0.48428000  1.0 -0.2852079056
N  N16  1  0.27577000  0.51607000  0.48428000  1.0 -0.2852079056
N  N17  1  0.49788000  0.16447000  0.00239000  1.0 -0.380406399
N  N18  1  0.00212000  0.33553000  0.00239000  1.0 -0.380406399
N  N19  1  0.50212000  0.66447000  0.49761000  1.0 -0.380406399
N  N20  1  0.99788000  0.83553000  0.49761000  1.0 -0.380406399
N  N21  1  0.50212000  0.83553000  0.99761000  1.0 -0.380406399
N  N22  1  0.99788000  0.66447000  0.99761000  1.0 -0.380406399
N  N23  1  0.49788000  0.33553000  0.50239000  1.0 -0.380406399
N  N24  1  0.00212000  0.16447000  0.50239000  1.0 -0.380406399
N  N25  1  0.34323000  0.38673000  0.01348000  1.0 -0.5095361007
N  N26  1  0.15677000  0.11327000  0.01348000  1.0 -0.5095361007
N  N27  1  0.65677000  0.88673000  0.48652000  1.0 -0.5095361007
N  N28  1  0.84323000  0.61327000  0.48652000  1.0 -0.5095361007
N  N29  1  0.65677000  0.61327000  0.98652000  1.0 -0.5095361007
N  N30  1  0.84323000  0.88673000  0.98652000  1.0 -0.5095361007
N  N31  1  0.34323000  0.11327000  0.51348000  1.0 -0.5095361007
N  N32  1  0.15677000  0.38673000  0.51348000  1.0 -0.5095361007
N  N33  1  0.48317000  0.27806000  0.00874000  1.0 -0.2704291425
N  N34  1  0.01683000  0.22194000  0.00874000  1.0 -0.2704291425
N  N35  1  0.51683000  0.77806000  0.49126000  1.0 -0.2704291425
N  N36  1  0.98317000  0.72194000  0.49126000  1.0 -0.2704291425
N  N37  1  0.51683000  0.72194000  0.99126000  1.0 -0.2704291425
N  N38  1  0.98317000  0.77806000  0.99126000  1.0 -0.2704291425
N  N39  1  0.48317000  0.22194000  0.50874000  1.0 -0.2704291425
N  N40  1  0.01683000  0.27806000  0.50874000  1.0 -0.2704291425
N  N41  1  0.33928000  0.50225000  0.98604000  1.0 -0.380406399
N  N42  1  0.16072000  0.99775000  0.98604000  1.0 -0.380406399
N  N43  1  0.66072000  0.00225000  0.51396000  1.0 -0.380406399
N  N44  1  0.83928000  0.49775000  0.51396000  1.0 -0.380406399
N  N45  1  0.66072000  0.49775000  0.01396000  1.0 -0.380406399
N  N46  1  0.83928000  0.00225000  0.01396000  1.0 -0.380406399
N  N47  1  0.33928000  0.99775000  0.48604000  1.0 -0.380406399
N  N48  1  0.16072000  0.50225000  0.48604000  1.0 -0.380406399
N  N49  1  0.65853000  0.26457000  0.04791000  1.0 -0.4193817757
N  N50  1  0.84147000  0.23543000  0.04791000  1.0 -0.4193817757
N  N51  1  0.34147000  0.76457000  0.45209000  1.0 -0.4193817757
N  N52  1  0.15853000  0.73543000  0.45209000  1.0 -0.4193817757
N  N53  1  0.34147000  0.73543000  0.95209000  1.0 -0.4193817757
N  N54  1  0.15853000  0.76457000  0.95209000  1.0 -0.4193817757
N  N55  1  0.65853000  0.23543000  0.54791000  1.0 -0.4193817757
N  N56  1  0.84147000  0.26457000  0.54791000  1.0 -0.4193817757
N  N57  1  0.23311000  0.34136000  0.02532000  1.0 -0.4193817757
N  N58  1  0.26689000  0.15864000  0.02532000  1.0 -0.4193817757
N  N59  1  0.76689000  0.84136000  0.47468000  1.0 -0.4193817757
N  N60  1  0.73311000  0.65864000  0.47468000  1.0 -0.4193817757
N  N61  1  0.76689000  0.65864000  0.97468000  1.0 -0.4193817757
N  N62  1  0.73311000  0.84136000  0.97468000  1.0 -0.4193817757
N  N63  1  0.23311000  0.15864000  0.52532000  1.0 -0.4193817757
N  N64  1  0.26689000  0.34136000  0.52532000  1.0 -0.4193817757
N  N65  1  0.36390000  0.36330000  0.22230000  1.0 -0.5959557376
N  N66  1  0.13610000  0.13670000  0.22230000  1.0 -0.5959557376
N  N67  1  0.63610000  0.86330000  0.27770000  1.0 -0.5959557376
N  N68  1  0.86390000  0.63670000  0.27770000  1.0 -0.5959557376
N  N69  1  0.63610000  0.63670000  0.77770000  1.0 -0.5959557376
N  N70  1  0.86390000  0.86330000  0.77770000  1.0 -0.5959557376
N  N71  1  0.36390000  0.13670000  0.72230000  1.0 -0.5959557376
N  N72  1  0.13610000  0.36330000  0.72230000  1.0 -0.5959557376
N  N73  1  0.38930000  0.56750000  0.26673000  0.5 -0.4193817757
N  N74  1  0.11070000  0.93250000  0.26673000  0.5 -0.4193817757
N  N75  1  0.61070000  0.06750000  0.23327000  0.5 -0.4193817757
N  N76  1  0.88930000  0.43250000  0.23327000  0.5 -0.4193817757
N  N77  1  0.61070000  0.43250000  0.73327000  0.5 -0.4193817757
N  N78  1  0.88930000  0.06750000  0.73327000  0.5 -0.4193817757
N  N79  1  0.38930000  0.93250000  0.76673000  0.5 -0.4193817757
N  N80  1  0.11070000  0.56750000  0.76673000  0.5 -0.4193817757
N  N81  1  0.47240000  0.32590000  0.28680000  0.5 -0.4602230193
N  N82  1  0.02760000  0.17410000  0.28680000  0.5 -0.4694594723
N  N83  1  0.52760000  0.82590000  0.21320000  0.5 -0.4602230193
N  N84  1  0.97240000  0.67410000  0.21320000  0.5 -0.4602230193
N  N85  1  0.52760000  0.67410000  0.71320000  0.5 -0.4602230193
N  N86  1  0.97240000  0.82590000  0.71320000  0.5 -0.4602230193
N  N87  1  0.47240000  0.17410000  0.78680000  0.5 -0.4602230193
N  N88  1  0.02760000  0.32590000  0.78680000  0.5 -0.4602230193
O  O1  1  0.71898000  0.16766000  0.05952000  1.0 -0.5768677078
O  O2  1  0.78102000  0.33234000  0.05952000  1.0 -0.5768677078
O  O3  1  0.28102000  0.66766000  0.44048000  1.0 -0.5768677078
O  O4  1  0.21898000  0.83234000  0.44048000  1.0 -0.5768677078
O  O5  1  0.28102000  0.83234000  0.94048000  1.0 -0.5768677078
O  O6  1  0.21898000  0.66766000  0.94048000  1.0 -0.5768677078
O  O7  1  0.71898000  0.33234000  0.55952000  1.0 -0.5768677078
O  O8  1  0.78102000  0.16766000  0.55952000  1.0 -0.5768677078
O  O9  1  0.43809000  0.52148000  0.51225000  1.0 -0.76727105
O  O10  1  0.06191000  0.97852000  0.51225000  1.0 -0.76727105
O  O11  1  0.56191000  0.02148000  0.98775000  1.0 -0.76727105
O  O12  1  0.93809000  0.47852000  0.98775000  1.0 -0.76727105
O  O13  1  0.56191000  0.47852000  0.48775000  1.0 -0.76727105
O  O14  1  0.93809000  0.02148000  0.48775000  1.0 -0.76727105
O  O15  1  0.43809000  0.97852000  0.01225000  1.0 -0.76727105
O  O16  1  0.06191000  0.52148000  0.01225000  1.0 -0.76727105
O  O17  1  0.49117000  0.43600000  0.98715000  1.0 -0.830687911
O  O18  1  0.00883000  0.06400000  0.98715000  1.0 -0.830687911
O  O19  1  0.50883000  0.93600000  0.51285000  1.0 -0.830687911
O  O20  1  0.99117000  0.56400000  0.51285000  1.0 -0.830687911
O  O21  1  0.50883000  0.56400000  0.01285000  1.0 -0.830687911
O  O22  1  0.99117000  0.93600000  0.01285000  1.0 -0.830687911
O  O23  1  0.49117000  0.06400000  0.48715000  1.0 -0.830687911
O  O24  1  0.00883000  0.43600000  0.48715000  1.0 -0.830687911
O  O25  1  0.53444000  0.47333000  0.08332000  1.0 -0.5095361007
O  O26  1  0.96556000  0.02667000  0.08332000  1.0 -0.5095361007
O  O27  1  0.46556000  0.97333000  0.41668000  1.0 -0.5095361007
O  O28  1  0.03444000  0.52667000  0.41668000  1.0 -0.5095361007
O  O29  1  0.46556000  0.52667000  0.91668000  1.0 -0.5095361007
O  O30  1  0.03444000  0.97333000  0.91668000  1.0 -0.5095361007
O  O31  1  0.53444000  0.02667000  0.58332000  1.0 -0.5095361007
O  O32  1  0.96556000  0.47333000  0.58332000  1.0 -0.5095361007
O  O33  1  0.32956000  0.28203000  0.04148000  1.0 -0.5668670169
O  O34  1  0.17044000  0.21797000  0.04148000  1.0 -0.5668670169
O  O35  1  0.67044000  0.78203000  0.45852000  1.0 -0.5668670169
O  O36  1  0.82956000  0.71797000  0.45852000  1.0 -0.5668670169
O  O37  1  0.67044000  0.71797000  0.95852000  1.0 -0.5668670169
O  O38  1  0.82956000  0.78203000  0.95852000  1.0 -0.5668670169
O  O39  1  0.32956000  0.21797000  0.54148000  1.0 -0.5668670169
O  O40  1  0.17044000  0.28203000  0.54148000  1.0 -0.5668670169
O  O41  1  0.60248000  0.36589000  0.03987000  1.0 -0.4963255606
O  O42  1  0.89752000  0.13411000  0.03987000  1.0 -0.4963255606
O  O43  1  0.39752000  0.86589000  0.46013000  1.0 -0.4963255606
O  O44  1  0.10248000  0.63411000  0.46013000  1.0 -0.4963255606
O  O45  1  0.39752000  0.63411000  0.96013000  1.0 -0.4963255606
O  O46  1  0.10248000  0.86589000  0.96013000  1.0 -0.4963255606
O  O47  1  0.60248000  0.13411000  0.53987000  1.0 -0.4963255606
O  O48  1  0.89752000  0.36589000  0.53987000  1.0 -0.4963255606
O  O49  1  0.45668000  0.38917000  0.07940000  1.0 -0.5392052017
O  O50  1  0.04332000  0.11083000  0.07940000  1.0 -0.5392052017
O  O51  1  0.54332000  0.88917000  0.42060000  1.0 -0.5392052017
O  O52  1  0.95668000  0.61083000  0.42060000  1.0 -0.5392052017
O  O53  1  0.54332000  0.61083000  0.92060000  1.0 -0.5392052017
O  O54  1  0.95668000  0.88917000  0.92060000  1.0 -0.5392052017
O  O55  1  0.45668000  0.11083000  0.57940000  1.0 -0.5392052017
O  O56  1  0.04332000  0.38917000  0.57940000  1.0 -0.5392052017
O  O57  1  0.13305000  0.39379000  0.00970000  1.0 -0.4812200747
O  O58  1  0.36695000  0.10621000  0.00970000  1.0 -0.4812200747
O  O59  1  0.86695000  0.89379000  0.49030000  1.0 -0.4812200747
O  O60  1  0.63305000  0.60621000  0.49030000  1.0 -0.4812200747
O  O61  1  0.86695000  0.60621000  0.99030000  1.0 -0.4812200747
O  O62  1  0.63305000  0.89379000  0.99030000  1.0 -0.4812200747
O  O63  1  0.13305000  0.10621000  0.50970000  1.0 -0.4812200747
O  O64  1  0.36695000  0.39379000  0.50970000  1.0 -0.4812200747
O  O65  1  0.44791000  0.42779000  0.42894000  1.0 -0.4602230193
O  O66  1  0.05209000  0.07221000  0.42894000  1.0 -0.4602230193
O  O67  1  0.55209000  0.92779000  0.07106000  1.0 -0.4602230193
O  O68  1  0.94791000  0.57221000  0.07106000  1.0 -0.4602230193
O  O69  1  0.55209000  0.57221000  0.57106000  1.0 -0.4602230193
O  O70  1  0.94791000  0.92779000  0.57106000  1.0 -0.4602230193
O  O71  1  0.44791000  0.07221000  0.92894000  1.0 -0.4602230193
O  O72  1  0.05209000  0.42779000  0.92894000  1.0 -0.4602230193
O  O73  1  0.39796000  0.52832000  0.41890000  1.0 -0.4694594723
O  O74  1  0.10204000  0.97168000  0.41890000  1.0 -0.4694594723
O  O75  1  0.60204000  0.02832000  0.08110000  1.0 -0.4694594723
O  O76  1  0.89796000  0.47168000  0.08110000  1.0 -0.4694594723
O  O77  1  0.60204000  0.47168000  0.58110000  1.0 -0.4694594723
O  O78  1  0.89796000  0.02832000  0.58110000  1.0 -0.4694594723
O  O79  1  0.39796000  0.97168000  0.91890000  1.0 -0.4694594723
O  O80  1  0.10204000  0.52832000  0.91890000  1.0 -0.4694594723
