# DDEC6 charges by PACMAN v1.1 (https://github.com/mtap-research/PACMAN-charge/)
data_c7dt00217c2_2_ion_pacman
_symmetry_space_group_name_H-M   'P 1'
_cell_length_a   30.75610000
_cell_length_b   30.75610000
_cell_length_c   30.75610000
_cell_angle_alpha   90.00000000
_cell_angle_beta   90.00000000
_cell_angle_gamma   90.00000000
_symmetry_Int_Tables_number   1
_chemical_formula_structural   Zn11Si19H201C133N19Cl6O35
_chemical_formula_sum   'Zn66 Si114 H1206 C798 N114 Cl36 O210'
_cell_volume   29093.35410160
_cell_formula_units_Z   6
loop_
 _symmetry_equiv_pos_site_id
 _symmetry_equiv_pos_as_xyz
  1  'x, y, z'
loop_
 _atom_site_type_symbol
 _atom_site_label
 _atom_site_symmetry_multiplicity
 _atom_site_fract_x
 _atom_site_fract_y
 _atom_site_fract_z
 _atom_site_occupancy
 _atom_site_charge
Zn  Zn1  1  0.17146000  0.12500000  0.07854000  1.0 0.8023586689
Zn  Zn2  1  0.12500000  0.92146000  0.32854000  1.0 0.4690641134
Zn  Zn3  1  0.32854000  0.87500000  0.57854000  1.0 0.8266244152
Zn  Zn4  1  0.37500000  0.07854000  0.82854000  1.0 0.6047569532
Zn  Zn5  1  0.17146000  0.87500000  0.42146000  1.0 0.481316381
Zn  Zn6  1  0.37500000  0.92146000  0.67146000  1.0 0.8266244152
Zn  Zn7  1  0.32854000  0.12500000  0.92146000  1.0 0.4690641134
Zn  Zn8  1  0.12500000  0.07854000  0.17146000  1.0 0.8023586689
Zn  Zn9  1  0.07854000  0.17146000  0.12500000  1.0 0.8023586689
Zn  Zn10  1  0.07854000  0.82854000  0.37500000  1.0 0.6047569532
Zn  Zn11  1  0.42146000  0.82854000  0.62500000  1.0 0.8266244152
Zn  Zn12  1  0.42146000  0.17146000  0.87500000  1.0 0.481316381
Zn  Zn13  1  0.67146000  0.37500000  0.92146000  1.0 0.8266244152
Zn  Zn14  1  0.82854000  0.37500000  0.07854000  1.0 0.6047569532
Zn  Zn15  1  0.87500000  0.42146000  0.17146000  1.0 0.481316381
Zn  Zn16  1  0.87500000  0.57854000  0.32854000  1.0 0.8266244152
Zn  Zn17  1  0.67146000  0.62500000  0.57854000  1.0 0.8157439052
Zn  Zn18  1  0.62500000  0.42146000  0.82854000  1.0 0.8266244152
Zn  Zn19  1  0.82854000  0.62500000  0.42146000  1.0 0.8266244152
Zn  Zn20  1  0.62500000  0.57854000  0.67146000  1.0 0.8157439052
Zn  Zn21  1  0.57854000  0.67146000  0.62500000  1.0 0.8157439052
Zn  Zn22  1  0.57854000  0.32854000  0.87500000  1.0 0.8266244152
Zn  Zn23  1  0.92146000  0.32854000  0.12500000  1.0 0.4690641134
Zn  Zn24  1  0.92146000  0.67146000  0.37500000  1.0 0.8266244152
Zn  Zn25  1  0.82854000  0.87500000  0.92146000  1.0 0.8157439052
Zn  Zn26  1  0.37500000  0.57854000  0.17146000  1.0 0.4690641134
Zn  Zn27  1  0.67146000  0.12500000  0.42146000  1.0 0.6047569532
Zn  Zn28  1  0.12500000  0.42146000  0.67146000  1.0 0.6047569532
Zn  Zn29  1  0.82854000  0.12500000  0.57854000  1.0 0.8266244152
Zn  Zn30  1  0.12500000  0.57854000  0.82854000  1.0 0.8266244152
Zn  Zn31  1  0.67146000  0.87500000  0.07854000  1.0 0.8266244152
Zn  Zn32  1  0.37500000  0.42146000  0.32854000  1.0 0.8023586689
Zn  Zn33  1  0.92146000  0.82854000  0.87500000  1.0 0.8157439052
Zn  Zn34  1  0.42146000  0.67146000  0.12500000  1.0 0.6047569532
Zn  Zn35  1  0.57854000  0.17146000  0.37500000  1.0 0.4690641134
Zn  Zn36  1  0.07854000  0.32854000  0.62500000  1.0 0.481316381
Zn  Zn37  1  0.92146000  0.17146000  0.62500000  1.0 0.8266244152
Zn  Zn38  1  0.07854000  0.67146000  0.87500000  1.0 0.8266244152
Zn  Zn39  1  0.57854000  0.82854000  0.12500000  1.0 0.8266244152
Zn  Zn40  1  0.42146000  0.32854000  0.37500000  1.0 0.8023586689
Zn  Zn41  1  0.87500000  0.92146000  0.82854000  1.0 0.8157439052
Zn  Zn42  1  0.32854000  0.37500000  0.42146000  1.0 0.8023586689
Zn  Zn43  1  0.17146000  0.37500000  0.57854000  1.0 0.4690641134
Zn  Zn44  1  0.87500000  0.07854000  0.67146000  1.0 0.8266244152
Zn  Zn45  1  0.37500000  0.07854000  0.17146000  1.0 0.3212031045
Zn  Zn46  1  0.17146000  0.62500000  0.92146000  1.0 0.8266244152
Zn  Zn47  1  0.12500000  0.42146000  0.17146000  1.0 0.2841771959
Zn  Zn48  1  0.32854000  0.62500000  0.07854000  1.0 0.481316381
Zn  Zn49  1  0.12500000  0.07854000  0.32854000  1.0 0.3132987786
Zn  Zn50  1  0.42146000  0.17146000  0.12500000  1.0 0.2850101708
Zn  Zn51  1  0.07854000  0.32854000  0.12500000  1.0 0.3132987786
Zn  Zn52  1  0.07854000  0.17146000  0.37500000  1.0 0.3212031045
Zn  Zn53  1  0.32854000  0.12500000  0.07854000  1.0 0.3132987786
Zn  Zn54  1  0.17146000  0.12500000  0.42146000  1.0 0.2841771959
Zn  Zn55  1  0.17146000  0.37500000  0.07854000  1.0 0.3212031045
Zn  Zn56  1  0.62500000  0.07854000  0.32854000  1.0 0.481316381
Zn  Zn57  1  0.62500000  0.92146000  0.17146000  1.0 0.8266244152
Zn  Zn58  1  0.12500000  0.42146000  0.32854000  1.0 0.3212031045
Zn  Zn59  1  0.37500000  0.07854000  0.32854000  1.0 0.2850101708
Zn  Zn60  1  0.37500000  0.42146000  0.17146000  1.0 0.3132987786
Zn  Zn61  1  0.07854000  0.32854000  0.37500000  1.0 0.2850101708
Zn  Zn62  1  0.42146000  0.17146000  0.37500000  1.0 0.3132987786
Zn  Zn63  1  0.42146000  0.32854000  0.12500000  1.0 0.3212031045
Zn  Zn64  1  0.17146000  0.37500000  0.42146000  1.0 0.3132987786
Zn  Zn65  1  0.32854000  0.37500000  0.07854000  1.0 0.2850101708
Zn  Zn66  1  0.32854000  0.12500000  0.42146000  1.0 0.3212031045
Si  Si1  1  0.34709000  0.14424000  0.14314000  1.0 0.4914674231
Si  Si2  1  0.10576000  0.09709000  0.39314000  1.0 0.3307226219
Si  Si3  1  0.15291000  0.85576000  0.64314000  1.0 0.5097686667
Si  Si4  1  0.39424000  0.90291000  0.89314000  1.0 0.5208242832
Si  Si5  1  0.34709000  0.85576000  0.35686000  1.0 0.1889408088
Si  Si6  1  0.39424000  0.09709000  0.60686000  1.0 0.1397533246
Si  Si7  1  0.15291000  0.14424000  0.85686000  1.0 0.4914674231
Si  Si8  1  0.10576000  0.90291000  0.10686000  1.0 0.4914674231
Si  Si9  1  0.14314000  0.34709000  0.14424000  1.0 0.4914674231
Si  Si10  1  0.90291000  0.89314000  0.39424000  1.0 0.5208242832
Si  Si11  1  0.35686000  0.65291000  0.64424000  1.0 0.481316381
Si  Si12  1  0.59709000  0.10686000  0.89424000  1.0 0.5208242832
Si  Si13  1  0.14314000  0.65291000  0.35576000  1.0 0.2094491565
Si  Si14  1  0.59709000  0.89314000  0.60576000  1.0 0.5001254412
Si  Si15  1  0.35686000  0.34709000  0.85576000  1.0 0.1889408088
Si  Si16  1  0.90291000  0.10686000  0.10576000  1.0 0.481316381
Si  Si17  1  0.14424000  0.14314000  0.34709000  1.0 0.4914674231
Si  Si18  1  0.10686000  0.10576000  0.90291000  1.0 0.481316381
Si  Si19  1  0.60686000  0.39424000  0.09709000  1.0 0.1397533246
Si  Si20  1  0.89314000  0.39424000  0.90291000  1.0 0.5208242832
Si  Si21  1  0.39314000  0.10576000  0.09709000  1.0 0.3307226219
Si  Si22  1  0.14424000  0.85686000  0.15291000  1.0 0.5001254412
Si  Si23  1  0.85576000  0.35686000  0.34709000  1.0 0.1889408088
Si  Si24  1  0.85576000  0.64314000  0.15291000  1.0 0.5097686667
Si  Si25  1  0.84709000  0.64424000  0.64314000  1.0 0.481316381
Si  Si26  1  0.60576000  0.59709000  0.89314000  1.0 0.5001254412
Si  Si27  1  0.65291000  0.35576000  0.14314000  1.0 0.2094491565
Si  Si28  1  0.89424000  0.40291000  0.39314000  1.0 0.1189583307
Si  Si29  1  0.84709000  0.35576000  0.85686000  1.0 0.5097686667
Si  Si30  1  0.89424000  0.59709000  0.10686000  1.0 0.5264003991
Si  Si31  1  0.65291000  0.64424000  0.35686000  1.0 0.481316381
Si  Si32  1  0.60576000  0.40291000  0.60686000  1.0 0.481316381
Si  Si33  1  0.64314000  0.84709000  0.64424000  1.0 0.481316381
Si  Si34  1  0.40291000  0.39314000  0.89424000  1.0 0.1189583307
Si  Si35  1  0.85686000  0.15291000  0.14424000  1.0 0.4914674231
Si  Si36  1  0.09709000  0.60686000  0.39424000  1.0 0.1397533246
Si  Si37  1  0.64314000  0.15291000  0.85576000  1.0 0.5097686667
Si  Si38  1  0.09709000  0.39314000  0.10576000  1.0 0.3307226219
Si  Si39  1  0.85686000  0.84709000  0.35576000  1.0 0.5097686667
Si  Si40  1  0.40291000  0.60686000  0.60576000  1.0 0.481316381
Si  Si41  1  0.64424000  0.64314000  0.84709000  1.0 0.481316381
Si  Si42  1  0.60686000  0.60576000  0.40291000  1.0 0.481316381
Si  Si43  1  0.10686000  0.89424000  0.59709000  1.0 0.5264003991
Si  Si44  1  0.39314000  0.89424000  0.40291000  1.0 0.1189583307
Si  Si45  1  0.89314000  0.60576000  0.59709000  1.0 0.5001254412
Si  Si46  1  0.64424000  0.35686000  0.65291000  1.0 0.481316381
Si  Si47  1  0.35576000  0.85686000  0.84709000  1.0 0.5097686667
Si  Si48  1  0.35576000  0.14314000  0.65291000  1.0 0.2094491565
Si  Si49  1  0.65291000  0.85576000  0.85686000  1.0 0.481316381
Si  Si50  1  0.39424000  0.40291000  0.10686000  1.0 0.335644555
Si  Si51  1  0.84709000  0.14424000  0.35686000  1.0 0.2094491565
Si  Si52  1  0.10576000  0.59709000  0.60686000  1.0 0.5208242832
Si  Si53  1  0.65291000  0.14424000  0.64314000  1.0 0.5097686667
Si  Si54  1  0.10576000  0.40291000  0.89314000  1.0 0.1397533246
Si  Si55  1  0.84709000  0.85576000  0.14314000  1.0 0.481316381
Si  Si56  1  0.39424000  0.59709000  0.39314000  1.0 0.481316381
Si  Si57  1  0.85686000  0.65291000  0.85576000  1.0 0.481316381
Si  Si58  1  0.59709000  0.60686000  0.10576000  1.0 0.5208242832
Si  Si59  1  0.64314000  0.34709000  0.35576000  1.0 0.4914674231
Si  Si60  1  0.90291000  0.39314000  0.60576000  1.0 0.5208242832
Si  Si61  1  0.85686000  0.34709000  0.64424000  1.0 0.5097686667
Si  Si62  1  0.90291000  0.60686000  0.89424000  1.0 0.5001254412
Si  Si63  1  0.64314000  0.65291000  0.14424000  1.0 0.5097686667
Si  Si64  1  0.59709000  0.39314000  0.39424000  1.0 0.481316381
Si  Si65  1  0.85576000  0.85686000  0.65291000  1.0 0.481316381
Si  Si66  1  0.39314000  0.39424000  0.59709000  1.0 0.481316381
Si  Si67  1  0.89314000  0.10576000  0.40291000  1.0 0.1397533246
Si  Si68  1  0.60686000  0.10576000  0.59709000  1.0 0.5208242832
Si  Si69  1  0.10686000  0.39424000  0.40291000  1.0 0.335644555
Si  Si70  1  0.85576000  0.14314000  0.84709000  1.0 0.481316381
Si  Si71  1  0.14424000  0.64314000  0.65291000  1.0 0.5097686667
Si  Si72  1  0.14424000  0.35686000  0.84709000  1.0 0.2094491565
Si  Si73  1  0.15291000  0.35576000  0.35686000  1.0 0.4914674231
Si  Si74  1  0.39424000  0.90291000  0.10686000  1.0 0.129419425
Si  Si75  1  0.34709000  0.64424000  0.85686000  1.0 0.5097686667
Si  Si76  1  0.10576000  0.59709000  0.10686000  1.0 0.129419425
Si  Si77  1  0.15291000  0.64424000  0.14314000  1.0 0.1889408088
Si  Si78  1  0.10576000  0.90291000  0.39314000  1.0 0.4568987011
Si  Si79  1  0.34709000  0.35576000  0.64314000  1.0 0.4914674231
Si  Si80  1  0.35686000  0.15291000  0.35576000  1.0 0.4914674231
Si  Si81  1  0.59709000  0.10686000  0.10576000  1.0 0.129419425
Si  Si82  1  0.14314000  0.84709000  0.85576000  1.0 0.481316381
Si  Si83  1  0.90291000  0.39314000  0.10576000  1.0 0.4549584209
Si  Si84  1  0.35686000  0.84709000  0.14424000  1.0 0.2094491565
Si  Si85  1  0.90291000  0.10686000  0.39424000  1.0 0.1397533246
Si  Si86  1  0.14314000  0.15291000  0.64424000  1.0 0.1889408088
Si  Si87  1  0.35576000  0.35686000  0.15291000  1.0 0.4914674231
Si  Si88  1  0.39314000  0.10576000  0.90291000  1.0 0.4549584209
Si  Si89  1  0.10686000  0.10576000  0.59709000  1.0 0.129419425
Si  Si90  1  0.10686000  0.39424000  0.90291000  1.0 0.1397533246
Si  Si91  1  0.35576000  0.64314000  0.34709000  1.0 0.4914674231
Si  Si92  1  0.64424000  0.14314000  0.15291000  1.0 0.1889408088
Si  Si93  1  0.64424000  0.85686000  0.34709000  1.0 0.5097686667
Si  Si94  1  0.89424000  0.90291000  0.60686000  1.0 0.5001254412
Si  Si95  1  0.60576000  0.09709000  0.10686000  1.0 0.1189583307
Si  Si96  1  0.60576000  0.90291000  0.39314000  1.0 0.5208242832
Si  Si97  1  0.89424000  0.09709000  0.89314000  1.0 0.481316381
Si  Si98  1  0.09709000  0.10686000  0.60576000  1.0 0.1189583307
Si  Si99  1  0.40291000  0.89314000  0.10576000  1.0 0.1397533246
Si  Si100  1  0.40291000  0.10686000  0.39424000  1.0 0.335644555
Si  Si101  1  0.09709000  0.89314000  0.89424000  1.0 0.481316381
Si  Si102  1  0.89314000  0.89424000  0.09709000  1.0 0.481316381
Si  Si103  1  0.39314000  0.60576000  0.90291000  1.0 0.5208242832
Si  Si104  1  0.10686000  0.60576000  0.09709000  1.0 0.1189583307
Si  Si105  1  0.60686000  0.89424000  0.90291000  1.0 0.5001254412
Si  Si106  1  0.10576000  0.59709000  0.39314000  1.0 0.129419425
Si  Si107  1  0.39424000  0.90291000  0.39314000  1.0 0.129419425
Si  Si108  1  0.39424000  0.59709000  0.10686000  1.0 0.4568987011
Si  Si109  1  0.90291000  0.39314000  0.39424000  1.0 0.129419425
Si  Si110  1  0.59709000  0.10686000  0.39424000  1.0 0.4568987011
Si  Si111  1  0.59709000  0.39314000  0.10576000  1.0 0.129419425
Si  Si112  1  0.10686000  0.39424000  0.59709000  1.0 0.4568987011
Si  Si113  1  0.39314000  0.39424000  0.90291000  1.0 0.129419425
Si  Si114  1  0.39314000  0.10576000  0.59709000  1.0 0.1397533246
H  H1  1  0.18850000  0.06150000  0.12500000  1.0 0.3614985837
H  H2  1  0.18850000  0.93850000  0.37500000  1.0 0.3307226219
H  H3  1  0.31150000  0.93850000  0.62500000  1.0 0.3684061983
H  H4  1  0.31150000  0.06150000  0.87500000  1.0 0.3495767831
H  H5  1  0.12500000  0.18850000  0.06150000  1.0 0.3614985837
H  H6  1  0.06150000  0.87500000  0.31150000  1.0 0.3495767831
H  H7  1  0.37500000  0.81150000  0.56150000  1.0 0.3684061983
H  H8  1  0.43850000  0.12500000  0.81150000  1.0 0.3495767831
H  H9  1  0.12500000  0.81150000  0.43850000  1.0 0.3495767831
H  H10  1  0.43850000  0.87500000  0.68850000  1.0 0.3684061983
H  H11  1  0.37500000  0.18850000  0.93850000  1.0 0.3307226219
H  H12  1  0.06150000  0.12500000  0.18850000  1.0 0.3614985837
H  H13  1  0.62500000  0.31150000  0.93850000  1.0 0.3684061983
H  H14  1  0.87500000  0.31150000  0.06150000  1.0 0.3495767831
H  H15  1  0.93850000  0.37500000  0.18850000  1.0 0.3307226219
H  H16  1  0.93850000  0.62500000  0.31150000  1.0 0.3684061983
H  H17  1  0.68850000  0.56150000  0.62500000  1.0 0.3614985837
H  H18  1  0.68850000  0.43850000  0.87500000  1.0 0.3684061983
H  H19  1  0.81150000  0.43850000  0.12500000  1.0 0.3495767831
H  H20  1  0.81150000  0.56150000  0.37500000  1.0 0.3684061983
H  H21  1  0.62500000  0.68850000  0.56150000  1.0 0.3614985837
H  H22  1  0.56150000  0.37500000  0.81150000  1.0 0.3684061983
H  H23  1  0.87500000  0.68850000  0.43850000  1.0 0.3684061983
H  H24  1  0.56150000  0.62500000  0.68850000  1.0 0.3614985837
H  H25  1  0.81150000  0.93850000  0.87500000  1.0 0.3614985837
H  H26  1  0.31150000  0.56150000  0.12500000  1.0 0.3307226219
H  H27  1  0.68850000  0.06150000  0.37500000  1.0 0.3495767831
H  H28  1  0.18850000  0.43850000  0.62500000  1.0 0.3495767831
H  H29  1  0.81150000  0.06150000  0.62500000  1.0 0.3684061983
H  H30  1  0.18850000  0.56150000  0.87500000  1.0 0.3684061983
H  H31  1  0.68850000  0.93850000  0.12500000  1.0 0.3684061983
H  H32  1  0.31150000  0.43850000  0.37500000  1.0 0.3614985837
H  H33  1  0.87500000  0.81150000  0.93850000  1.0 0.3614985837
H  H34  1  0.43850000  0.62500000  0.18850000  1.0 0.3495767831
H  H35  1  0.62500000  0.18850000  0.43850000  1.0 0.3495767831
H  H36  1  0.06150000  0.37500000  0.68850000  1.0 0.3495767831
H  H37  1  0.87500000  0.18850000  0.56150000  1.0 0.3684061983
H  H38  1  0.06150000  0.62500000  0.81150000  1.0 0.3684061983
H  H39  1  0.62500000  0.81150000  0.06150000  1.0 0.3684061983
H  H40  1  0.43850000  0.37500000  0.31150000  1.0 0.3614985837
H  H41  1  0.93850000  0.87500000  0.81150000  1.0 0.3614985837
H  H42  1  0.37500000  0.31150000  0.43850000  1.0 0.3614985837
H  H43  1  0.12500000  0.31150000  0.56150000  1.0 0.3307226219
H  H44  1  0.93850000  0.12500000  0.68850000  1.0 0.3684061983
H  H45  1  0.31150000  0.06150000  0.12500000  1.0 0.3307226219
H  H46  1  0.18850000  0.43850000  0.12500000  1.0 0.3495767831
H  H47  1  0.18850000  0.06150000  0.37500000  1.0 0.3307226219
H  H48  1  0.43850000  0.12500000  0.18850000  1.0 0.3495767831
H  H49  1  0.12500000  0.68850000  0.93850000  1.0 0.3684061983
H  H50  1  0.06150000  0.37500000  0.18850000  1.0 0.3307226219
H  H51  1  0.37500000  0.68850000  0.06150000  1.0 0.3495767831
H  H52  1  0.06150000  0.12500000  0.31150000  1.0 0.3307226219
H  H53  1  0.37500000  0.18850000  0.06150000  1.0 0.3307226219
H  H54  1  0.12500000  0.18850000  0.43850000  1.0 0.3495767831
H  H55  1  0.12500000  0.31150000  0.06150000  1.0 0.3307226219
H  H56  1  0.56150000  0.12500000  0.31150000  1.0 0.3307226219
H  H57  1  0.56150000  0.87500000  0.18850000  1.0 0.3684061983
H  H58  1  0.18850000  0.43850000  0.37500000  1.0 0.3307226219
H  H59  1  0.31150000  0.06150000  0.37500000  1.0 0.3495767831
H  H60  1  0.31150000  0.43850000  0.12500000  1.0 0.3307226219
H  H61  1  0.06150000  0.37500000  0.31150000  1.0 0.3495767831
H  H62  1  0.43850000  0.12500000  0.31150000  1.0 0.3307226219
H  H63  1  0.43850000  0.37500000  0.18850000  1.0 0.3307226219
H  H64  1  0.12500000  0.31150000  0.43850000  1.0 0.3307226219
H  H65  1  0.37500000  0.31150000  0.06150000  1.0 0.3495767831
H  H66  1  0.37500000  0.18850000  0.43850000  1.0 0.3307226219
H  H67  1  0.20680000  0.20910000  0.04730000  1.0 0.1009523012
H  H68  1  0.04090000  0.95680000  0.29730000  1.0 0.1009523012
H  H69  1  0.29320000  0.79090000  0.54730000  1.0 0.1009523012
H  H70  1  0.45910000  0.04320000  0.79730000  1.0 0.1095201687
H  H71  1  0.20680000  0.79090000  0.45270000  1.0 0.1009523012
H  H72  1  0.45910000  0.95680000  0.70270000  1.0 0.1095201687
H  H73  1  0.29320000  0.20910000  0.95270000  1.0 0.09153541
H  H74  1  0.04090000  0.04320000  0.20270000  1.0 0.09153541
H  H75  1  0.04730000  0.20680000  0.20910000  1.0 0.1009523012
H  H76  1  0.04320000  0.79730000  0.45910000  1.0 0.1095201687
H  H77  1  0.45270000  0.79320000  0.70910000  1.0 0.1009523012
H  H78  1  0.45680000  0.20270000  0.95910000  1.0 0.0793917508
H  H79  1  0.04730000  0.79320000  0.29090000  1.0 0.1009523012
H  H80  1  0.45680000  0.79730000  0.54090000  1.0 0.1009523012
H  H81  1  0.45270000  0.20680000  0.79090000  1.0 0.1009523012
H  H82  1  0.04320000  0.20270000  0.04090000  1.0 0.09153541
H  H83  1  0.20910000  0.04730000  0.20680000  1.0 0.1009523012
H  H84  1  0.20270000  0.04090000  0.04320000  1.0 0.09153541
H  H85  1  0.70270000  0.45910000  0.95680000  1.0 0.1095201687
H  H86  1  0.79730000  0.45910000  0.04320000  1.0 0.1095201687
H  H87  1  0.29730000  0.04090000  0.95680000  1.0 0.1009523012
H  H88  1  0.20910000  0.95270000  0.29320000  1.0 0.09153541
H  H89  1  0.79090000  0.45270000  0.20680000  1.0 0.1009523012
H  H90  1  0.79090000  0.54730000  0.29320000  1.0 0.1009523012
H  H91  1  0.70680000  0.70910000  0.54730000  1.0 0.1009523012
H  H92  1  0.54090000  0.45680000  0.79730000  1.0 0.1009523012
H  H93  1  0.79320000  0.29090000  0.04730000  1.0 0.1009523012
H  H94  1  0.95910000  0.54320000  0.29730000  1.0 0.1009523012
H  H95  1  0.70680000  0.29090000  0.95270000  1.0 0.1009523012
H  H96  1  0.95910000  0.45680000  0.20270000  1.0 0.0793917508
H  H97  1  0.79320000  0.70910000  0.45270000  1.0 0.1009523012
H  H98  1  0.54090000  0.54320000  0.70270000  1.0 0.1009523012
H  H99  1  0.54730000  0.70680000  0.70910000  1.0 0.1009523012
H  H100  1  0.54320000  0.29730000  0.95910000  1.0 0.1009523012
H  H101  1  0.95270000  0.29320000  0.20910000  1.0 0.09153541
H  H102  1  0.95680000  0.70270000  0.45910000  1.0 0.1095201687
H  H103  1  0.54730000  0.29320000  0.79090000  1.0 0.1009523012
H  H104  1  0.95680000  0.29730000  0.04090000  1.0 0.1009523012
H  H105  1  0.95270000  0.70680000  0.29090000  1.0 0.1009523012
H  H106  1  0.54320000  0.70270000  0.54090000  1.0 0.1009523012
H  H107  1  0.70910000  0.54730000  0.70680000  1.0 0.1009523012
H  H108  1  0.70270000  0.54090000  0.54320000  1.0 0.1009523012
H  H109  1  0.20270000  0.95910000  0.45680000  1.0 0.0793917508
H  H110  1  0.29730000  0.95910000  0.54320000  1.0 0.1009523012
H  H111  1  0.79730000  0.54090000  0.45680000  1.0 0.1009523012
H  H112  1  0.70910000  0.45270000  0.79320000  1.0 0.1009523012
H  H113  1  0.29090000  0.95270000  0.70680000  1.0 0.1009523012
H  H114  1  0.29090000  0.04730000  0.79320000  1.0 0.1009523012
H  H115  1  0.79320000  0.79090000  0.95270000  1.0 0.1009523012
H  H116  1  0.45910000  0.54320000  0.20270000  1.0 0.1009523012
H  H117  1  0.70680000  0.20910000  0.45270000  1.0 0.1009523012
H  H118  1  0.04090000  0.45680000  0.70270000  1.0 0.1095201687
H  H119  1  0.79320000  0.20910000  0.54730000  1.0 0.1009523012
H  H120  1  0.04090000  0.54320000  0.79730000  1.0 0.1095201687
H  H121  1  0.70680000  0.79090000  0.04730000  1.0 0.1009523012
H  H122  1  0.45910000  0.45680000  0.29730000  1.0 0.09153541
H  H123  1  0.95270000  0.79320000  0.79090000  1.0 0.1009523012
H  H124  1  0.45680000  0.70270000  0.04090000  1.0 0.1095201687
H  H125  1  0.54730000  0.20680000  0.29090000  1.0 0.09153541
H  H126  1  0.04320000  0.29730000  0.54090000  1.0 0.0793917508
H  H127  1  0.95270000  0.20680000  0.70910000  1.0 0.1009523012
H  H128  1  0.04320000  0.70270000  0.95910000  1.0 0.1009523012
H  H129  1  0.54730000  0.79320000  0.20910000  1.0 0.1009523012
H  H130  1  0.45680000  0.29730000  0.45910000  1.0 0.09153541
H  H131  1  0.79090000  0.95270000  0.79320000  1.0 0.1009523012
H  H132  1  0.29730000  0.45910000  0.45680000  1.0 0.09153541
H  H133  1  0.79730000  0.04090000  0.54320000  1.0 0.1095201687
H  H134  1  0.70270000  0.04090000  0.45680000  1.0 0.1095201687
H  H135  1  0.20270000  0.45910000  0.54320000  1.0 0.1009523012
H  H136  1  0.79090000  0.04730000  0.70680000  1.0 0.1009523012
H  H137  1  0.20910000  0.54730000  0.79320000  1.0 0.1009523012
H  H138  1  0.20910000  0.45270000  0.70680000  1.0 0.1009523012
H  H139  1  0.29320000  0.29090000  0.45270000  1.0 0.1009523012
H  H140  1  0.45910000  0.04320000  0.20270000  1.0 0.09153541
H  H141  1  0.20680000  0.70910000  0.95270000  1.0 0.1009523012
H  H142  1  0.04090000  0.45680000  0.20270000  1.0 0.0793917508
H  H143  1  0.29320000  0.70910000  0.04730000  1.0 0.1009523012
H  H144  1  0.04090000  0.04320000  0.29730000  1.0 0.09153541
H  H145  1  0.20680000  0.29090000  0.54730000  1.0 0.09153541
H  H146  1  0.45270000  0.29320000  0.29090000  1.0 0.1009523012
H  H147  1  0.45680000  0.20270000  0.04090000  1.0 0.0793917508
H  H148  1  0.04730000  0.70680000  0.79090000  1.0 0.1009523012
H  H149  1  0.04320000  0.29730000  0.04090000  1.0 0.09153541
H  H150  1  0.45270000  0.70680000  0.20910000  1.0 0.1009523012
H  H151  1  0.04320000  0.20270000  0.45910000  1.0 0.09153541
H  H152  1  0.04730000  0.29320000  0.70910000  1.0 0.1009523012
H  H153  1  0.29090000  0.45270000  0.29320000  1.0 0.1009523012
H  H154  1  0.29730000  0.04090000  0.04320000  1.0 0.09153541
H  H155  1  0.20270000  0.04090000  0.45680000  1.0 0.0793917508
H  H156  1  0.20270000  0.45910000  0.04320000  1.0 0.09153541
H  H157  1  0.29090000  0.54730000  0.20680000  1.0 0.09153541
H  H158  1  0.70910000  0.04730000  0.29320000  1.0 0.1009523012
H  H159  1  0.70910000  0.95270000  0.20680000  1.0 0.1009523012
H  H160  1  0.95910000  0.04320000  0.70270000  1.0 0.1009523012
H  H161  1  0.54090000  0.95680000  0.20270000  1.0 0.1009523012
H  H162  1  0.54090000  0.04320000  0.29730000  1.0 0.0793917508
H  H163  1  0.95910000  0.95680000  0.79730000  1.0 0.1009523012
H  H164  1  0.95680000  0.20270000  0.54090000  1.0 0.1009523012
H  H165  1  0.54320000  0.79730000  0.04090000  1.0 0.1095201687
H  H166  1  0.54320000  0.20270000  0.45910000  1.0 0.1009523012
H  H167  1  0.95680000  0.79730000  0.95910000  1.0 0.1009523012
H  H168  1  0.79730000  0.95910000  0.95680000  1.0 0.1009523012
H  H169  1  0.29730000  0.54090000  0.04320000  1.0 0.0793917508
H  H170  1  0.20270000  0.54090000  0.95680000  1.0 0.1009523012
H  H171  1  0.70270000  0.95910000  0.04320000  1.0 0.1009523012
H  H172  1  0.04090000  0.45680000  0.29730000  1.0 0.09153541
H  H173  1  0.45910000  0.04320000  0.29730000  1.0 0.0793917508
H  H174  1  0.45910000  0.45680000  0.20270000  1.0 0.09153541
H  H175  1  0.04320000  0.29730000  0.45910000  1.0 0.0793917508
H  H176  1  0.45680000  0.20270000  0.45910000  1.0 0.09153541
H  H177  1  0.45680000  0.29730000  0.04090000  1.0 0.09153541
H  H178  1  0.20270000  0.45910000  0.45680000  1.0 0.09153541
H  H179  1  0.29730000  0.45910000  0.04320000  1.0 0.0793917508
H  H180  1  0.29730000  0.04090000  0.45680000  1.0 0.09153541
H  H181  1  0.26800000  0.25090000  0.05400000  1.0 0.129419425
H  H182  1  0.99910000  0.01800000  0.30400000  1.0 0.1009523012
H  H183  1  0.23200000  0.74910000  0.55400000  1.0 0.1397533246
H  H184  1  0.50090000  0.98200000  0.80400000  1.0 0.150639628
H  H185  1  0.26800000  0.74910000  0.44600000  1.0 0.1397533246
H  H186  1  0.50090000  0.01800000  0.69600000  1.0 0.129419425
H  H187  1  0.23200000  0.25090000  0.94600000  1.0 0.129419425
H  H188  1  0.99910000  0.98200000  0.19600000  1.0 0.1397533246
H  H189  1  0.05400000  0.26800000  0.25090000  1.0 0.129419425
H  H190  1  0.98200000  0.80400000  0.50090000  1.0 0.150639628
H  H191  1  0.44600000  0.73200000  0.75090000  1.0 0.1397533246
H  H192  1  0.51800000  0.19600000  0.00090000  1.0 0.1765569674
H  H193  1  0.05400000  0.73200000  0.24910000  1.0 0.1397533246
H  H194  1  0.51800000  0.80400000  0.49910000  1.0 0.1397533246
H  H195  1  0.44600000  0.26800000  0.74910000  1.0 0.1397533246
H  H196  1  0.98200000  0.19600000  0.99910000  1.0 0.1397533246
H  H197  1  0.25090000  0.05400000  0.26800000  1.0 0.129419425
H  H198  1  0.19600000  0.99910000  0.98200000  1.0 0.1397533246
H  H199  1  0.69600000  0.50090000  0.01800000  1.0 0.129419425
H  H200  1  0.80400000  0.50090000  0.98200000  1.0 0.150639628
H  H201  1  0.30400000  0.99910000  0.01800000  1.0 0.1009523012
H  H202  1  0.25090000  0.94600000  0.23200000  1.0 0.129419425
H  H203  1  0.74910000  0.44600000  0.26800000  1.0 0.1397533246
H  H204  1  0.74910000  0.55400000  0.23200000  1.0 0.1397533246
H  H205  1  0.76800000  0.75090000  0.55400000  1.0 0.1397533246
H  H206  1  0.49910000  0.51800000  0.80400000  1.0 0.1397533246
H  H207  1  0.73200000  0.24910000  0.05400000  1.0 0.1397533246
H  H208  1  0.00090000  0.48200000  0.30400000  1.0 0.0533778496
H  H209  1  0.76800000  0.24910000  0.94600000  1.0 0.1397533246
H  H210  1  0.00090000  0.51800000  0.19600000  1.0 0.1765569674
H  H211  1  0.73200000  0.75090000  0.44600000  1.0 0.1397533246
H  H212  1  0.49910000  0.48200000  0.69600000  1.0 0.1397533246
H  H213  1  0.55400000  0.76800000  0.75090000  1.0 0.1397533246
H  H214  1  0.48200000  0.30400000  0.00090000  1.0 0.0533778496
H  H215  1  0.94600000  0.23200000  0.25090000  1.0 0.129419425
H  H216  1  0.01800000  0.69600000  0.50090000  1.0 0.129419425
H  H217  1  0.55400000  0.23200000  0.74910000  1.0 0.1397533246
H  H218  1  0.01800000  0.30400000  0.99910000  1.0 0.1009523012
H  H219  1  0.94600000  0.76800000  0.24910000  1.0 0.1397533246
H  H220  1  0.48200000  0.69600000  0.49910000  1.0 0.1397533246
H  H221  1  0.75090000  0.55400000  0.76800000  1.0 0.1397533246
H  H222  1  0.69600000  0.49910000  0.48200000  1.0 0.1397533246
H  H223  1  0.19600000  0.00090000  0.51800000  1.0 0.1765569674
H  H224  1  0.30400000  0.00090000  0.48200000  1.0 0.0533778496
H  H225  1  0.80400000  0.49910000  0.51800000  1.0 0.1397533246
H  H226  1  0.75090000  0.44600000  0.73200000  1.0 0.1397533246
H  H227  1  0.24910000  0.94600000  0.76800000  1.0 0.1397533246
H  H228  1  0.24910000  0.05400000  0.73200000  1.0 0.1397533246
H  H229  1  0.73200000  0.74910000  0.94600000  1.0 0.1397533246
H  H230  1  0.50090000  0.48200000  0.19600000  1.0 0.1009523012
H  H231  1  0.76800000  0.25090000  0.44600000  1.0 0.1397533246
H  H232  1  0.99910000  0.51800000  0.69600000  1.0 0.150639628
H  H233  1  0.73200000  0.25090000  0.55400000  1.0 0.1397533246
H  H234  1  0.99910000  0.48200000  0.80400000  1.0 0.129419425
H  H235  1  0.76800000  0.74910000  0.05400000  1.0 0.1397533246
H  H236  1  0.50090000  0.51800000  0.30400000  1.0 0.1397533246
H  H237  1  0.94600000  0.73200000  0.74910000  1.0 0.1397533246
H  H238  1  0.51800000  0.69600000  0.99910000  1.0 0.150639628
H  H239  1  0.55400000  0.26800000  0.24910000  1.0 0.129419425
H  H240  1  0.98200000  0.30400000  0.49910000  1.0 0.1765569674
H  H241  1  0.94600000  0.26800000  0.75090000  1.0 0.1397533246
H  H242  1  0.98200000  0.69600000  0.00090000  1.0 0.1397533246
H  H243  1  0.55400000  0.73200000  0.25090000  1.0 0.1397533246
H  H244  1  0.51800000  0.30400000  0.50090000  1.0 0.1397533246
H  H245  1  0.74910000  0.94600000  0.73200000  1.0 0.1397533246
H  H246  1  0.30400000  0.50090000  0.51800000  1.0 0.1397533246
H  H247  1  0.80400000  0.99910000  0.48200000  1.0 0.129419425
H  H248  1  0.69600000  0.99910000  0.51800000  1.0 0.150639628
H  H249  1  0.19600000  0.50090000  0.48200000  1.0 0.1009523012
H  H250  1  0.74910000  0.05400000  0.76800000  1.0 0.1397533246
H  H251  1  0.25090000  0.55400000  0.73200000  1.0 0.1397533246
H  H252  1  0.25090000  0.44600000  0.76800000  1.0 0.1397533246
H  H253  1  0.23200000  0.24910000  0.44600000  1.0 0.129419425
H  H254  1  0.50090000  0.98200000  0.19600000  1.0 0.0617890507
H  H255  1  0.26800000  0.75090000  0.94600000  1.0 0.1397533246
H  H256  1  0.99910000  0.51800000  0.19600000  1.0 0.1765569674
H  H257  1  0.23200000  0.75090000  0.05400000  1.0 0.1397533246
H  H258  1  0.99910000  0.98200000  0.30400000  1.0 0.1009523012
H  H259  1  0.26800000  0.24910000  0.55400000  1.0 0.129419425
H  H260  1  0.44600000  0.23200000  0.24910000  1.0 0.129419425
H  H261  1  0.51800000  0.19600000  0.99910000  1.0 0.1765569674
H  H262  1  0.05400000  0.76800000  0.74910000  1.0 0.1397533246
H  H263  1  0.98200000  0.30400000  0.99910000  1.0 0.1009523012
H  H264  1  0.44600000  0.76800000  0.25090000  1.0 0.1397533246
H  H265  1  0.98200000  0.19600000  0.50090000  1.0 0.0617890507
H  H266  1  0.05400000  0.23200000  0.75090000  1.0 0.1397533246
H  H267  1  0.24910000  0.44600000  0.23200000  1.0 0.129419425
H  H268  1  0.30400000  0.99910000  0.98200000  1.0 0.1009523012
H  H269  1  0.19600000  0.99910000  0.51800000  1.0 0.1765569674
H  H270  1  0.19600000  0.50090000  0.98200000  1.0 0.0617890507
H  H271  1  0.24910000  0.55400000  0.26800000  1.0 0.129419425
H  H272  1  0.75090000  0.05400000  0.23200000  1.0 0.1397533246
H  H273  1  0.75090000  0.94600000  0.26800000  1.0 0.1397533246
H  H274  1  0.00090000  0.98200000  0.69600000  1.0 0.1397533246
H  H275  1  0.49910000  0.01800000  0.19600000  1.0 0.0533778496
H  H276  1  0.49910000  0.98200000  0.30400000  1.0 0.1765569674
H  H277  1  0.00090000  0.01800000  0.80400000  1.0 0.1397533246
H  H278  1  0.01800000  0.19600000  0.49910000  1.0 0.0533778496
H  H279  1  0.48200000  0.80400000  0.99910000  1.0 0.129419425
H  H280  1  0.48200000  0.19600000  0.50090000  1.0 0.1009523012
H  H281  1  0.01800000  0.80400000  0.00090000  1.0 0.1397533246
H  H282  1  0.80400000  0.00090000  0.01800000  1.0 0.1397533246
H  H283  1  0.30400000  0.49910000  0.98200000  1.0 0.1765569674
H  H284  1  0.19600000  0.49910000  0.01800000  1.0 0.0533778496
H  H285  1  0.69600000  0.00090000  0.98200000  1.0 0.1397533246
H  H286  1  0.99910000  0.51800000  0.30400000  1.0 0.0617890507
H  H287  1  0.50090000  0.98200000  0.30400000  1.0 0.1765569674
H  H288  1  0.50090000  0.51800000  0.19600000  1.0 0.1009523012
H  H289  1  0.98200000  0.30400000  0.50090000  1.0 0.1765569674
H  H290  1  0.51800000  0.19600000  0.50090000  1.0 0.1009523012
H  H291  1  0.51800000  0.30400000  0.99910000  1.0 0.0617890507
H  H292  1  0.19600000  0.50090000  0.51800000  1.0 0.1009523012
H  H293  1  0.30400000  0.50090000  0.98200000  1.0 0.1765569674
H  H294  1  0.30400000  0.99910000  0.51800000  1.0 0.0617890507
H  H295  1  0.32750000  0.22590000  0.09430000  1.0 0.1189583307
H  H296  1  0.02410000  0.07750000  0.34430000  1.0 0.1095201687
H  H297  1  0.17250000  0.77410000  0.59430000  1.0 0.129419425
H  H298  1  0.47590000  0.92250000  0.84430000  1.0 0.129419425
H  H299  1  0.32750000  0.77410000  0.40570000  1.0 0.129419425
H  H300  1  0.47590000  0.07750000  0.65570000  1.0 0.09153541
H  H301  1  0.17250000  0.22590000  0.90570000  1.0 0.129419425
H  H302  1  0.02410000  0.92250000  0.15570000  1.0 0.129419425
H  H303  1  0.09430000  0.32750000  0.22590000  1.0 0.1189583307
H  H304  1  0.92250000  0.84430000  0.47590000  1.0 0.129419425
H  H305  1  0.40570000  0.67250000  0.72590000  1.0 0.129419425
H  H306  1  0.57750000  0.15570000  0.97590000  1.0 0.1009523012
H  H307  1  0.09430000  0.67250000  0.27410000  1.0 0.129419425
H  H308  1  0.57750000  0.84430000  0.52410000  1.0 0.129419425
H  H309  1  0.40570000  0.32750000  0.77410000  1.0 0.129419425
H  H310  1  0.92250000  0.15570000  0.02410000  1.0 0.129419425
H  H311  1  0.22590000  0.09430000  0.32750000  1.0 0.1189583307
H  H312  1  0.15570000  0.02410000  0.92250000  1.0 0.129419425
H  H313  1  0.65570000  0.47590000  0.07750000  1.0 0.09153541
H  H314  1  0.84430000  0.47590000  0.92250000  1.0 0.129419425
H  H315  1  0.34430000  0.02410000  0.07750000  1.0 0.1095201687
H  H316  1  0.22590000  0.90570000  0.17250000  1.0 0.129419425
H  H317  1  0.77410000  0.40570000  0.32750000  1.0 0.129419425
H  H318  1  0.77410000  0.59430000  0.17250000  1.0 0.129419425
H  H319  1  0.82750000  0.72590000  0.59430000  1.0 0.129419425
H  H320  1  0.52410000  0.57750000  0.84430000  1.0 0.129419425
H  H321  1  0.67250000  0.27410000  0.09430000  1.0 0.129419425
H  H322  1  0.97590000  0.42250000  0.34430000  1.0 0.09153541
H  H323  1  0.82750000  0.27410000  0.90570000  1.0 0.129419425
H  H324  1  0.97590000  0.57750000  0.15570000  1.0 0.1009523012
H  H325  1  0.67250000  0.72590000  0.40570000  1.0 0.129419425
H  H326  1  0.52410000  0.42250000  0.65570000  1.0 0.129419425
H  H327  1  0.59430000  0.82750000  0.72590000  1.0 0.129419425
H  H328  1  0.42250000  0.34430000  0.97590000  1.0 0.09153541
H  H329  1  0.90570000  0.17250000  0.22590000  1.0 0.129419425
H  H330  1  0.07750000  0.65570000  0.47590000  1.0 0.09153541
H  H331  1  0.59430000  0.17250000  0.77410000  1.0 0.129419425
H  H332  1  0.07750000  0.34430000  0.02410000  1.0 0.1095201687
H  H333  1  0.90570000  0.82750000  0.27410000  1.0 0.129419425
H  H334  1  0.42250000  0.65570000  0.52410000  1.0 0.129419425
H  H335  1  0.72590000  0.59430000  0.82750000  1.0 0.129419425
H  H336  1  0.65570000  0.52410000  0.42250000  1.0 0.129419425
H  H337  1  0.15570000  0.97590000  0.57750000  1.0 0.1009523012
H  H338  1  0.34430000  0.97590000  0.42250000  1.0 0.09153541
H  H339  1  0.84430000  0.52410000  0.57750000  1.0 0.129419425
H  H340  1  0.72590000  0.40570000  0.67250000  1.0 0.129419425
H  H341  1  0.27410000  0.90570000  0.82750000  1.0 0.129419425
H  H342  1  0.27410000  0.09430000  0.67250000  1.0 0.129419425
H  H343  1  0.67250000  0.77410000  0.90570000  1.0 0.129419425
H  H344  1  0.47590000  0.42250000  0.15570000  1.0 0.1095201687
H  H345  1  0.82750000  0.22590000  0.40570000  1.0 0.129419425
H  H346  1  0.02410000  0.57750000  0.65570000  1.0 0.129419425
H  H347  1  0.67250000  0.22590000  0.59430000  1.0 0.129419425
H  H348  1  0.02410000  0.42250000  0.84430000  1.0 0.09153541
H  H349  1  0.82750000  0.77410000  0.09430000  1.0 0.129419425
H  H350  1  0.47590000  0.57750000  0.34430000  1.0 0.129419425
H  H351  1  0.90570000  0.67250000  0.77410000  1.0 0.129419425
H  H352  1  0.57750000  0.65570000  0.02410000  1.0 0.129419425
H  H353  1  0.59430000  0.32750000  0.27410000  1.0 0.129419425
H  H354  1  0.92250000  0.34430000  0.52410000  1.0 0.1009523012
H  H355  1  0.90570000  0.32750000  0.72590000  1.0 0.129419425
H  H356  1  0.92250000  0.65570000  0.97590000  1.0 0.129419425
H  H357  1  0.59430000  0.67250000  0.22590000  1.0 0.129419425
H  H358  1  0.57750000  0.34430000  0.47590000  1.0 0.129419425
H  H359  1  0.77410000  0.90570000  0.67250000  1.0 0.129419425
H  H360  1  0.34430000  0.47590000  0.57750000  1.0 0.129419425
H  H361  1  0.84430000  0.02410000  0.42250000  1.0 0.09153541
H  H362  1  0.65570000  0.02410000  0.57750000  1.0 0.129419425
H  H363  1  0.15570000  0.47590000  0.42250000  1.0 0.1095201687
H  H364  1  0.77410000  0.09430000  0.82750000  1.0 0.129419425
H  H365  1  0.22590000  0.59430000  0.67250000  1.0 0.129419425
H  H366  1  0.22590000  0.40570000  0.82750000  1.0 0.129419425
H  H367  1  0.17250000  0.27410000  0.40570000  1.0 0.1189583307
H  H368  1  0.47590000  0.92250000  0.15570000  1.0 0.1009523012
H  H369  1  0.32750000  0.72590000  0.90570000  1.0 0.129419425
H  H370  1  0.02410000  0.57750000  0.15570000  1.0 0.0701121885
H  H371  1  0.17250000  0.72590000  0.09430000  1.0 0.129419425
H  H372  1  0.02410000  0.92250000  0.34430000  1.0 0.1095201687
H  H373  1  0.32750000  0.27410000  0.59430000  1.0 0.129419425
H  H374  1  0.40570000  0.17250000  0.27410000  1.0 0.1189583307
H  H375  1  0.57750000  0.15570000  0.02410000  1.0 0.0701121885
H  H376  1  0.09430000  0.82750000  0.77410000  1.0 0.129419425
H  H377  1  0.92250000  0.34430000  0.02410000  1.0 0.1095201687
H  H378  1  0.40570000  0.82750000  0.22590000  1.0 0.129419425
H  H379  1  0.92250000  0.15570000  0.47590000  1.0 0.1009523012
H  H380  1  0.09430000  0.17250000  0.72590000  1.0 0.129419425
H  H381  1  0.27410000  0.40570000  0.17250000  1.0 0.1189583307
H  H382  1  0.34430000  0.02410000  0.92250000  1.0 0.1095201687
H  H383  1  0.15570000  0.02410000  0.57750000  1.0 0.0701121885
H  H384  1  0.15570000  0.47590000  0.92250000  1.0 0.1009523012
H  H385  1  0.27410000  0.59430000  0.32750000  1.0 0.129419425
H  H386  1  0.72590000  0.09430000  0.17250000  1.0 0.129419425
H  H387  1  0.72590000  0.90570000  0.32750000  1.0 0.129419425
H  H388  1  0.97590000  0.92250000  0.65570000  1.0 0.129419425
H  H389  1  0.52410000  0.07750000  0.15570000  1.0 0.09153541
H  H390  1  0.52410000  0.92250000  0.34430000  1.0 0.1009523012
H  H391  1  0.97590000  0.07750000  0.84430000  1.0 0.129419425
H  H392  1  0.07750000  0.15570000  0.52410000  1.0 0.09153541
H  H393  1  0.42250000  0.84430000  0.02410000  1.0 0.09153541
H  H394  1  0.42250000  0.15570000  0.47590000  1.0 0.1095201687
H  H395  1  0.07750000  0.84430000  0.97590000  1.0 0.129419425
H  H396  1  0.84430000  0.97590000  0.07750000  1.0 0.129419425
H  H397  1  0.34430000  0.52410000  0.92250000  1.0 0.1009523012
H  H398  1  0.15570000  0.52410000  0.07750000  1.0 0.09153541
H  H399  1  0.65570000  0.97590000  0.92250000  1.0 0.129419425
H  H400  1  0.02410000  0.57750000  0.34430000  1.0 0.1009523012
H  H401  1  0.47590000  0.92250000  0.34430000  1.0 0.0701121885
H  H402  1  0.47590000  0.57750000  0.15570000  1.0 0.1095201687
H  H403  1  0.92250000  0.34430000  0.47590000  1.0 0.0701121885
H  H404  1  0.57750000  0.15570000  0.47590000  1.0 0.1095201687
H  H405  1  0.57750000  0.34430000  0.02410000  1.0 0.1009523012
H  H406  1  0.15570000  0.47590000  0.57750000  1.0 0.1095201687
H  H407  1  0.34430000  0.47590000  0.92250000  1.0 0.0701121885
H  H408  1  0.34430000  0.02410000  0.57750000  1.0 0.1009523012
H  H409  1  0.25970000  0.11680000  0.11820000  1.0 0.09153541
H  H410  1  0.13320000  0.00970000  0.36820000  1.0 0.0701121885
H  H411  1  0.24030000  0.88320000  0.61820000  1.0 0.1095201687
H  H412  1  0.36680000  0.99030000  0.86820000  1.0 0.1095201687
H  H413  1  0.25970000  0.88320000  0.38180000  1.0 0.1009523012
H  H414  1  0.36680000  0.00970000  0.63180000  1.0 0.0793917508
H  H415  1  0.24030000  0.11680000  0.88180000  1.0 0.1095201687
H  H416  1  0.13320000  0.99030000  0.13180000  1.0 0.09153541
H  H417  1  0.11820000  0.25970000  0.11680000  1.0 0.09153541
H  H418  1  0.99030000  0.86820000  0.36680000  1.0 0.1095201687
H  H419  1  0.38180000  0.74030000  0.61680000  1.0 0.1009523012
H  H420  1  0.50970000  0.13180000  0.86680000  1.0 0.1189583307
H  H421  1  0.11820000  0.74030000  0.38320000  1.0 0.1095201687
H  H422  1  0.50970000  0.86820000  0.63320000  1.0 0.1009523012
H  H423  1  0.38180000  0.25970000  0.88320000  1.0 0.1009523012
H  H424  1  0.99030000  0.13180000  0.13320000  1.0 0.09153541
H  H425  1  0.11680000  0.11820000  0.25970000  1.0 0.09153541
H  H426  1  0.13180000  0.13320000  0.99030000  1.0 0.09153541
H  H427  1  0.63180000  0.36680000  0.00970000  1.0 0.0793917508
H  H428  1  0.86820000  0.36680000  0.99030000  1.0 0.1095201687
H  H429  1  0.36820000  0.13320000  0.00970000  1.0 0.0701121885
H  H430  1  0.11680000  0.88180000  0.24030000  1.0 0.1095201687
H  H431  1  0.88320000  0.38180000  0.25970000  1.0 0.1009523012
H  H432  1  0.88320000  0.61820000  0.24030000  1.0 0.1095201687
H  H433  1  0.75970000  0.61680000  0.61820000  1.0 0.1009523012
H  H434  1  0.63320000  0.50970000  0.86820000  1.0 0.1009523012
H  H435  1  0.74030000  0.38320000  0.11820000  1.0 0.1095201687
H  H436  1  0.86680000  0.49030000  0.36820000  1.0 0.1095201687
H  H437  1  0.75970000  0.38320000  0.88180000  1.0 0.1009523012
H  H438  1  0.86680000  0.50970000  0.13180000  1.0 0.1189583307
H  H439  1  0.74030000  0.61680000  0.38180000  1.0 0.1009523012
H  H440  1  0.63320000  0.49030000  0.63180000  1.0 0.1009523012
H  H441  1  0.61820000  0.75970000  0.61680000  1.0 0.1009523012
H  H442  1  0.49030000  0.36820000  0.86680000  1.0 0.1095201687
H  H443  1  0.88180000  0.24030000  0.11680000  1.0 0.1095201687
H  H444  1  0.00970000  0.63180000  0.36680000  1.0 0.0793917508
H  H445  1  0.61820000  0.24030000  0.88320000  1.0 0.1095201687
H  H446  1  0.00970000  0.36820000  0.13320000  1.0 0.0701121885
H  H447  1  0.88180000  0.75970000  0.38320000  1.0 0.1009523012
H  H448  1  0.49030000  0.63180000  0.63320000  1.0 0.1009523012
H  H449  1  0.61680000  0.61820000  0.75970000  1.0 0.1009523012
H  H450  1  0.63180000  0.63320000  0.49030000  1.0 0.1009523012
H  H451  1  0.13180000  0.86680000  0.50970000  1.0 0.1189583307
H  H452  1  0.36820000  0.86680000  0.49030000  1.0 0.1095201687
H  H453  1  0.86820000  0.63320000  0.50970000  1.0 0.1009523012
H  H454  1  0.61680000  0.38180000  0.74030000  1.0 0.1009523012
H  H455  1  0.38320000  0.88180000  0.75970000  1.0 0.1009523012
H  H456  1  0.38320000  0.11820000  0.74030000  1.0 0.1095201687
H  H457  1  0.74030000  0.88320000  0.88180000  1.0 0.1009523012
H  H458  1  0.36680000  0.49030000  0.13180000  1.0 0.0701121885
H  H459  1  0.75970000  0.11680000  0.38180000  1.0 0.1095201687
H  H460  1  0.13320000  0.50970000  0.63180000  1.0 0.1095201687
H  H461  1  0.74030000  0.11680000  0.61820000  1.0 0.1009523012
H  H462  1  0.13320000  0.49030000  0.86820000  1.0 0.0793917508
H  H463  1  0.75970000  0.88320000  0.11820000  1.0 0.1009523012
H  H464  1  0.36680000  0.50970000  0.36820000  1.0 0.09153541
H  H465  1  0.88180000  0.74030000  0.88320000  1.0 0.1009523012
H  H466  1  0.50970000  0.63180000  0.13320000  1.0 0.1095201687
H  H467  1  0.61820000  0.25970000  0.38320000  1.0 0.1095201687
H  H468  1  0.99030000  0.36820000  0.63320000  1.0 0.1189583307
H  H469  1  0.88180000  0.25970000  0.61680000  1.0 0.1095201687
H  H470  1  0.99030000  0.63180000  0.86680000  1.0 0.1009523012
H  H471  1  0.61820000  0.74030000  0.11680000  1.0 0.1009523012
H  H472  1  0.50970000  0.36820000  0.36680000  1.0 0.09153541
H  H473  1  0.88320000  0.88180000  0.74030000  1.0 0.1009523012
H  H474  1  0.36820000  0.36680000  0.50970000  1.0 0.09153541
H  H475  1  0.86820000  0.13320000  0.49030000  1.0 0.0793917508
H  H476  1  0.63180000  0.13320000  0.50970000  1.0 0.1095201687
H  H477  1  0.13180000  0.36680000  0.49030000  1.0 0.0701121885
H  H478  1  0.88320000  0.11820000  0.75970000  1.0 0.1009523012
H  H479  1  0.11680000  0.61820000  0.74030000  1.0 0.1009523012
H  H480  1  0.11680000  0.38180000  0.75970000  1.0 0.1095201687
H  H481  1  0.24030000  0.38320000  0.38180000  1.0 0.09153541
H  H482  1  0.36680000  0.99030000  0.13180000  1.0 0.09153541
H  H483  1  0.25970000  0.61680000  0.88180000  1.0 0.1095201687
H  H484  1  0.13320000  0.50970000  0.13180000  1.0 0.0701121885
H  H485  1  0.24030000  0.61680000  0.11820000  1.0 0.1009523012
H  H486  1  0.13320000  0.99030000  0.36820000  1.0 0.0701121885
H  H487  1  0.25970000  0.38320000  0.61820000  1.0 0.1095201687
H  H488  1  0.38180000  0.24030000  0.38320000  1.0 0.09153541
H  H489  1  0.50970000  0.13180000  0.13320000  1.0 0.0701121885
H  H490  1  0.11820000  0.75970000  0.88320000  1.0 0.1009523012
H  H491  1  0.99030000  0.36820000  0.13320000  1.0 0.0701121885
H  H492  1  0.38180000  0.75970000  0.11680000  1.0 0.1095201687
H  H493  1  0.99030000  0.13180000  0.36680000  1.0 0.09153541
H  H494  1  0.11820000  0.24030000  0.61680000  1.0 0.1009523012
H  H495  1  0.38320000  0.38180000  0.24030000  1.0 0.09153541
H  H496  1  0.36820000  0.13320000  0.99030000  1.0 0.0701121885
H  H497  1  0.13180000  0.13320000  0.50970000  1.0 0.0701121885
H  H498  1  0.13180000  0.36680000  0.99030000  1.0 0.09153541
H  H499  1  0.38320000  0.61820000  0.25970000  1.0 0.1095201687
H  H500  1  0.61680000  0.11820000  0.24030000  1.0 0.1009523012
H  H501  1  0.61680000  0.88180000  0.25970000  1.0 0.1095201687
H  H502  1  0.86680000  0.99030000  0.63180000  1.0 0.1009523012
H  H503  1  0.63320000  0.00970000  0.13180000  1.0 0.1095201687
H  H504  1  0.63320000  0.99030000  0.36820000  1.0 0.1189583307
H  H505  1  0.86680000  0.00970000  0.86820000  1.0 0.1009523012
H  H506  1  0.00970000  0.13180000  0.63320000  1.0 0.1095201687
H  H507  1  0.49030000  0.86820000  0.13320000  1.0 0.0793917508
H  H508  1  0.49030000  0.13180000  0.36680000  1.0 0.0701121885
H  H509  1  0.00970000  0.86820000  0.86680000  1.0 0.1009523012
H  H510  1  0.86820000  0.86680000  0.00970000  1.0 0.1009523012
H  H511  1  0.36820000  0.63320000  0.99030000  1.0 0.1189583307
H  H512  1  0.13180000  0.63320000  0.00970000  1.0 0.1095201687
H  H513  1  0.63180000  0.86680000  0.99030000  1.0 0.1009523012
H  H514  1  0.13320000  0.50970000  0.36820000  1.0 0.09153541
H  H515  1  0.36680000  0.99030000  0.36820000  1.0 0.0701121885
H  H516  1  0.36680000  0.50970000  0.13180000  1.0 0.0701121885
H  H517  1  0.99030000  0.36820000  0.36680000  1.0 0.0701121885
H  H518  1  0.50970000  0.13180000  0.36680000  1.0 0.0701121885
H  H519  1  0.50970000  0.36820000  0.13320000  1.0 0.09153541
H  H520  1  0.13180000  0.36680000  0.50970000  1.0 0.0701121885
H  H521  1  0.36820000  0.36680000  0.99030000  1.0 0.0701121885
H  H522  1  0.36820000  0.13320000  0.50970000  1.0 0.09153541
H  H523  1  0.30860000  0.08410000  0.17190000  1.0 0.1685902285
H  H524  1  0.16590000  0.05860000  0.42190000  1.0 0.129419425
H  H525  1  0.19140000  0.91590000  0.67190000  1.0 0.1613602534
H  H526  1  0.33410000  0.94140000  0.92190000  1.0 0.1397533246
H  H527  1  0.30860000  0.91590000  0.32810000  1.0 0.129419425
H  H528  1  0.33410000  0.05860000  0.57810000  1.0 0.09153541
H  H529  1  0.19140000  0.08410000  0.82810000  1.0 0.150639628
H  H530  1  0.16590000  0.94140000  0.07810000  1.0 0.1397533246
H  H531  1  0.17190000  0.30860000  0.08410000  1.0 0.1685902285
H  H532  1  0.94140000  0.92190000  0.33410000  1.0 0.1397533246
H  H533  1  0.32810000  0.69140000  0.58410000  1.0 0.150639628
H  H534  1  0.55860000  0.07810000  0.83410000  1.0 0.1613602534
H  H535  1  0.17190000  0.69140000  0.41590000  1.0 0.1397533246
H  H536  1  0.55860000  0.92190000  0.66590000  1.0 0.1613602534
H  H537  1  0.32810000  0.30860000  0.91590000  1.0 0.129419425
H  H538  1  0.94140000  0.07810000  0.16590000  1.0 0.1397533246
H  H539  1  0.08410000  0.17190000  0.30860000  1.0 0.1685902285
H  H540  1  0.07810000  0.16590000  0.94140000  1.0 0.1397533246
H  H541  1  0.57810000  0.33410000  0.05860000  1.0 0.09153541
H  H542  1  0.92190000  0.33410000  0.94140000  1.0 0.1397533246
H  H543  1  0.42190000  0.16590000  0.05860000  1.0 0.129419425
H  H544  1  0.08410000  0.82810000  0.19140000  1.0 0.150639628
H  H545  1  0.91590000  0.32810000  0.30860000  1.0 0.129419425
H  H546  1  0.91590000  0.67190000  0.19140000  1.0 0.1613602534
H  H547  1  0.80860000  0.58410000  0.67190000  1.0 0.150639628
H  H548  1  0.66590000  0.55860000  0.92190000  1.0 0.1613602534
H  H549  1  0.69140000  0.41590000  0.17190000  1.0 0.1397533246
H  H550  1  0.83410000  0.44140000  0.42190000  1.0 0.1189583307
H  H551  1  0.80860000  0.41590000  0.82810000  1.0 0.150639628
H  H552  1  0.83410000  0.55860000  0.07810000  1.0 0.1613602534
H  H553  1  0.69140000  0.58410000  0.32810000  1.0 0.150639628
H  H554  1  0.66590000  0.44140000  0.57810000  1.0 0.150639628
H  H555  1  0.67190000  0.80860000  0.58410000  1.0 0.150639628
H  H556  1  0.44140000  0.42190000  0.83410000  1.0 0.1189583307
H  H557  1  0.82810000  0.19140000  0.08410000  1.0 0.150639628
H  H558  1  0.05860000  0.57810000  0.33410000  1.0 0.09153541
H  H559  1  0.67190000  0.19140000  0.91590000  1.0 0.1613602534
H  H560  1  0.05860000  0.42190000  0.16590000  1.0 0.129419425
H  H561  1  0.82810000  0.80860000  0.41590000  1.0 0.150639628
H  H562  1  0.44140000  0.57810000  0.66590000  1.0 0.150639628
H  H563  1  0.58410000  0.67190000  0.80860000  1.0 0.150639628
H  H564  1  0.57810000  0.66590000  0.44140000  1.0 0.150639628
H  H565  1  0.07810000  0.83410000  0.55860000  1.0 0.1613602534
H  H566  1  0.42190000  0.83410000  0.44140000  1.0 0.1189583307
H  H567  1  0.92190000  0.66590000  0.55860000  1.0 0.1613602534
H  H568  1  0.58410000  0.32810000  0.69140000  1.0 0.150639628
H  H569  1  0.41590000  0.82810000  0.80860000  1.0 0.150639628
H  H570  1  0.41590000  0.17190000  0.69140000  1.0 0.1397533246
H  H571  1  0.69140000  0.91590000  0.82810000  1.0 0.150639628
H  H572  1  0.33410000  0.44140000  0.07810000  1.0 0.129419425
H  H573  1  0.80860000  0.08410000  0.32810000  1.0 0.1397533246
H  H574  1  0.16590000  0.55860000  0.57810000  1.0 0.1397533246
H  H575  1  0.69140000  0.08410000  0.67190000  1.0 0.150639628
H  H576  1  0.16590000  0.44140000  0.92190000  1.0 0.09153541
H  H577  1  0.80860000  0.91590000  0.17190000  1.0 0.150639628
H  H578  1  0.33410000  0.55860000  0.42190000  1.0 0.1397533246
H  H579  1  0.82810000  0.69140000  0.91590000  1.0 0.150639628
H  H580  1  0.55860000  0.57810000  0.16590000  1.0 0.1397533246
H  H581  1  0.67190000  0.30860000  0.41590000  1.0 0.150639628
H  H582  1  0.94140000  0.42190000  0.66590000  1.0 0.1613602534
H  H583  1  0.82810000  0.30860000  0.58410000  1.0 0.1613602534
H  H584  1  0.94140000  0.57810000  0.83410000  1.0 0.1613602534
H  H585  1  0.67190000  0.69140000  0.08410000  1.0 0.150639628
H  H586  1  0.55860000  0.42190000  0.33410000  1.0 0.1397533246
H  H587  1  0.91590000  0.82810000  0.69140000  1.0 0.150639628
H  H588  1  0.42190000  0.33410000  0.55860000  1.0 0.1397533246
H  H589  1  0.92190000  0.16590000  0.44140000  1.0 0.09153541
H  H590  1  0.57810000  0.16590000  0.55860000  1.0 0.1397533246
H  H591  1  0.07810000  0.33410000  0.44140000  1.0 0.129419425
H  H592  1  0.91590000  0.17190000  0.80860000  1.0 0.150639628
H  H593  1  0.08410000  0.67190000  0.69140000  1.0 0.150639628
H  H594  1  0.08410000  0.32810000  0.80860000  1.0 0.1397533246
H  H595  1  0.19140000  0.41590000  0.32810000  1.0 0.1685902285
H  H596  1  0.33410000  0.94140000  0.07810000  1.0 0.1095201687
H  H597  1  0.30860000  0.58410000  0.82810000  1.0 0.1613602534
H  H598  1  0.16590000  0.55860000  0.07810000  1.0 0.09153541
H  H599  1  0.19140000  0.58410000  0.17190000  1.0 0.129419425
H  H600  1  0.16590000  0.94140000  0.42190000  1.0 0.129419425
H  H601  1  0.30860000  0.41590000  0.67190000  1.0 0.150639628
H  H602  1  0.32810000  0.19140000  0.41590000  1.0 0.1685902285
H  H603  1  0.55860000  0.07810000  0.16590000  1.0 0.09153541
H  H604  1  0.17190000  0.80860000  0.91590000  1.0 0.150639628
H  H605  1  0.94140000  0.42190000  0.16590000  1.0 0.129419425
H  H606  1  0.32810000  0.80860000  0.08410000  1.0 0.1397533246
H  H607  1  0.94140000  0.07810000  0.33410000  1.0 0.1095201687
H  H608  1  0.17190000  0.19140000  0.58410000  1.0 0.129419425
H  H609  1  0.41590000  0.32810000  0.19140000  1.0 0.1685902285
H  H610  1  0.42190000  0.16590000  0.94140000  1.0 0.129419425
H  H611  1  0.07810000  0.16590000  0.55860000  1.0 0.09153541
H  H612  1  0.07810000  0.33410000  0.94140000  1.0 0.1095201687
H  H613  1  0.41590000  0.67190000  0.30860000  1.0 0.150639628
H  H614  1  0.58410000  0.17190000  0.19140000  1.0 0.129419425
H  H615  1  0.58410000  0.82810000  0.30860000  1.0 0.1613602534
H  H616  1  0.83410000  0.94140000  0.57810000  1.0 0.1613602534
H  H617  1  0.66590000  0.05860000  0.07810000  1.0 0.1189583307
H  H618  1  0.66590000  0.94140000  0.42190000  1.0 0.1613602534
H  H619  1  0.83410000  0.05860000  0.92190000  1.0 0.150639628
H  H620  1  0.05860000  0.07810000  0.66590000  1.0 0.1189583307
H  H621  1  0.44140000  0.92190000  0.16590000  1.0 0.09153541
H  H622  1  0.44140000  0.07810000  0.33410000  1.0 0.129419425
H  H623  1  0.05860000  0.92190000  0.83410000  1.0 0.150639628
H  H624  1  0.92190000  0.83410000  0.05860000  1.0 0.150639628
H  H625  1  0.42190000  0.66590000  0.94140000  1.0 0.1613602534
H  H626  1  0.07810000  0.66590000  0.05860000  1.0 0.1189583307
H  H627  1  0.57810000  0.83410000  0.94140000  1.0 0.1613602534
H  H628  1  0.16590000  0.55860000  0.42190000  1.0 0.1095201687
H  H629  1  0.33410000  0.94140000  0.42190000  1.0 0.09153541
H  H630  1  0.33410000  0.55860000  0.07810000  1.0 0.129419425
H  H631  1  0.94140000  0.42190000  0.33410000  1.0 0.09153541
H  H632  1  0.55860000  0.07810000  0.33410000  1.0 0.129419425
H  H633  1  0.55860000  0.42190000  0.16590000  1.0 0.1095201687
H  H634  1  0.07810000  0.33410000  0.55860000  1.0 0.129419425
H  H635  1  0.42190000  0.33410000  0.94140000  1.0 0.09153541
H  H636  1  0.42190000  0.16590000  0.55860000  1.0 0.1095201687
H  H637  1  0.34850000  0.09590000  0.20310000  1.0 0.09153541
H  H638  1  0.15410000  0.09850000  0.45310000  1.0 0.1189583307
H  H639  1  0.15150000  0.90410000  0.70310000  1.0 0.1685902285
H  H640  1  0.34590000  0.90150000  0.95310000  1.0 0.1613602534
H  H641  1  0.34850000  0.90410000  0.29690000  1.0 0.1613602534
H  H642  1  0.34590000  0.09850000  0.54690000  1.0 0.09153541
H  H643  1  0.15150000  0.09590000  0.79690000  1.0 0.1685902285
H  H644  1  0.15410000  0.90150000  0.04690000  1.0 0.1685902285
H  H645  1  0.20310000  0.34850000  0.09590000  1.0 0.09153541
H  H646  1  0.90150000  0.95310000  0.34590000  1.0 0.1613602534
H  H647  1  0.29690000  0.65150000  0.59590000  1.0 0.1685902285
H  H648  1  0.59850000  0.04690000  0.84590000  1.0 0.1765569674
H  H649  1  0.20310000  0.65150000  0.40410000  1.0 0.1613602534
H  H650  1  0.59850000  0.95310000  0.65410000  1.0 0.1685902285
H  H651  1  0.29690000  0.34850000  0.90410000  1.0 0.1613602534
H  H652  1  0.90150000  0.04690000  0.15410000  1.0 0.1685902285
H  H653  1  0.09590000  0.20310000  0.34850000  1.0 0.09153541
H  H654  1  0.04690000  0.15410000  0.90150000  1.0 0.1685902285
H  H655  1  0.54690000  0.34590000  0.09850000  1.0 0.09153541
H  H656  1  0.95310000  0.34590000  0.90150000  1.0 0.1613602534
H  H657  1  0.45310000  0.15410000  0.09850000  1.0 0.1189583307
H  H658  1  0.09590000  0.79690000  0.15150000  1.0 0.1685902285
H  H659  1  0.90410000  0.29690000  0.34850000  1.0 0.1613602534
H  H660  1  0.90410000  0.70310000  0.15150000  1.0 0.1685902285
H  H661  1  0.84850000  0.59590000  0.70310000  1.0 0.1685902285
H  H662  1  0.65410000  0.59850000  0.95310000  1.0 0.1685902285
H  H663  1  0.65150000  0.40410000  0.20310000  1.0 0.1613602534
H  H664  1  0.84590000  0.40150000  0.45310000  1.0 0.09153541
H  H665  1  0.84850000  0.40410000  0.79690000  1.0 0.1685902285
H  H666  1  0.84590000  0.59850000  0.04690000  1.0 0.1765569674
H  H667  1  0.65150000  0.59590000  0.29690000  1.0 0.1685902285
H  H668  1  0.65410000  0.40150000  0.54690000  1.0 0.1685902285
H  H669  1  0.70310000  0.84850000  0.59590000  1.0 0.1685902285
H  H670  1  0.40150000  0.45310000  0.84590000  1.0 0.09153541
H  H671  1  0.79690000  0.15150000  0.09590000  1.0 0.1685902285
H  H672  1  0.09850000  0.54690000  0.34590000  1.0 0.09153541
H  H673  1  0.70310000  0.15150000  0.90410000  1.0 0.1685902285
H  H674  1  0.09850000  0.45310000  0.15410000  1.0 0.1189583307
H  H675  1  0.79690000  0.84850000  0.40410000  1.0 0.1685902285
H  H676  1  0.40150000  0.54690000  0.65410000  1.0 0.1685902285
H  H677  1  0.59590000  0.70310000  0.84850000  1.0 0.1685902285
H  H678  1  0.54690000  0.65410000  0.40150000  1.0 0.1685902285
H  H679  1  0.04690000  0.84590000  0.59850000  1.0 0.1765569674
H  H680  1  0.45310000  0.84590000  0.40150000  1.0 0.09153541
H  H681  1  0.95310000  0.65410000  0.59850000  1.0 0.1685902285
H  H682  1  0.59590000  0.29690000  0.65150000  1.0 0.1685902285
H  H683  1  0.40410000  0.79690000  0.84850000  1.0 0.1685902285
H  H684  1  0.40410000  0.20310000  0.65150000  1.0 0.1613602534
H  H685  1  0.65150000  0.90410000  0.79690000  1.0 0.1685902285
H  H686  1  0.34590000  0.40150000  0.04690000  1.0 0.1189583307
H  H687  1  0.84850000  0.09590000  0.29690000  1.0 0.1613602534
H  H688  1  0.15410000  0.59850000  0.54690000  1.0 0.1613602534
H  H689  1  0.65150000  0.09590000  0.70310000  1.0 0.1685902285
H  H690  1  0.15410000  0.40150000  0.95310000  1.0 0.09153541
H  H691  1  0.84850000  0.90410000  0.20310000  1.0 0.1685902285
H  H692  1  0.34590000  0.59850000  0.45310000  1.0 0.1685902285
H  H693  1  0.79690000  0.65150000  0.90410000  1.0 0.1685902285
H  H694  1  0.59850000  0.54690000  0.15410000  1.0 0.1613602534
H  H695  1  0.70310000  0.34850000  0.40410000  1.0 0.1685902285
H  H696  1  0.90150000  0.45310000  0.65410000  1.0 0.1765569674
H  H697  1  0.79690000  0.34850000  0.59590000  1.0 0.1685902285
H  H698  1  0.90150000  0.54690000  0.84590000  1.0 0.1685902285
H  H699  1  0.70310000  0.65150000  0.09590000  1.0 0.1685902285
H  H700  1  0.59850000  0.45310000  0.34590000  1.0 0.1685902285
H  H701  1  0.90410000  0.79690000  0.65150000  1.0 0.1685902285
H  H702  1  0.45310000  0.34590000  0.59850000  1.0 0.1685902285
H  H703  1  0.95310000  0.15410000  0.40150000  1.0 0.09153541
H  H704  1  0.54690000  0.15410000  0.59850000  1.0 0.1613602534
H  H705  1  0.04690000  0.34590000  0.40150000  1.0 0.1189583307
H  H706  1  0.90410000  0.20310000  0.84850000  1.0 0.1685902285
H  H707  1  0.09590000  0.70310000  0.65150000  1.0 0.1685902285
H  H708  1  0.09590000  0.29690000  0.84850000  1.0 0.1613602534
H  H709  1  0.15150000  0.40410000  0.29690000  1.0 0.09153541
H  H710  1  0.34590000  0.90150000  0.04690000  1.0 0.09153541
H  H711  1  0.34850000  0.59590000  0.79690000  1.0 0.1685902285
H  H712  1  0.15410000  0.59850000  0.04690000  1.0 0.09153541
H  H713  1  0.15150000  0.59590000  0.20310000  1.0 0.1613602534
H  H714  1  0.15410000  0.90150000  0.45310000  1.0 0.1009523012
H  H715  1  0.34850000  0.40410000  0.70310000  1.0 0.1685902285
H  H716  1  0.29690000  0.15150000  0.40410000  1.0 0.09153541
H  H717  1  0.59850000  0.04690000  0.15410000  1.0 0.09153541
H  H718  1  0.20310000  0.84850000  0.90410000  1.0 0.1685902285
H  H719  1  0.90150000  0.45310000  0.15410000  1.0 0.1009523012
H  H720  1  0.29690000  0.84850000  0.09590000  1.0 0.1613602534
H  H721  1  0.90150000  0.04690000  0.34590000  1.0 0.09153541
H  H722  1  0.20310000  0.15150000  0.59590000  1.0 0.1613602534
H  H723  1  0.40410000  0.29690000  0.15150000  1.0 0.09153541
H  H724  1  0.45310000  0.15410000  0.90150000  1.0 0.1009523012
H  H725  1  0.04690000  0.15410000  0.59850000  1.0 0.09153541
H  H726  1  0.04690000  0.34590000  0.90150000  1.0 0.09153541
H  H727  1  0.40410000  0.70310000  0.34850000  1.0 0.1685902285
H  H728  1  0.59590000  0.20310000  0.15150000  1.0 0.1613602534
H  H729  1  0.59590000  0.79690000  0.34850000  1.0 0.1685902285
H  H730  1  0.84590000  0.90150000  0.54690000  1.0 0.1685902285
H  H731  1  0.65410000  0.09850000  0.04690000  1.0 0.09153541
H  H732  1  0.65410000  0.90150000  0.45310000  1.0 0.1765569674
H  H733  1  0.84590000  0.09850000  0.95310000  1.0 0.1685902285
H  H734  1  0.09850000  0.04690000  0.65410000  1.0 0.09153541
H  H735  1  0.40150000  0.95310000  0.15410000  1.0 0.09153541
H  H736  1  0.40150000  0.04690000  0.34590000  1.0 0.1189583307
H  H737  1  0.09850000  0.95310000  0.84590000  1.0 0.1685902285
H  H738  1  0.95310000  0.84590000  0.09850000  1.0 0.1685902285
H  H739  1  0.45310000  0.65410000  0.90150000  1.0 0.1765569674
H  H740  1  0.04690000  0.65410000  0.09850000  1.0 0.09153541
H  H741  1  0.54690000  0.84590000  0.90150000  1.0 0.1685902285
H  H742  1  0.15410000  0.59850000  0.45310000  1.0 0.09153541
H  H743  1  0.34590000  0.90150000  0.45310000  1.0 0.09153541
H  H744  1  0.34590000  0.59850000  0.04690000  1.0 0.1009523012
H  H745  1  0.90150000  0.45310000  0.34590000  1.0 0.09153541
H  H746  1  0.59850000  0.04690000  0.34590000  1.0 0.1009523012
H  H747  1  0.59850000  0.45310000  0.15410000  1.0 0.09153541
H  H748  1  0.04690000  0.34590000  0.59850000  1.0 0.1009523012
H  H749  1  0.45310000  0.34590000  0.90150000  1.0 0.09153541
H  H750  1  0.45310000  0.15410000  0.59850000  1.0 0.09153541
H  H751  1  0.30500000  0.12440000  0.20450000  1.0 0.1613602534
H  H752  1  0.12560000  0.05500000  0.45450000  1.0 0.1397533246
H  H753  1  0.19500000  0.87560000  0.70450000  1.0 0.1613602534
H  H754  1  0.37440000  0.94500000  0.95450000  1.0 0.1613602534
H  H755  1  0.30500000  0.87560000  0.29550000  1.0 0.1685902285
H  H756  1  0.37440000  0.05500000  0.54550000  1.0 0.1009523012
H  H757  1  0.19500000  0.12440000  0.79550000  1.0 0.1613602534
H  H758  1  0.12560000  0.94500000  0.04550000  1.0 0.1613602534
H  H759  1  0.20450000  0.30500000  0.12440000  1.0 0.1613602534
H  H760  1  0.94500000  0.95450000  0.37440000  1.0 0.1613602534
H  H761  1  0.29550000  0.69500000  0.62440000  1.0 0.1613602534
H  H762  1  0.55500000  0.04550000  0.87440000  1.0 0.1685902285
H  H763  1  0.20450000  0.69500000  0.37560000  1.0 0.1613602534
H  H764  1  0.55500000  0.95450000  0.62560000  1.0 0.1685902285
H  H765  1  0.29550000  0.30500000  0.87560000  1.0 0.1685902285
H  H766  1  0.94500000  0.04550000  0.12560000  1.0 0.1613602534
H  H767  1  0.12440000  0.20450000  0.30500000  1.0 0.1613602534
H  H768  1  0.04550000  0.12560000  0.94500000  1.0 0.1613602534
H  H769  1  0.54550000  0.37440000  0.05500000  1.0 0.1009523012
H  H770  1  0.95450000  0.37440000  0.94500000  1.0 0.1613602534
H  H771  1  0.45450000  0.12560000  0.05500000  1.0 0.1397533246
H  H772  1  0.12440000  0.79550000  0.19500000  1.0 0.1613602534
H  H773  1  0.87560000  0.29550000  0.30500000  1.0 0.1685902285
H  H774  1  0.87560000  0.70450000  0.19500000  1.0 0.1613602534
H  H775  1  0.80500000  0.62440000  0.70450000  1.0 0.1613602534
H  H776  1  0.62560000  0.55500000  0.95450000  1.0 0.1685902285
H  H777  1  0.69500000  0.37560000  0.20450000  1.0 0.1613602534
H  H778  1  0.87440000  0.44500000  0.45450000  1.0 0.0701121885
H  H779  1  0.80500000  0.37560000  0.79550000  1.0 0.1613602534
H  H780  1  0.87440000  0.55500000  0.04550000  1.0 0.1685902285
H  H781  1  0.69500000  0.62440000  0.29550000  1.0 0.1613602534
H  H782  1  0.62560000  0.44500000  0.54550000  1.0 0.1613602534
H  H783  1  0.70450000  0.80500000  0.62440000  1.0 0.1613602534
H  H784  1  0.44500000  0.45450000  0.87440000  1.0 0.0701121885
H  H785  1  0.79550000  0.19500000  0.12440000  1.0 0.1613602534
H  H786  1  0.05500000  0.54550000  0.37440000  1.0 0.1009523012
H  H787  1  0.70450000  0.19500000  0.87560000  1.0 0.1613602534
H  H788  1  0.05500000  0.45450000  0.12560000  1.0 0.1397533246
H  H789  1  0.79550000  0.80500000  0.37560000  1.0 0.1613602534
H  H790  1  0.44500000  0.54550000  0.62560000  1.0 0.1613602534
H  H791  1  0.62440000  0.70450000  0.80500000  1.0 0.1613602534
H  H792  1  0.54550000  0.62560000  0.44500000  1.0 0.1613602534
H  H793  1  0.04550000  0.87440000  0.55500000  1.0 0.1685902285
H  H794  1  0.45450000  0.87440000  0.44500000  1.0 0.0701121885
H  H795  1  0.95450000  0.62560000  0.55500000  1.0 0.1685902285
H  H796  1  0.62440000  0.29550000  0.69500000  1.0 0.1613602534
H  H797  1  0.37560000  0.79550000  0.80500000  1.0 0.1613602534
H  H798  1  0.37560000  0.20450000  0.69500000  1.0 0.1613602534
H  H799  1  0.69500000  0.87560000  0.79550000  1.0 0.1613602534
H  H800  1  0.37440000  0.44500000  0.04550000  1.0 0.1397533246
H  H801  1  0.80500000  0.12440000  0.29550000  1.0 0.1613602534
H  H802  1  0.12560000  0.55500000  0.54550000  1.0 0.1613602534
H  H803  1  0.69500000  0.12440000  0.70450000  1.0 0.1613602534
H  H804  1  0.12560000  0.44500000  0.95450000  1.0 0.1009523012
H  H805  1  0.80500000  0.87560000  0.20450000  1.0 0.1613602534
H  H806  1  0.37440000  0.55500000  0.45450000  1.0 0.1613602534
H  H807  1  0.79550000  0.69500000  0.87560000  1.0 0.1613602534
H  H808  1  0.55500000  0.54550000  0.12560000  1.0 0.1613602534
H  H809  1  0.70450000  0.30500000  0.37560000  1.0 0.1613602534
H  H810  1  0.94500000  0.45450000  0.62560000  1.0 0.1685902285
H  H811  1  0.79550000  0.30500000  0.62440000  1.0 0.1613602534
H  H812  1  0.94500000  0.54550000  0.87440000  1.0 0.1685902285
H  H813  1  0.70450000  0.69500000  0.12440000  1.0 0.1613602534
H  H814  1  0.55500000  0.45450000  0.37440000  1.0 0.1613602534
H  H815  1  0.87560000  0.79550000  0.69500000  1.0 0.1613602534
H  H816  1  0.45450000  0.37440000  0.55500000  1.0 0.1613602534
H  H817  1  0.95450000  0.12560000  0.44500000  1.0 0.1009523012
H  H818  1  0.54550000  0.12560000  0.55500000  1.0 0.1613602534
H  H819  1  0.04550000  0.37440000  0.44500000  1.0 0.1397533246
H  H820  1  0.87560000  0.20450000  0.80500000  1.0 0.1613602534
H  H821  1  0.12440000  0.70450000  0.69500000  1.0 0.1613602534
H  H822  1  0.12440000  0.29550000  0.80500000  1.0 0.1613602534
H  H823  1  0.19500000  0.37560000  0.29550000  1.0 0.1613602534
H  H824  1  0.37440000  0.94500000  0.04550000  1.0 0.0701121885
H  H825  1  0.30500000  0.62440000  0.79550000  1.0 0.1613602534
H  H826  1  0.12560000  0.55500000  0.04550000  1.0 0.1009523012
H  H827  1  0.19500000  0.62440000  0.20450000  1.0 0.1685902285
H  H828  1  0.12560000  0.94500000  0.45450000  1.0 0.1397533246
H  H829  1  0.30500000  0.37560000  0.70450000  1.0 0.1613602534
H  H830  1  0.29550000  0.19500000  0.37560000  1.0 0.1613602534
H  H831  1  0.55500000  0.04550000  0.12560000  1.0 0.1095201687
H  H832  1  0.20450000  0.80500000  0.87560000  1.0 0.1613602534
H  H833  1  0.94500000  0.45450000  0.12560000  1.0 0.1397533246
H  H834  1  0.29550000  0.80500000  0.12440000  1.0 0.1613602534
H  H835  1  0.94500000  0.04550000  0.37440000  1.0 0.0701121885
H  H836  1  0.20450000  0.19500000  0.62440000  1.0 0.1685902285
H  H837  1  0.37560000  0.29550000  0.19500000  1.0 0.1613602534
H  H838  1  0.45450000  0.12560000  0.94500000  1.0 0.1397533246
H  H839  1  0.04550000  0.12560000  0.55500000  1.0 0.1009523012
H  H840  1  0.04550000  0.37440000  0.94500000  1.0 0.0701121885
H  H841  1  0.37560000  0.70450000  0.30500000  1.0 0.1613602534
H  H842  1  0.62440000  0.20450000  0.19500000  1.0 0.1685902285
H  H843  1  0.62440000  0.79550000  0.30500000  1.0 0.1613602534
H  H844  1  0.87440000  0.94500000  0.54550000  1.0 0.1685902285
H  H845  1  0.62560000  0.05500000  0.04550000  1.0 0.0701121885
H  H846  1  0.62560000  0.94500000  0.45450000  1.0 0.1685902285
H  H847  1  0.87440000  0.05500000  0.95450000  1.0 0.1613602534
H  H848  1  0.05500000  0.04550000  0.62560000  1.0 0.0701121885
H  H849  1  0.44500000  0.95450000  0.12560000  1.0 0.1009523012
H  H850  1  0.44500000  0.04550000  0.37440000  1.0 0.1397533246
H  H851  1  0.05500000  0.95450000  0.87440000  1.0 0.1613602534
H  H852  1  0.95450000  0.87440000  0.05500000  1.0 0.1613602534
H  H853  1  0.45450000  0.62560000  0.94500000  1.0 0.1685902285
H  H854  1  0.04550000  0.62560000  0.05500000  1.0 0.0701121885
H  H855  1  0.54550000  0.87440000  0.94500000  1.0 0.1685902285
H  H856  1  0.12560000  0.55500000  0.45450000  1.0 0.0701121885
H  H857  1  0.37440000  0.94500000  0.45450000  1.0 0.1095201687
H  H858  1  0.37440000  0.55500000  0.04550000  1.0 0.1397533246
H  H859  1  0.94500000  0.45450000  0.37440000  1.0 0.1095201687
H  H860  1  0.55500000  0.04550000  0.37440000  1.0 0.1397533246
H  H861  1  0.55500000  0.45450000  0.12560000  1.0 0.0701121885
H  H862  1  0.04550000  0.37440000  0.55500000  1.0 0.1397533246
H  H863  1  0.45450000  0.37440000  0.94500000  1.0 0.1095201687
H  H864  1  0.45450000  0.12560000  0.55500000  1.0 0.0701121885
H  H865  1  0.38950000  0.20870000  0.14600000  1.0 0.1189583307
H  H866  1  0.04130000  0.13950000  0.39600000  1.0 0.150639628
H  H867  1  0.11050000  0.79130000  0.64600000  1.0 0.1613602534
H  H868  1  0.45870000  0.86050000  0.89600000  1.0 0.1685902285
H  H869  1  0.38950000  0.79130000  0.35400000  1.0 0.1613602534
H  H870  1  0.45870000  0.13950000  0.60400000  1.0 0.1009523012
H  H871  1  0.11050000  0.20870000  0.85400000  1.0 0.1613602534
H  H872  1  0.04130000  0.86050000  0.10400000  1.0 0.1613602534
H  H873  1  0.14600000  0.38950000  0.20870000  1.0 0.1189583307
H  H874  1  0.86050000  0.89600000  0.45870000  1.0 0.1685902285
H  H875  1  0.35400000  0.61050000  0.70870000  1.0 0.1613602534
H  H876  1  0.63950000  0.10400000  0.95870000  1.0 0.1685902285
H  H877  1  0.14600000  0.61050000  0.29130000  1.0 0.1613602534
H  H878  1  0.63950000  0.89600000  0.54130000  1.0 0.1613602534
H  H879  1  0.35400000  0.38950000  0.79130000  1.0 0.1613602534
H  H880  1  0.86050000  0.10400000  0.04130000  1.0 0.1613602534
H  H881  1  0.20870000  0.14600000  0.38950000  1.0 0.1189583307
H  H882  1  0.10400000  0.04130000  0.86050000  1.0 0.1613602534
H  H883  1  0.60400000  0.45870000  0.13950000  1.0 0.1009523012
H  H884  1  0.89600000  0.45870000  0.86050000  1.0 0.1685902285
H  H885  1  0.39600000  0.04130000  0.13950000  1.0 0.150639628
H  H886  1  0.20870000  0.85400000  0.11050000  1.0 0.1613602534
H  H887  1  0.79130000  0.35400000  0.38950000  1.0 0.1613602534
H  H888  1  0.79130000  0.64600000  0.11050000  1.0 0.1613602534
H  H889  1  0.88950000  0.70870000  0.64600000  1.0 0.1613602534
H  H890  1  0.54130000  0.63950000  0.89600000  1.0 0.1613602534
H  H891  1  0.61050000  0.29130000  0.14600000  1.0 0.1613602534
H  H892  1  0.95870000  0.36050000  0.39600000  1.0 0.0701121885
H  H893  1  0.88950000  0.29130000  0.85400000  1.0 0.1613602534
H  H894  1  0.95870000  0.63950000  0.10400000  1.0 0.1685902285
H  H895  1  0.61050000  0.70870000  0.35400000  1.0 0.1613602534
H  H896  1  0.54130000  0.36050000  0.60400000  1.0 0.1613602534
H  H897  1  0.64600000  0.88950000  0.70870000  1.0 0.1613602534
H  H898  1  0.36050000  0.39600000  0.95870000  1.0 0.0701121885
H  H899  1  0.85400000  0.11050000  0.20870000  1.0 0.1613602534
H  H900  1  0.13950000  0.60400000  0.45870000  1.0 0.1009523012
H  H901  1  0.64600000  0.11050000  0.79130000  1.0 0.1613602534
H  H902  1  0.13950000  0.39600000  0.04130000  1.0 0.150639628
H  H903  1  0.85400000  0.88950000  0.29130000  1.0 0.1613602534
H  H904  1  0.36050000  0.60400000  0.54130000  1.0 0.1613602534
H  H905  1  0.70870000  0.64600000  0.88950000  1.0 0.1613602534
H  H906  1  0.60400000  0.54130000  0.36050000  1.0 0.1613602534
H  H907  1  0.10400000  0.95870000  0.63950000  1.0 0.1685902285
H  H908  1  0.39600000  0.95870000  0.36050000  1.0 0.0701121885
H  H909  1  0.89600000  0.54130000  0.63950000  1.0 0.1613602534
H  H910  1  0.70870000  0.35400000  0.61050000  1.0 0.1613602534
H  H911  1  0.29130000  0.85400000  0.88950000  1.0 0.1613602534
H  H912  1  0.29130000  0.14600000  0.61050000  1.0 0.1613602534
H  H913  1  0.61050000  0.79130000  0.85400000  1.0 0.1613602534
H  H914  1  0.45870000  0.36050000  0.10400000  1.0 0.150639628
H  H915  1  0.88950000  0.20870000  0.35400000  1.0 0.1613602534
H  H916  1  0.04130000  0.63950000  0.60400000  1.0 0.1685902285
H  H917  1  0.61050000  0.20870000  0.64600000  1.0 0.1613602534
H  H918  1  0.04130000  0.36050000  0.89600000  1.0 0.1009523012
H  H919  1  0.88950000  0.79130000  0.14600000  1.0 0.1613602534
H  H920  1  0.45870000  0.63950000  0.39600000  1.0 0.1613602534
H  H921  1  0.85400000  0.61050000  0.79130000  1.0 0.1613602534
H  H922  1  0.63950000  0.60400000  0.04130000  1.0 0.1685902285
H  H923  1  0.64600000  0.38950000  0.29130000  1.0 0.1613602534
H  H924  1  0.86050000  0.39600000  0.54130000  1.0 0.1685902285
H  H925  1  0.85400000  0.38950000  0.70870000  1.0 0.1613602534
H  H926  1  0.86050000  0.60400000  0.95870000  1.0 0.1613602534
H  H927  1  0.64600000  0.61050000  0.20870000  1.0 0.1613602534
H  H928  1  0.63950000  0.39600000  0.45870000  1.0 0.1613602534
H  H929  1  0.79130000  0.85400000  0.61050000  1.0 0.1613602534
H  H930  1  0.39600000  0.45870000  0.63950000  1.0 0.1613602534
H  H931  1  0.89600000  0.04130000  0.36050000  1.0 0.1009523012
H  H932  1  0.60400000  0.04130000  0.63950000  1.0 0.1685902285
H  H933  1  0.10400000  0.45870000  0.36050000  1.0 0.150639628
H  H934  1  0.79130000  0.14600000  0.88950000  1.0 0.1613602534
H  H935  1  0.20870000  0.64600000  0.61050000  1.0 0.1613602534
H  H936  1  0.20870000  0.35400000  0.88950000  1.0 0.1613602534
H  H937  1  0.11050000  0.29130000  0.35400000  1.0 0.1189583307
H  H938  1  0.45870000  0.86050000  0.10400000  1.0 0.0793917508
H  H939  1  0.38950000  0.70870000  0.85400000  1.0 0.1613602534
H  H940  1  0.04130000  0.63950000  0.10400000  1.0 0.1009523012
H  H941  1  0.11050000  0.70870000  0.14600000  1.0 0.1613602534
H  H942  1  0.04130000  0.86050000  0.39600000  1.0 0.1189583307
H  H943  1  0.38950000  0.29130000  0.64600000  1.0 0.1613602534
H  H944  1  0.35400000  0.11050000  0.29130000  1.0 0.1189583307
H  H945  1  0.63950000  0.10400000  0.04130000  1.0 0.1009523012
H  H946  1  0.14600000  0.88950000  0.79130000  1.0 0.1613602534
H  H947  1  0.86050000  0.39600000  0.04130000  1.0 0.1189583307
H  H948  1  0.35400000  0.88950000  0.20870000  1.0 0.1613602534
H  H949  1  0.86050000  0.10400000  0.45870000  1.0 0.0793917508
H  H950  1  0.14600000  0.11050000  0.70870000  1.0 0.1613602534
H  H951  1  0.29130000  0.35400000  0.11050000  1.0 0.1189583307
H  H952  1  0.39600000  0.04130000  0.86050000  1.0 0.1189583307
H  H953  1  0.10400000  0.04130000  0.63950000  1.0 0.1009523012
H  H954  1  0.10400000  0.45870000  0.86050000  1.0 0.0793917508
H  H955  1  0.29130000  0.64600000  0.38950000  1.0 0.1613602534
H  H956  1  0.70870000  0.14600000  0.11050000  1.0 0.1613602534
H  H957  1  0.70870000  0.85400000  0.38950000  1.0 0.1613602534
H  H958  1  0.95870000  0.86050000  0.60400000  1.0 0.1613602534
H  H959  1  0.54130000  0.13950000  0.10400000  1.0 0.0701121885
H  H960  1  0.54130000  0.86050000  0.39600000  1.0 0.1685902285
H  H961  1  0.95870000  0.13950000  0.89600000  1.0 0.1613602534
H  H962  1  0.13950000  0.10400000  0.54130000  1.0 0.0701121885
H  H963  1  0.36050000  0.89600000  0.04130000  1.0 0.1009523012
H  H964  1  0.36050000  0.10400000  0.45870000  1.0 0.150639628
H  H965  1  0.13950000  0.89600000  0.95870000  1.0 0.1613602534
H  H966  1  0.89600000  0.95870000  0.13950000  1.0 0.1613602534
H  H967  1  0.39600000  0.54130000  0.86050000  1.0 0.1685902285
H  H968  1  0.10400000  0.54130000  0.13950000  1.0 0.0701121885
H  H969  1  0.60400000  0.95870000  0.86050000  1.0 0.1613602534
H  H970  1  0.04130000  0.63950000  0.39600000  1.0 0.0793917508
H  H971  1  0.45870000  0.86050000  0.39600000  1.0 0.1009523012
H  H972  1  0.45870000  0.63950000  0.10400000  1.0 0.1189583307
H  H973  1  0.86050000  0.39600000  0.45870000  1.0 0.1009523012
H  H974  1  0.63950000  0.10400000  0.45870000  1.0 0.1189583307
H  H975  1  0.63950000  0.39600000  0.04130000  1.0 0.0793917508
H  H976  1  0.10400000  0.45870000  0.63950000  1.0 0.1189583307
H  H977  1  0.39600000  0.45870000  0.86050000  1.0 0.1009523012
H  H978  1  0.39600000  0.04130000  0.63950000  1.0 0.0793917508
H  H979  1  0.35820000  0.20640000  0.18750000  1.0 0.1889408088
H  H980  1  0.04360000  0.10820000  0.43750000  1.0 0.1685902285
H  H981  1  0.14180000  0.79360000  0.68750000  1.0 0.1685902285
H  H982  1  0.45640000  0.89180000  0.93750000  1.0 0.1685902285
H  H983  1  0.35820000  0.79360000  0.31250000  1.0 0.1685902285
H  H984  1  0.45640000  0.10820000  0.56250000  1.0 0.09153541
H  H985  1  0.14180000  0.20640000  0.81250000  1.0 0.1685902285
H  H986  1  0.04360000  0.89180000  0.06250000  1.0 0.1685902285
H  H987  1  0.18750000  0.35820000  0.20640000  1.0 0.1889408088
H  H988  1  0.89180000  0.93750000  0.45640000  1.0 0.1685902285
H  H989  1  0.31250000  0.64180000  0.70640000  1.0 0.1685902285
H  H990  1  0.60820000  0.06250000  0.95640000  1.0 0.1685902285
H  H991  1  0.18750000  0.64180000  0.29360000  1.0 0.1685902285
H  H992  1  0.60820000  0.93750000  0.54360000  1.0 0.1685902285
H  H993  1  0.31250000  0.35820000  0.79360000  1.0 0.1685902285
H  H994  1  0.89180000  0.06250000  0.04360000  1.0 0.1685902285
H  H995  1  0.20640000  0.18750000  0.35820000  1.0 0.1889408088
H  H996  1  0.06250000  0.04360000  0.89180000  1.0 0.1685902285
H  H997  1  0.56250000  0.45640000  0.10820000  1.0 0.09153541
H  H998  1  0.93750000  0.45640000  0.89180000  1.0 0.1685902285
H  H999  1  0.43750000  0.04360000  0.10820000  1.0 0.1685902285
H  H1000  1  0.20640000  0.81250000  0.14180000  1.0 0.1685902285
H  H1001  1  0.79360000  0.31250000  0.35820000  1.0 0.1685902285
H  H1002  1  0.79360000  0.68750000  0.14180000  1.0 0.1685902285
H  H1003  1  0.85820000  0.70640000  0.68750000  1.0 0.1685902285
H  H1004  1  0.54360000  0.60820000  0.93750000  1.0 0.1685902285
H  H1005  1  0.64180000  0.29360000  0.18750000  1.0 0.1685902285
H  H1006  1  0.95640000  0.39180000  0.43750000  1.0 0.1095201687
H  H1007  1  0.85820000  0.29360000  0.81250000  1.0 0.1685902285
H  H1008  1  0.95640000  0.60820000  0.06250000  1.0 0.1685902285
H  H1009  1  0.64180000  0.70640000  0.31250000  1.0 0.1685902285
H  H1010  1  0.54360000  0.39180000  0.56250000  1.0 0.1685902285
H  H1011  1  0.68750000  0.85820000  0.70640000  1.0 0.1685902285
H  H1012  1  0.39180000  0.43750000  0.95640000  1.0 0.1095201687
H  H1013  1  0.81250000  0.14180000  0.20640000  1.0 0.1685902285
H  H1014  1  0.10820000  0.56250000  0.45640000  1.0 0.09153541
H  H1015  1  0.68750000  0.14180000  0.79360000  1.0 0.1613602534
H  H1016  1  0.10820000  0.43750000  0.04360000  1.0 0.1685902285
H  H1017  1  0.81250000  0.85820000  0.29360000  1.0 0.1685902285
H  H1018  1  0.39180000  0.56250000  0.54360000  1.0 0.1685902285
H  H1019  1  0.70640000  0.68750000  0.85820000  1.0 0.1685902285
H  H1020  1  0.56250000  0.54360000  0.39180000  1.0 0.1685902285
H  H1021  1  0.06250000  0.95640000  0.60820000  1.0 0.1685902285
H  H1022  1  0.43750000  0.95640000  0.39180000  1.0 0.1095201687
H  H1023  1  0.93750000  0.54360000  0.60820000  1.0 0.1685902285
H  H1024  1  0.70640000  0.31250000  0.64180000  1.0 0.1685902285
H  H1025  1  0.29360000  0.81250000  0.85820000  1.0 0.1685902285
H  H1026  1  0.29360000  0.18750000  0.64180000  1.0 0.1685902285
H  H1027  1  0.64180000  0.79360000  0.81250000  1.0 0.1685902285
H  H1028  1  0.45640000  0.39180000  0.06250000  1.0 0.1685902285
H  H1029  1  0.85820000  0.20640000  0.31250000  1.0 0.1685902285
H  H1030  1  0.04360000  0.60820000  0.56250000  1.0 0.1685902285
H  H1031  1  0.64180000  0.20640000  0.68750000  1.0 0.1685902285
H  H1032  1  0.04360000  0.39180000  0.93750000  1.0 0.09153541
H  H1033  1  0.85820000  0.79360000  0.18750000  1.0 0.1685902285
H  H1034  1  0.45640000  0.60820000  0.43750000  1.0 0.1685902285
H  H1035  1  0.81250000  0.64180000  0.79360000  1.0 0.1685902285
H  H1036  1  0.60820000  0.56250000  0.04360000  1.0 0.1685902285
H  H1037  1  0.68750000  0.35820000  0.29360000  1.0 0.1685902285
H  H1038  1  0.89180000  0.43750000  0.54360000  1.0 0.1685902285
H  H1039  1  0.81250000  0.35820000  0.70640000  1.0 0.1613602534
H  H1040  1  0.89180000  0.56250000  0.95640000  1.0 0.1685902285
H  H1041  1  0.68750000  0.64180000  0.20640000  1.0 0.1685902285
H  H1042  1  0.60820000  0.43750000  0.45640000  1.0 0.1685902285
H  H1043  1  0.79360000  0.81250000  0.64180000  1.0 0.1685902285
H  H1044  1  0.43750000  0.45640000  0.60820000  1.0 0.1685902285
H  H1045  1  0.93750000  0.04360000  0.39180000  1.0 0.09153541
H  H1046  1  0.56250000  0.04360000  0.60820000  1.0 0.1685902285
H  H1047  1  0.06250000  0.45640000  0.39180000  1.0 0.1685902285
H  H1048  1  0.79360000  0.18750000  0.85820000  1.0 0.1685902285
H  H1049  1  0.20640000  0.68750000  0.64180000  1.0 0.1685902285
H  H1050  1  0.20640000  0.31250000  0.85820000  1.0 0.1685902285
H  H1051  1  0.14180000  0.29360000  0.31250000  1.0 0.1889408088
H  H1052  1  0.45640000  0.89180000  0.06250000  1.0 0.1095201687
H  H1053  1  0.35820000  0.70640000  0.81250000  1.0 0.1685902285
H  H1054  1  0.04360000  0.60820000  0.06250000  1.0 0.09153541
H  H1055  1  0.14180000  0.70640000  0.18750000  1.0 0.1685902285
H  H1056  1  0.04360000  0.89180000  0.43750000  1.0 0.1613602534
H  H1057  1  0.35820000  0.29360000  0.68750000  1.0 0.1685902285
H  H1058  1  0.31250000  0.14180000  0.29360000  1.0 0.1889408088
H  H1059  1  0.60820000  0.06250000  0.04360000  1.0 0.09153541
H  H1060  1  0.18750000  0.85820000  0.79360000  1.0 0.1685902285
H  H1061  1  0.89180000  0.43750000  0.04360000  1.0 0.1613602534
H  H1062  1  0.31250000  0.85820000  0.20640000  1.0 0.1685902285
H  H1063  1  0.89180000  0.06250000  0.45640000  1.0 0.1095201687
H  H1064  1  0.18750000  0.14180000  0.70640000  1.0 0.1685902285
H  H1065  1  0.29360000  0.31250000  0.14180000  1.0 0.1889408088
H  H1066  1  0.43750000  0.04360000  0.89180000  1.0 0.1613602534
H  H1067  1  0.06250000  0.04360000  0.60820000  1.0 0.09153541
H  H1068  1  0.06250000  0.45640000  0.89180000  1.0 0.1095201687
H  H1069  1  0.29360000  0.68750000  0.35820000  1.0 0.1685902285
H  H1070  1  0.70640000  0.18750000  0.14180000  1.0 0.1685902285
H  H1071  1  0.70640000  0.81250000  0.35820000  1.0 0.1685902285
H  H1072  1  0.95640000  0.89180000  0.56250000  1.0 0.1685902285
H  H1073  1  0.54360000  0.10820000  0.06250000  1.0 0.1095201687
H  H1074  1  0.54360000  0.89180000  0.43750000  1.0 0.1685902285
H  H1075  1  0.95640000  0.10820000  0.93750000  1.0 0.1685902285
H  H1076  1  0.10820000  0.06250000  0.54360000  1.0 0.1095201687
H  H1077  1  0.39180000  0.93750000  0.04360000  1.0 0.09153541
H  H1078  1  0.39180000  0.06250000  0.45640000  1.0 0.1685902285
H  H1079  1  0.10820000  0.93750000  0.95640000  1.0 0.1685902285
H  H1080  1  0.93750000  0.95640000  0.10820000  1.0 0.1685902285
H  H1081  1  0.43750000  0.54360000  0.89180000  1.0 0.1685902285
H  H1082  1  0.06250000  0.54360000  0.10820000  1.0 0.1095201687
H  H1083  1  0.56250000  0.95640000  0.89180000  1.0 0.1685902285
H  H1084  1  0.04360000  0.60820000  0.43750000  1.0 0.1095201687
H  H1085  1  0.45640000  0.89180000  0.43750000  1.0 0.09153541
H  H1086  1  0.45640000  0.60820000  0.06250000  1.0 0.1613602534
H  H1087  1  0.89180000  0.43750000  0.45640000  1.0 0.09153541
H  H1088  1  0.60820000  0.06250000  0.45640000  1.0 0.1613602534
H  H1089  1  0.60820000  0.43750000  0.04360000  1.0 0.1095201687
H  H1090  1  0.06250000  0.45640000  0.60820000  1.0 0.1613602534
H  H1091  1  0.43750000  0.45640000  0.89180000  1.0 0.09153541
H  H1092  1  0.43750000  0.04360000  0.60820000  1.0 0.1095201687
H  H1093  1  0.40170000  0.17790000  0.18610000  1.0 0.1613602534
H  H1094  1  0.07210000  0.15170000  0.43610000  1.0 0.150639628
H  H1095  1  0.09830000  0.82210000  0.68610000  1.0 0.1613602534
H  H1096  1  0.42790000  0.84830000  0.93610000  1.0 0.1685902285
H  H1097  1  0.40170000  0.82210000  0.31390000  1.0 0.1613602534
H  H1098  1  0.42790000  0.15170000  0.56390000  1.0 0.0617890507
H  H1099  1  0.09830000  0.17790000  0.81390000  1.0 0.1685902285
H  H1100  1  0.07210000  0.84830000  0.06390000  1.0 0.1613602534
H  H1101  1  0.18610000  0.40170000  0.17790000  1.0 0.1613602534
H  H1102  1  0.84830000  0.93610000  0.42790000  1.0 0.1685902285
H  H1103  1  0.31390000  0.59830000  0.67790000  1.0 0.1613602534
H  H1104  1  0.65170000  0.06390000  0.92790000  1.0 0.1613602534
H  H1105  1  0.18610000  0.59830000  0.32210000  1.0 0.150639628
H  H1106  1  0.65170000  0.93610000  0.57210000  1.0 0.1613602534
H  H1107  1  0.31390000  0.40170000  0.82210000  1.0 0.1613602534
H  H1108  1  0.84830000  0.06390000  0.07210000  1.0 0.1613602534
H  H1109  1  0.17790000  0.18610000  0.40170000  1.0 0.1613602534
H  H1110  1  0.06390000  0.07210000  0.84830000  1.0 0.1613602534
H  H1111  1  0.56390000  0.42790000  0.15170000  1.0 0.0617890507
H  H1112  1  0.93610000  0.42790000  0.84830000  1.0 0.1685902285
H  H1113  1  0.43610000  0.07210000  0.15170000  1.0 0.150639628
H  H1114  1  0.17790000  0.81390000  0.09830000  1.0 0.1685902285
H  H1115  1  0.82210000  0.31390000  0.40170000  1.0 0.1613602534
H  H1116  1  0.82210000  0.68610000  0.09830000  1.0 0.1613602534
H  H1117  1  0.90170000  0.67790000  0.68610000  1.0 0.1613602534
H  H1118  1  0.57210000  0.65170000  0.93610000  1.0 0.1613602534
H  H1119  1  0.59830000  0.32210000  0.18610000  1.0 0.150639628
H  H1120  1  0.92790000  0.34830000  0.43610000  1.0 0.0793917508
H  H1121  1  0.90170000  0.32210000  0.81390000  1.0 0.1613602534
H  H1122  1  0.92790000  0.65170000  0.06390000  1.0 0.1613602534
H  H1123  1  0.59830000  0.67790000  0.31390000  1.0 0.1613602534
H  H1124  1  0.57210000  0.34830000  0.56390000  1.0 0.1613602534
H  H1125  1  0.68610000  0.90170000  0.67790000  1.0 0.1613602534
H  H1126  1  0.34830000  0.43610000  0.92790000  1.0 0.0793917508
H  H1127  1  0.81390000  0.09830000  0.17790000  1.0 0.1613602534
H  H1128  1  0.15170000  0.56390000  0.42790000  1.0 0.0617890507
H  H1129  1  0.68610000  0.09830000  0.82210000  1.0 0.1613602534
H  H1130  1  0.15170000  0.43610000  0.07210000  1.0 0.150639628
H  H1131  1  0.81390000  0.90170000  0.32210000  1.0 0.1613602534
H  H1132  1  0.34830000  0.56390000  0.57210000  1.0 0.1613602534
H  H1133  1  0.67790000  0.68610000  0.90170000  1.0 0.1613602534
H  H1134  1  0.56390000  0.57210000  0.34830000  1.0 0.1613602534
H  H1135  1  0.06390000  0.92790000  0.65170000  1.0 0.1613602534
H  H1136  1  0.43610000  0.92790000  0.34830000  1.0 0.0793917508
H  H1137  1  0.93610000  0.57210000  0.65170000  1.0 0.1613602534
H  H1138  1  0.67790000  0.31390000  0.59830000  1.0 0.1613602534
H  H1139  1  0.32210000  0.81390000  0.90170000  1.0 0.1613602534
H  H1140  1  0.32210000  0.18610000  0.59830000  1.0 0.150639628
H  H1141  1  0.59830000  0.82210000  0.81390000  1.0 0.1613602534
H  H1142  1  0.42790000  0.34830000  0.06390000  1.0 0.150639628
H  H1143  1  0.90170000  0.17790000  0.31390000  1.0 0.150639628
H  H1144  1  0.07210000  0.65170000  0.56390000  1.0 0.1685902285
H  H1145  1  0.59830000  0.17790000  0.68610000  1.0 0.1613602534
H  H1146  1  0.07210000  0.34830000  0.93610000  1.0 0.0617890507
H  H1147  1  0.90170000  0.82210000  0.18610000  1.0 0.1613602534
H  H1148  1  0.42790000  0.65170000  0.43610000  1.0 0.1613602534
H  H1149  1  0.81390000  0.59830000  0.82210000  1.0 0.1613602534
H  H1150  1  0.65170000  0.56390000  0.07210000  1.0 0.1685902285
H  H1151  1  0.68610000  0.40170000  0.32210000  1.0 0.1613602534
H  H1152  1  0.84830000  0.43610000  0.57210000  1.0 0.1613602534
H  H1153  1  0.81390000  0.40170000  0.67790000  1.0 0.1613602534
H  H1154  1  0.84830000  0.56390000  0.92790000  1.0 0.1613602534
H  H1155  1  0.68610000  0.59830000  0.17790000  1.0 0.1613602534
H  H1156  1  0.65170000  0.43610000  0.42790000  1.0 0.1613602534
H  H1157  1  0.82210000  0.81390000  0.59830000  1.0 0.1613602534
H  H1158  1  0.43610000  0.42790000  0.65170000  1.0 0.1613602534
H  H1159  1  0.93610000  0.07210000  0.34830000  1.0 0.0617890507
H  H1160  1  0.56390000  0.07210000  0.65170000  1.0 0.1685902285
H  H1161  1  0.06390000  0.42790000  0.34830000  1.0 0.150639628
H  H1162  1  0.82210000  0.18610000  0.90170000  1.0 0.1613602534
H  H1163  1  0.17790000  0.68610000  0.59830000  1.0 0.1613602534
H  H1164  1  0.17790000  0.31390000  0.90170000  1.0 0.150639628
H  H1165  1  0.09830000  0.32210000  0.31390000  1.0 0.1613602534
H  H1166  1  0.42790000  0.84830000  0.06390000  1.0 0.0701121885
H  H1167  1  0.40170000  0.67790000  0.81390000  1.0 0.1613602534
H  H1168  1  0.07210000  0.65170000  0.06390000  1.0 0.0533778496
H  H1169  1  0.09830000  0.67790000  0.18610000  1.0 0.1613602534
H  H1170  1  0.07210000  0.84830000  0.43610000  1.0 0.1613602534
H  H1171  1  0.40170000  0.32210000  0.68610000  1.0 0.1685902285
H  H1172  1  0.31390000  0.09830000  0.32210000  1.0 0.1613602534
H  H1173  1  0.65170000  0.06390000  0.07210000  1.0 0.0533778496
H  H1174  1  0.18610000  0.90170000  0.82210000  1.0 0.1613602534
H  H1175  1  0.84830000  0.43610000  0.07210000  1.0 0.1613602534
H  H1176  1  0.31390000  0.90170000  0.17790000  1.0 0.150639628
H  H1177  1  0.84830000  0.06390000  0.42790000  1.0 0.0701121885
H  H1178  1  0.18610000  0.09830000  0.67790000  1.0 0.1613602534
H  H1179  1  0.32210000  0.31390000  0.09830000  1.0 0.1613602534
H  H1180  1  0.43610000  0.07210000  0.84830000  1.0 0.1613602534
H  H1181  1  0.06390000  0.07210000  0.65170000  1.0 0.0533778496
H  H1182  1  0.06390000  0.42790000  0.84830000  1.0 0.0701121885
H  H1183  1  0.32210000  0.68610000  0.40170000  1.0 0.1685902285
H  H1184  1  0.67790000  0.18610000  0.09830000  1.0 0.1613602534
H  H1185  1  0.67790000  0.81390000  0.40170000  1.0 0.1613602534
H  H1186  1  0.92790000  0.84830000  0.56390000  1.0 0.1613602534
H  H1187  1  0.57210000  0.15170000  0.06390000  1.0 0.0793917508
H  H1188  1  0.57210000  0.84830000  0.43610000  1.0 0.1613602534
H  H1189  1  0.92790000  0.15170000  0.93610000  1.0 0.1613602534
H  H1190  1  0.15170000  0.06390000  0.57210000  1.0 0.0793917508
H  H1191  1  0.34830000  0.93610000  0.07210000  1.0 0.0617890507
H  H1192  1  0.34830000  0.06390000  0.42790000  1.0 0.150639628
H  H1193  1  0.15170000  0.93610000  0.92790000  1.0 0.1613602534
H  H1194  1  0.93610000  0.92790000  0.15170000  1.0 0.1613602534
H  H1195  1  0.43610000  0.57210000  0.84830000  1.0 0.1613602534
H  H1196  1  0.06390000  0.57210000  0.15170000  1.0 0.0793917508
H  H1197  1  0.56390000  0.92790000  0.84830000  1.0 0.1613602534
H  H1198  1  0.07210000  0.65170000  0.43610000  1.0 0.0701121885
H  H1199  1  0.42790000  0.84830000  0.43610000  1.0 0.0533778496
H  H1200  1  0.42790000  0.65170000  0.06390000  1.0 0.1613602534
H  H1201  1  0.84830000  0.43610000  0.42790000  1.0 0.0533778496
H  H1202  1  0.65170000  0.06390000  0.42790000  1.0 0.1613602534
H  H1203  1  0.65170000  0.43610000  0.07210000  1.0 0.0701121885
H  H1204  1  0.06390000  0.42790000  0.65170000  1.0 0.1613602534
H  H1205  1  0.43610000  0.42790000  0.84830000  1.0 0.0533778496
H  H1206  1  0.43610000  0.07210000  0.65170000  1.0 0.0701121885
C  C1  1  0.23080000  0.19840000  0.06360000  1.0 0.0402939012
C  C2  1  0.05160000  0.98080000  0.31360000  1.0 0.0102127705
C  C3  1  0.26920000  0.80160000  0.56360000  1.0 0.0617890507
C  C4  1  0.44840000  0.01920000  0.81360000  1.0 -0.0496626254
C  C5  1  0.23080000  0.80160000  0.43640000  1.0 0.0701121885
C  C6  1  0.44840000  0.98080000  0.68640000  1.0 0.0294401335
C  C7  1  0.26920000  0.19840000  0.93640000  1.0 0.0200479435
C  C8  1  0.05160000  0.01920000  0.18640000  1.0 0.0023929384
C  C9  1  0.06360000  0.23080000  0.19840000  1.0 0.0402939012
C  C10  1  0.01920000  0.81360000  0.44840000  1.0 -0.0496626254
C  C11  1  0.43640000  0.76920000  0.69840000  1.0 0.0701121885
C  C12  1  0.48080000  0.18640000  0.94840000  1.0 -0.1483359144
C  C13  1  0.06360000  0.76920000  0.30160000  1.0 0.0701121885
C  C14  1  0.48080000  0.81360000  0.55160000  1.0 0.0402939012
C  C15  1  0.43640000  0.23080000  0.80160000  1.0 0.0701121885
C  C16  1  0.01920000  0.18640000  0.05160000  1.0 0.0023929384
C  C17  1  0.19840000  0.06360000  0.23080000  1.0 0.0402939012
C  C18  1  0.18640000  0.05160000  0.01920000  1.0 0.0023929384
C  C19  1  0.68640000  0.44840000  0.98080000  1.0 0.0294401335
C  C20  1  0.81360000  0.44840000  0.01920000  1.0 -0.0496626254
C  C21  1  0.31360000  0.05160000  0.98080000  1.0 0.0102127705
C  C22  1  0.19840000  0.93640000  0.26920000  1.0 0.0200479435
C  C23  1  0.80160000  0.43640000  0.23080000  1.0 0.0701121885
C  C24  1  0.80160000  0.56360000  0.26920000  1.0 0.0617890507
C  C25  1  0.73080000  0.69840000  0.56360000  1.0 0.0617890507
C  C26  1  0.55160000  0.48080000  0.81360000  1.0 0.0402939012
C  C27  1  0.76920000  0.30160000  0.06360000  1.0 0.0701121885
C  C28  1  0.94840000  0.51920000  0.31360000  1.0 -0.0191454011
C  C29  1  0.73080000  0.30160000  0.93640000  1.0 0.0701121885
C  C30  1  0.94840000  0.48080000  0.18640000  1.0 -0.1483359144
C  C31  1  0.76920000  0.69840000  0.43640000  1.0 0.0701121885
C  C32  1  0.55160000  0.51920000  0.68640000  1.0 0.0617890507
C  C33  1  0.56360000  0.73080000  0.69840000  1.0 0.0701121885
C  C34  1  0.51920000  0.31360000  0.94840000  1.0 -0.0191454011
C  C35  1  0.93640000  0.26920000  0.19840000  1.0 0.0200479435
C  C36  1  0.98080000  0.68640000  0.44840000  1.0 0.0294401335
C  C37  1  0.56360000  0.26920000  0.80160000  1.0 0.0617890507
C  C38  1  0.98080000  0.31360000  0.05160000  1.0 0.0102127705
C  C39  1  0.93640000  0.73080000  0.30160000  1.0 0.0701121885
C  C40  1  0.51920000  0.68640000  0.55160000  1.0 0.0617890507
C  C41  1  0.69840000  0.56360000  0.73080000  1.0 0.0701121885
C  C42  1  0.68640000  0.55160000  0.51920000  1.0 0.0617890507
C  C43  1  0.18640000  0.94840000  0.48080000  1.0 -0.1483359144
C  C44  1  0.31360000  0.94840000  0.51920000  1.0 -0.0191454011
C  C45  1  0.81360000  0.55160000  0.48080000  1.0 0.0402939012
C  C46  1  0.69840000  0.43640000  0.76920000  1.0 0.0701121885
C  C47  1  0.30160000  0.93640000  0.73080000  1.0 0.0701121885
C  C48  1  0.30160000  0.06360000  0.76920000  1.0 0.0701121885
C  C49  1  0.76920000  0.80160000  0.93640000  1.0 0.0701121885
C  C50  1  0.44840000  0.51920000  0.18640000  1.0 0.0102127705
C  C51  1  0.73080000  0.19840000  0.43640000  1.0 0.0701121885
C  C52  1  0.05160000  0.48080000  0.68640000  1.0 -0.0496626254
C  C53  1  0.76920000  0.19840000  0.56360000  1.0 0.0701121885
C  C54  1  0.05160000  0.51920000  0.81360000  1.0 0.0294401335
C  C55  1  0.73080000  0.80160000  0.06360000  1.0 0.0701121885
C  C56  1  0.44840000  0.48080000  0.31360000  1.0 0.0023929384
C  C57  1  0.93640000  0.76920000  0.80160000  1.0 0.0617890507
C  C58  1  0.48080000  0.68640000  0.05160000  1.0 -0.0496626254
C  C59  1  0.56360000  0.23080000  0.30160000  1.0 0.0200479435
C  C60  1  0.01920000  0.31360000  0.55160000  1.0 -0.1483359144
C  C61  1  0.93640000  0.23080000  0.69840000  1.0 0.0617890507
C  C62  1  0.01920000  0.68640000  0.94840000  1.0 0.0402939012
C  C63  1  0.56360000  0.76920000  0.19840000  1.0 0.0701121885
C  C64  1  0.48080000  0.31360000  0.44840000  1.0 0.0023929384
C  C65  1  0.80160000  0.93640000  0.76920000  1.0 0.0701121885
C  C66  1  0.31360000  0.44840000  0.48080000  1.0 0.0023929384
C  C67  1  0.81360000  0.05160000  0.51920000  1.0 0.0294401335
C  C68  1  0.68640000  0.05160000  0.48080000  1.0 -0.0496626254
C  C69  1  0.18640000  0.44840000  0.51920000  1.0 0.0102127705
C  C70  1  0.80160000  0.06360000  0.73080000  1.0 0.0701121885
C  C71  1  0.19840000  0.56360000  0.76920000  1.0 0.0701121885
C  C72  1  0.19840000  0.43640000  0.73080000  1.0 0.0701121885
C  C73  1  0.26920000  0.30160000  0.43640000  1.0 0.0402939012
C  C74  1  0.44840000  0.01920000  0.18640000  1.0 -0.0708957319
C  C75  1  0.23080000  0.69840000  0.93640000  1.0 0.0617890507
C  C76  1  0.05160000  0.48080000  0.18640000  1.0 -0.1483359144
C  C77  1  0.26920000  0.69840000  0.06360000  1.0 0.0701121885
C  C78  1  0.05160000  0.01920000  0.31360000  1.0 0.0102127705
C  C79  1  0.23080000  0.30160000  0.56360000  1.0 0.0200479435
C  C80  1  0.43640000  0.26920000  0.30160000  1.0 0.0402939012
C  C81  1  0.48080000  0.18640000  0.05160000  1.0 -0.1483359144
C  C82  1  0.06360000  0.73080000  0.80160000  1.0 0.0701121885
C  C83  1  0.01920000  0.31360000  0.05160000  1.0 0.0102127705
C  C84  1  0.43640000  0.73080000  0.19840000  1.0 0.0701121885
C  C85  1  0.01920000  0.18640000  0.44840000  1.0 -0.0708957319
C  C86  1  0.06360000  0.26920000  0.69840000  1.0 0.0701121885
C  C87  1  0.30160000  0.43640000  0.26920000  1.0 0.0402939012
C  C88  1  0.31360000  0.05160000  0.01920000  1.0 0.0102127705
C  C89  1  0.18640000  0.05160000  0.48080000  1.0 -0.1483359144
C  C90  1  0.18640000  0.44840000  0.01920000  1.0 -0.0708957319
C  C91  1  0.30160000  0.56360000  0.23080000  1.0 0.0200479435
C  C92  1  0.69840000  0.06360000  0.26920000  1.0 0.0701121885
C  C93  1  0.69840000  0.93640000  0.23080000  1.0 0.0617890507
C  C94  1  0.94840000  0.01920000  0.68640000  1.0 0.0402939012
C  C95  1  0.55160000  0.98080000  0.18640000  1.0 -0.0191454011
C  C96  1  0.55160000  0.01920000  0.31360000  1.0 -0.1483359144
C  C97  1  0.94840000  0.98080000  0.81360000  1.0 0.0617890507
C  C98  1  0.98080000  0.18640000  0.55160000  1.0 -0.0191454011
C  C99  1  0.51920000  0.81360000  0.05160000  1.0 0.0294401335
C  C100  1  0.51920000  0.18640000  0.44840000  1.0 0.0102127705
C  C101  1  0.98080000  0.81360000  0.94840000  1.0 0.0617890507
C  C102  1  0.81360000  0.94840000  0.98080000  1.0 0.0617890507
C  C103  1  0.31360000  0.55160000  0.01920000  1.0 -0.1483359144
C  C104  1  0.18640000  0.55160000  0.98080000  1.0 -0.0191454011
C  C105  1  0.68640000  0.94840000  0.01920000  1.0 0.0402939012
C  C106  1  0.05160000  0.48080000  0.31360000  1.0 -0.0708957319
C  C107  1  0.44840000  0.01920000  0.31360000  1.0 -0.1483359144
C  C108  1  0.44840000  0.48080000  0.18640000  1.0 0.0102127705
C  C109  1  0.01920000  0.31360000  0.44840000  1.0 -0.1483359144
C  C110  1  0.48080000  0.18640000  0.44840000  1.0 0.0102127705
C  C111  1  0.48080000  0.31360000  0.05160000  1.0 -0.0708957319
C  C112  1  0.18640000  0.44840000  0.48080000  1.0 0.0102127705
C  C113  1  0.31360000  0.44840000  0.01920000  1.0 -0.1483359144
C  C114  1  0.31360000  0.05160000  0.48080000  1.0 -0.0795392253
C  C115  1  0.26690000  0.22320000  0.06760000  1.0 -0.1296247797
C  C116  1  0.02680000  0.01690000  0.31760000  1.0 -0.0708957319
C  C117  1  0.23310000  0.77680000  0.56760000  1.0 -0.1296247797
C  C118  1  0.47320000  0.98310000  0.81760000  1.0 -0.1296247797
C  C119  1  0.26690000  0.77680000  0.43240000  1.0 -0.1140393894
C  C120  1  0.47320000  0.01690000  0.68240000  1.0 -0.1819542491
C  C121  1  0.23310000  0.22320000  0.93240000  1.0 -0.1390144985
C  C122  1  0.02680000  0.98310000  0.18240000  1.0 -0.1296247797
C  C123  1  0.06760000  0.26690000  0.22320000  1.0 -0.1296247797
C  C124  1  0.98310000  0.81760000  0.47320000  1.0 -0.1296247797
C  C125  1  0.43240000  0.73310000  0.72320000  1.0 -0.1296247797
C  C126  1  0.51690000  0.18240000  0.97320000  1.0 -0.0993433501
C  C127  1  0.06760000  0.73310000  0.27680000  1.0 -0.1140393894
C  C128  1  0.51690000  0.81760000  0.52680000  1.0 -0.1296247797
C  C129  1  0.43240000  0.26690000  0.77680000  1.0 -0.1140393894
C  C130  1  0.98310000  0.18240000  0.02680000  1.0 -0.1296247797
C  C131  1  0.22320000  0.06760000  0.26690000  1.0 -0.1296247797
C  C132  1  0.18240000  0.02680000  0.98310000  1.0 -0.1296247797
C  C133  1  0.68240000  0.47320000  0.01690000  1.0 -0.1819542491
C  C134  1  0.81760000  0.47320000  0.98310000  1.0 -0.1296247797
C  C135  1  0.31760000  0.02680000  0.01690000  1.0 -0.0708957319
C  C136  1  0.22320000  0.93240000  0.23310000  1.0 -0.1390144985
C  C137  1  0.77680000  0.43240000  0.26690000  1.0 -0.1140393894
C  C138  1  0.77680000  0.56760000  0.23310000  1.0 -0.1296247797
C  C139  1  0.76690000  0.72320000  0.56760000  1.0 -0.1296247797
C  C140  1  0.52680000  0.51690000  0.81760000  1.0 -0.1296247797
C  C141  1  0.73310000  0.27680000  0.06760000  1.0 -0.1140393894
C  C142  1  0.97320000  0.48310000  0.31760000  1.0 -0.1390144985
C  C143  1  0.76690000  0.27680000  0.93240000  1.0 -0.1296247797
C  C144  1  0.97320000  0.51690000  0.18240000  1.0 -0.0993433501
C  C145  1  0.73310000  0.72320000  0.43240000  1.0 -0.1296247797
C  C146  1  0.52680000  0.48310000  0.68240000  1.0 -0.1215903857
C  C147  1  0.56760000  0.76690000  0.72320000  1.0 -0.1296247797
C  C148  1  0.48310000  0.31760000  0.97320000  1.0 -0.1390144985
C  C149  1  0.93240000  0.23310000  0.22320000  1.0 -0.1390144985
C  C150  1  0.01690000  0.68240000  0.47320000  1.0 -0.1819542491
C  C151  1  0.56760000  0.23310000  0.77680000  1.0 -0.1296247797
C  C152  1  0.01690000  0.31760000  0.02680000  1.0 -0.0708957319
C  C153  1  0.93240000  0.76690000  0.27680000  1.0 -0.1296247797
C  C154  1  0.48310000  0.68240000  0.52680000  1.0 -0.1215903857
C  C155  1  0.72320000  0.56760000  0.76690000  1.0 -0.1296247797
C  C156  1  0.68240000  0.52680000  0.48310000  1.0 -0.1215903857
C  C157  1  0.18240000  0.97320000  0.51690000  1.0 -0.0993433501
C  C158  1  0.31760000  0.97320000  0.48310000  1.0 -0.1390144985
C  C159  1  0.81760000  0.52680000  0.51690000  1.0 -0.1296247797
C  C160  1  0.72320000  0.43240000  0.73310000  1.0 -0.1296247797
C  C161  1  0.27680000  0.93240000  0.76690000  1.0 -0.1296247797
C  C162  1  0.27680000  0.06760000  0.73310000  1.0 -0.1140393894
C  C163  1  0.73310000  0.77680000  0.93240000  1.0 -0.1296247797
C  C164  1  0.47320000  0.48310000  0.18240000  1.0 -0.0708957319
C  C165  1  0.76690000  0.22320000  0.43240000  1.0 -0.1140393894
C  C166  1  0.02680000  0.51690000  0.68240000  1.0 -0.1296247797
C  C167  1  0.73310000  0.22320000  0.56760000  1.0 -0.1296247797
C  C168  1  0.02680000  0.48310000  0.81760000  1.0 -0.1819542491
C  C169  1  0.76690000  0.77680000  0.06760000  1.0 -0.1296247797
C  C170  1  0.47320000  0.51690000  0.31760000  1.0 -0.1296247797
C  C171  1  0.93240000  0.73310000  0.77680000  1.0 -0.1296247797
C  C172  1  0.51690000  0.68240000  0.02680000  1.0 -0.1296247797
C  C173  1  0.56760000  0.26690000  0.27680000  1.0 -0.1390144985
C  C174  1  0.98310000  0.31760000  0.52680000  1.0 -0.0993433501
C  C175  1  0.93240000  0.26690000  0.72320000  1.0 -0.1296247797
C  C176  1  0.98310000  0.68240000  0.97320000  1.0 -0.1296247797
C  C177  1  0.56760000  0.73310000  0.22320000  1.0 -0.1296247797
C  C178  1  0.51690000  0.31760000  0.47320000  1.0 -0.1296247797
C  C179  1  0.77680000  0.93240000  0.73310000  1.0 -0.1296247797
C  C180  1  0.31760000  0.47320000  0.51690000  1.0 -0.1296247797
C  C181  1  0.81760000  0.02680000  0.48310000  1.0 -0.1819542491
C  C182  1  0.68240000  0.02680000  0.51690000  1.0 -0.1296247797
C  C183  1  0.18240000  0.47320000  0.48310000  1.0 -0.0708957319
C  C184  1  0.77680000  0.06760000  0.76690000  1.0 -0.1296247797
C  C185  1  0.22320000  0.56760000  0.73310000  1.0 -0.1296247797
C  C186  1  0.22320000  0.43240000  0.76690000  1.0 -0.1140393894
C  C187  1  0.23310000  0.27680000  0.43240000  1.0 -0.1296247797
C  C188  1  0.47320000  0.98310000  0.18240000  1.0 -0.1390144985
C  C189  1  0.26690000  0.72320000  0.93240000  1.0 -0.1296247797
C  C190  1  0.02680000  0.51690000  0.18240000  1.0 -0.1215903857
C  C191  1  0.23310000  0.72320000  0.06760000  1.0 -0.1140393894
C  C192  1  0.02680000  0.98310000  0.31760000  1.0 -0.0587385607
C  C193  1  0.26690000  0.27680000  0.56760000  1.0 -0.1390144985
C  C194  1  0.43240000  0.23310000  0.27680000  1.0 -0.1296247797
C  C195  1  0.51690000  0.18240000  0.02680000  1.0 -0.1215903857
C  C196  1  0.06760000  0.76690000  0.77680000  1.0 -0.1296247797
C  C197  1  0.98310000  0.31760000  0.02680000  1.0 -0.0587385607
C  C198  1  0.43240000  0.76690000  0.22320000  1.0 -0.1140393894
C  C199  1  0.98310000  0.18240000  0.47320000  1.0 -0.1390144985
C  C200  1  0.06760000  0.23310000  0.72320000  1.0 -0.1140393894
C  C201  1  0.27680000  0.43240000  0.23310000  1.0 -0.1296247797
C  C202  1  0.31760000  0.02680000  0.98310000  1.0 -0.0587385607
C  C203  1  0.18240000  0.02680000  0.51690000  1.0 -0.1215903857
C  C204  1  0.18240000  0.47320000  0.98310000  1.0 -0.1390144985
C  C205  1  0.27680000  0.56760000  0.26690000  1.0 -0.1390144985
C  C206  1  0.72320000  0.06760000  0.23310000  1.0 -0.1140393894
C  C207  1  0.72320000  0.93240000  0.26690000  1.0 -0.1296247797
C  C208  1  0.97320000  0.98310000  0.68240000  1.0 -0.1296247797
C  C209  1  0.52680000  0.01690000  0.18240000  1.0 -0.1390144985
C  C210  1  0.52680000  0.98310000  0.31760000  1.0 -0.0993433501
C  C211  1  0.97320000  0.01690000  0.81760000  1.0 -0.1215903857
C  C212  1  0.01690000  0.18240000  0.52680000  1.0 -0.1390144985
C  C213  1  0.48310000  0.81760000  0.02680000  1.0 -0.1819542491
C  C214  1  0.48310000  0.18240000  0.47320000  1.0 -0.0708957319
C  C215  1  0.01690000  0.81760000  0.97320000  1.0 -0.1215903857
C  C216  1  0.81760000  0.97320000  0.01690000  1.0 -0.1215903857
C  C217  1  0.31760000  0.52680000  0.98310000  1.0 -0.0993433501
C  C218  1  0.18240000  0.52680000  0.01690000  1.0 -0.1390144985
C  C219  1  0.68240000  0.97320000  0.98310000  1.0 -0.1296247797
C  C220  1  0.02680000  0.51690000  0.31760000  1.0 -0.1390144985
C  C221  1  0.47320000  0.98310000  0.31760000  1.0 -0.1215903857
C  C222  1  0.47320000  0.51690000  0.18240000  1.0 -0.0587385607
C  C223  1  0.98310000  0.31760000  0.47320000  1.0 -0.1215903857
C  C224  1  0.51690000  0.18240000  0.47320000  1.0 -0.0587385607
C  C225  1  0.51690000  0.31760000  0.02680000  1.0 -0.1390144985
C  C226  1  0.18240000  0.47320000  0.51690000  1.0 -0.0587385607
C  C227  1  0.31760000  0.47320000  0.98310000  1.0 -0.1215903857
C  C228  1  0.31760000  0.02680000  0.51690000  1.0 -0.1390144985
C  C229  1  0.30220000  0.20840000  0.09150000  1.0 -0.0587385607
C  C230  1  0.04160000  0.05220000  0.34150000  1.0 -0.1676369936
C  C231  1  0.19780000  0.79160000  0.59150000  1.0 -0.0191454011
C  C232  1  0.45840000  0.94780000  0.84150000  1.0 -0.0281890205
C  C233  1  0.30220000  0.79160000  0.40850000  1.0 -0.0031122544
C  C234  1  0.45840000  0.05220000  0.65850000  1.0 -0.0031122544
C  C235  1  0.19780000  0.20840000  0.90850000  1.0 -0.0281890205
C  C236  1  0.04160000  0.94780000  0.15850000  1.0 -0.0104223465
C  C237  1  0.09150000  0.30220000  0.20840000  1.0 -0.0587385607
C  C238  1  0.94780000  0.84150000  0.45840000  1.0 -0.0281890205
C  C239  1  0.40850000  0.69780000  0.70840000  1.0 -0.0104223465
C  C240  1  0.55220000  0.15850000  0.95840000  1.0 -0.0866514029
C  C241  1  0.09150000  0.69780000  0.29160000  1.0 0.0023929384
C  C242  1  0.55220000  0.84150000  0.54160000  1.0 -0.0104223465
C  C243  1  0.40850000  0.30220000  0.79160000  1.0 -0.0031122544
C  C244  1  0.94780000  0.15850000  0.04160000  1.0 -0.0104223465
C  C245  1  0.20840000  0.09150000  0.30220000  1.0 -0.0587385607
C  C246  1  0.15850000  0.04160000  0.94780000  1.0 -0.0104223465
C  C247  1  0.65850000  0.45840000  0.05220000  1.0 -0.0031122544
C  C248  1  0.84150000  0.45840000  0.94780000  1.0 -0.0281890205
C  C249  1  0.34150000  0.04160000  0.05220000  1.0 -0.1676369936
C  C250  1  0.20840000  0.90850000  0.19780000  1.0 -0.0281890205
C  C251  1  0.79160000  0.40850000  0.30220000  1.0 -0.0031122544
C  C252  1  0.79160000  0.59150000  0.19780000  1.0 -0.0191454011
C  C253  1  0.80220000  0.70840000  0.59150000  1.0 -0.0104223465
C  C254  1  0.54160000  0.55220000  0.84150000  1.0 -0.0104223465
C  C255  1  0.69780000  0.29160000  0.09150000  1.0 0.0023929384
C  C256  1  0.95840000  0.44780000  0.34150000  1.0 -0.0795392253
C  C257  1  0.80220000  0.29160000  0.90850000  1.0 -0.0104223465
C  C258  1  0.95840000  0.55220000  0.15850000  1.0 -0.0866514029
C  C259  1  0.69780000  0.70840000  0.40850000  1.0 -0.0104223465
C  C260  1  0.54160000  0.44780000  0.65850000  1.0 -0.0104223465
C  C261  1  0.59150000  0.80220000  0.70840000  1.0 -0.0104223465
C  C262  1  0.44780000  0.34150000  0.95840000  1.0 -0.0795392253
C  C263  1  0.90850000  0.19780000  0.20840000  1.0 -0.0281890205
C  C264  1  0.05220000  0.65850000  0.45840000  1.0 -0.0031122544
C  C265  1  0.59150000  0.19780000  0.79160000  1.0 -0.0191454011
C  C266  1  0.05220000  0.34150000  0.04160000  1.0 -0.1676369936
C  C267  1  0.90850000  0.80220000  0.29160000  1.0 -0.0104223465
C  C268  1  0.44780000  0.65850000  0.54160000  1.0 -0.0104223465
C  C269  1  0.70840000  0.59150000  0.80220000  1.0 -0.0104223465
C  C270  1  0.65850000  0.54160000  0.44780000  1.0 -0.0104223465
C  C271  1  0.15850000  0.95840000  0.55220000  1.0 -0.0866514029
C  C272  1  0.34150000  0.95840000  0.44780000  1.0 -0.0795392253
C  C273  1  0.84150000  0.54160000  0.55220000  1.0 -0.0104223465
C  C274  1  0.70840000  0.40850000  0.69780000  1.0 -0.0104223465
C  C275  1  0.29160000  0.90850000  0.80220000  1.0 -0.0104223465
C  C276  1  0.29160000  0.09150000  0.69780000  1.0 0.0023929384
C  C277  1  0.69780000  0.79160000  0.90850000  1.0 -0.0104223465
C  C278  1  0.45840000  0.44780000  0.15850000  1.0 -0.1676369936
C  C279  1  0.80220000  0.20840000  0.40850000  1.0 0.0023929384
C  C280  1  0.04160000  0.55220000  0.65850000  1.0 -0.0281890205
C  C281  1  0.69780000  0.20840000  0.59150000  1.0 -0.0104223465
C  C282  1  0.04160000  0.44780000  0.84150000  1.0 -0.0031122544
C  C283  1  0.80220000  0.79160000  0.09150000  1.0 -0.0104223465
C  C284  1  0.45840000  0.55220000  0.34150000  1.0 -0.0104223465
C  C285  1  0.90850000  0.69780000  0.79160000  1.0 -0.0104223465
C  C286  1  0.55220000  0.65850000  0.04160000  1.0 -0.0281890205
C  C287  1  0.59150000  0.30220000  0.29160000  1.0 -0.0281890205
C  C288  1  0.94780000  0.34150000  0.54160000  1.0 -0.0866514029
C  C289  1  0.90850000  0.30220000  0.70840000  1.0 -0.0191454011
C  C290  1  0.94780000  0.65850000  0.95840000  1.0 -0.0104223465
C  C291  1  0.59150000  0.69780000  0.20840000  1.0 -0.0104223465
C  C292  1  0.55220000  0.34150000  0.45840000  1.0 -0.0104223465
C  C293  1  0.79160000  0.90850000  0.69780000  1.0 -0.0104223465
C  C294  1  0.34150000  0.45840000  0.55220000  1.0 -0.0104223465
C  C295  1  0.84150000  0.04160000  0.44780000  1.0 -0.0031122544
C  C296  1  0.65850000  0.04160000  0.55220000  1.0 -0.0281890205
C  C297  1  0.15850000  0.45840000  0.44780000  1.0 -0.1676369936
C  C298  1  0.79160000  0.09150000  0.80220000  1.0 -0.0104223465
C  C299  1  0.20840000  0.59150000  0.69780000  1.0 -0.0104223465
C  C300  1  0.20840000  0.40850000  0.80220000  1.0 0.0023929384
C  C301  1  0.19780000  0.29160000  0.40850000  1.0 -0.0587385607
C  C302  1  0.45840000  0.94780000  0.15850000  1.0 -0.0795392253
C  C303  1  0.30220000  0.70840000  0.90850000  1.0 -0.0191454011
C  C304  1  0.04160000  0.55220000  0.15850000  1.0 -0.0191454011
C  C305  1  0.19780000  0.70840000  0.09150000  1.0 -0.0031122544
C  C306  1  0.04160000  0.94780000  0.34150000  1.0 -0.1296247797
C  C307  1  0.30220000  0.29160000  0.59150000  1.0 -0.0281890205
C  C308  1  0.40850000  0.19780000  0.29160000  1.0 -0.0587385607
C  C309  1  0.55220000  0.15850000  0.04160000  1.0 -0.0191454011
C  C310  1  0.09150000  0.80220000  0.79160000  1.0 -0.0104223465
C  C311  1  0.94780000  0.34150000  0.04160000  1.0 -0.1296247797
C  C312  1  0.40850000  0.80220000  0.20840000  1.0 0.0023929384
C  C313  1  0.94780000  0.15850000  0.45840000  1.0 -0.0795392253
C  C314  1  0.09150000  0.19780000  0.70840000  1.0 -0.0031122544
C  C315  1  0.29160000  0.40850000  0.19780000  1.0 -0.0587385607
C  C316  1  0.34150000  0.04160000  0.94780000  1.0 -0.1296247797
C  C317  1  0.15850000  0.04160000  0.55220000  1.0 -0.0191454011
C  C318  1  0.15850000  0.45840000  0.94780000  1.0 -0.0795392253
C  C319  1  0.29160000  0.59150000  0.30220000  1.0 -0.0281890205
C  C320  1  0.70840000  0.09150000  0.19780000  1.0 -0.0031122544
C  C321  1  0.70840000  0.90850000  0.30220000  1.0 -0.0191454011
C  C322  1  0.95840000  0.94780000  0.65850000  1.0 -0.0104223465
C  C323  1  0.54160000  0.05220000  0.15850000  1.0 -0.0795392253
C  C324  1  0.54160000  0.94780000  0.34150000  1.0 -0.0866514029
C  C325  1  0.95840000  0.05220000  0.84150000  1.0 -0.0104223465
C  C326  1  0.05220000  0.15850000  0.54160000  1.0 -0.0795392253
C  C327  1  0.44780000  0.84150000  0.04160000  1.0 -0.0031122544
C  C328  1  0.44780000  0.15850000  0.45840000  1.0 -0.1676369936
C  C329  1  0.05220000  0.84150000  0.95840000  1.0 -0.0104223465
C  C330  1  0.84150000  0.95840000  0.05220000  1.0 -0.0104223465
C  C331  1  0.34150000  0.54160000  0.94780000  1.0 -0.0866514029
C  C332  1  0.15850000  0.54160000  0.05220000  1.0 -0.0795392253
C  C333  1  0.65850000  0.95840000  0.94780000  1.0 -0.0104223465
C  C334  1  0.04160000  0.55220000  0.34150000  1.0 -0.0795392253
C  C335  1  0.45840000  0.94780000  0.34150000  1.0 -0.0191454011
C  C336  1  0.45840000  0.55220000  0.15850000  1.0 -0.1296247797
C  C337  1  0.94780000  0.34150000  0.45840000  1.0 -0.0191454011
C  C338  1  0.55220000  0.15850000  0.45840000  1.0 -0.1296247797
C  C339  1  0.55220000  0.34150000  0.04160000  1.0 -0.0795392253
C  C340  1  0.15850000  0.45840000  0.55220000  1.0 -0.1296247797
C  C341  1  0.34150000  0.45840000  0.94780000  1.0 -0.0191454011
C  C342  1  0.34150000  0.04160000  0.55220000  1.0 -0.0795392253
C  C343  1  0.30060000  0.16780000  0.11120000  1.0 -0.3120288731
C  C344  1  0.08220000  0.05060000  0.36120000  1.0 -0.2171827437
C  C345  1  0.19940000  0.83220000  0.61120000  1.0 -0.2114378835
C  C346  1  0.41780000  0.94940000  0.86120000  1.0 -0.2010758354
C  C347  1  0.30060000  0.83220000  0.38880000  1.0 -0.1819542491
C  C348  1  0.41780000  0.05060000  0.63880000  1.0 -0.1564904616
C  C349  1  0.19940000  0.16780000  0.88880000  1.0 -0.2010758354
C  C350  1  0.08220000  0.94940000  0.13880000  1.0 -0.1920013331
C  C351  1  0.11120000  0.30060000  0.16780000  1.0 -0.3120288731
C  C352  1  0.94940000  0.86120000  0.41780000  1.0 -0.2010758354
C  C353  1  0.38880000  0.69940000  0.66780000  1.0 -0.2010758354
C  C354  1  0.55060000  0.13880000  0.91780000  1.0 -0.2114378835
C  C355  1  0.11120000  0.69940000  0.33220000  1.0 -0.1819542491
C  C356  1  0.55060000  0.86120000  0.58220000  1.0 -0.2010758354
C  C357  1  0.38880000  0.30060000  0.83220000  1.0 -0.1819542491
C  C358  1  0.94940000  0.13880000  0.08220000  1.0 -0.1920013331
C  C359  1  0.16780000  0.11120000  0.30060000  1.0 -0.3120288731
C  C360  1  0.13880000  0.08220000  0.94940000  1.0 -0.1920013331
C  C361  1  0.63880000  0.41780000  0.05060000  1.0 -0.1564904616
C  C362  1  0.86120000  0.41780000  0.94940000  1.0 -0.2010758354
C  C363  1  0.36120000  0.08220000  0.05060000  1.0 -0.2171827437
C  C364  1  0.16780000  0.88880000  0.19940000  1.0 -0.2010758354
C  C365  1  0.83220000  0.38880000  0.30060000  1.0 -0.1819542491
C  C366  1  0.83220000  0.61120000  0.19940000  1.0 -0.2114378835
C  C367  1  0.80060000  0.66780000  0.61120000  1.0 -0.2010758354
C  C368  1  0.58220000  0.55060000  0.86120000  1.0 -0.2010758354
C  C369  1  0.69940000  0.33220000  0.11120000  1.0 -0.1920013331
C  C370  1  0.91780000  0.44940000  0.36120000  1.0 -0.1390144985
C  C371  1  0.80060000  0.33220000  0.88880000  1.0 -0.2114378835
C  C372  1  0.91780000  0.55060000  0.13880000  1.0 -0.2114378835
C  C373  1  0.69940000  0.66780000  0.38880000  1.0 -0.2010758354
C  C374  1  0.58220000  0.44940000  0.63880000  1.0 -0.2010758354
C  C375  1  0.61120000  0.80060000  0.66780000  1.0 -0.2010758354
C  C376  1  0.44940000  0.36120000  0.91780000  1.0 -0.1390144985
C  C377  1  0.88880000  0.19940000  0.16780000  1.0 -0.2010758354
C  C378  1  0.05060000  0.63880000  0.41780000  1.0 -0.1564904616
C  C379  1  0.61120000  0.19940000  0.83220000  1.0 -0.2114378835
C  C380  1  0.05060000  0.36120000  0.08220000  1.0 -0.2171827437
C  C381  1  0.88880000  0.80060000  0.33220000  1.0 -0.2114378835
C  C382  1  0.44940000  0.63880000  0.58220000  1.0 -0.2010758354
C  C383  1  0.66780000  0.61120000  0.80060000  1.0 -0.2010758354
C  C384  1  0.63880000  0.58220000  0.44940000  1.0 -0.2010758354
C  C385  1  0.13880000  0.91780000  0.55060000  1.0 -0.2114378835
C  C386  1  0.36120000  0.91780000  0.44940000  1.0 -0.1390144985
C  C387  1  0.86120000  0.58220000  0.55060000  1.0 -0.2010758354
C  C388  1  0.66780000  0.38880000  0.69940000  1.0 -0.2010758354
C  C389  1  0.33220000  0.88880000  0.80060000  1.0 -0.2114378835
C  C390  1  0.33220000  0.11120000  0.69940000  1.0 -0.1819542491
C  C391  1  0.69940000  0.83220000  0.88880000  1.0 -0.2010758354
C  C392  1  0.41780000  0.44940000  0.13880000  1.0 -0.2171827437
C  C393  1  0.80060000  0.16780000  0.38880000  1.0 -0.1920013331
C  C394  1  0.08220000  0.55060000  0.63880000  1.0 -0.2010758354
C  C395  1  0.69940000  0.16780000  0.61120000  1.0 -0.2114378835
C  C396  1  0.08220000  0.44940000  0.86120000  1.0 -0.1564904616
C  C397  1  0.80060000  0.83220000  0.11120000  1.0 -0.2010758354
C  C398  1  0.41780000  0.55060000  0.36120000  1.0 -0.1920013331
C  C399  1  0.88880000  0.69940000  0.83220000  1.0 -0.2010758354
C  C400  1  0.55060000  0.63880000  0.08220000  1.0 -0.2010758354
C  C401  1  0.61120000  0.30060000  0.33220000  1.0 -0.2010758354
C  C402  1  0.94940000  0.36120000  0.58220000  1.0 -0.2114378835
C  C403  1  0.88880000  0.30060000  0.66780000  1.0 -0.2114378835
C  C404  1  0.94940000  0.63880000  0.91780000  1.0 -0.2010758354
C  C405  1  0.61120000  0.69940000  0.16780000  1.0 -0.2114378835
C  C406  1  0.55060000  0.36120000  0.41780000  1.0 -0.1920013331
C  C407  1  0.83220000  0.88880000  0.69940000  1.0 -0.2010758354
C  C408  1  0.36120000  0.41780000  0.55060000  1.0 -0.1920013331
C  C409  1  0.86120000  0.08220000  0.44940000  1.0 -0.1564904616
C  C410  1  0.63880000  0.08220000  0.55060000  1.0 -0.2010758354
C  C411  1  0.13880000  0.41780000  0.44940000  1.0 -0.2171827437
C  C412  1  0.83220000  0.11120000  0.80060000  1.0 -0.2010758354
C  C413  1  0.16780000  0.61120000  0.69940000  1.0 -0.2114378835
C  C414  1  0.16780000  0.38880000  0.80060000  1.0 -0.1819542491
C  C415  1  0.19940000  0.33220000  0.38880000  1.0 -0.3120288731
C  C416  1  0.41780000  0.94940000  0.13880000  1.0 -0.1296247797
C  C417  1  0.30060000  0.66780000  0.88880000  1.0 -0.2114378835
C  C418  1  0.08220000  0.55060000  0.13880000  1.0 -0.1564904616
C  C419  1  0.19940000  0.66780000  0.11120000  1.0 -0.1819542491
C  C420  1  0.08220000  0.94940000  0.36120000  1.0 -0.2279415907
C  C421  1  0.30060000  0.33220000  0.61120000  1.0 -0.2010758354
C  C422  1  0.38880000  0.19940000  0.33220000  1.0 -0.3120288731
C  C423  1  0.55060000  0.13880000  0.08220000  1.0 -0.1564904616
C  C424  1  0.11120000  0.80060000  0.83220000  1.0 -0.2010758354
C  C425  1  0.94940000  0.36120000  0.08220000  1.0 -0.2279415907
C  C426  1  0.38880000  0.80060000  0.16780000  1.0 -0.1819542491
C  C427  1  0.94940000  0.13880000  0.41780000  1.0 -0.1296247797
C  C428  1  0.11120000  0.19940000  0.66780000  1.0 -0.1819542491
C  C429  1  0.33220000  0.38880000  0.19940000  1.0 -0.3120288731
C  C430  1  0.36120000  0.08220000  0.94940000  1.0 -0.2279415907
C  C431  1  0.13880000  0.08220000  0.55060000  1.0 -0.1564904616
C  C432  1  0.13880000  0.41780000  0.94940000  1.0 -0.1296247797
C  C433  1  0.33220000  0.61120000  0.30060000  1.0 -0.2010758354
C  C434  1  0.66780000  0.11120000  0.19940000  1.0 -0.1819542491
C  C435  1  0.66780000  0.88880000  0.30060000  1.0 -0.2114378835
C  C436  1  0.91780000  0.94940000  0.63880000  1.0 -0.2010758354
C  C437  1  0.58220000  0.05060000  0.13880000  1.0 -0.1390144985
C  C438  1  0.58220000  0.94940000  0.36120000  1.0 -0.2114378835
C  C439  1  0.91780000  0.05060000  0.86120000  1.0 -0.2010758354
C  C440  1  0.05060000  0.13880000  0.58220000  1.0 -0.1390144985
C  C441  1  0.44940000  0.86120000  0.08220000  1.0 -0.1564904616
C  C442  1  0.44940000  0.13880000  0.41780000  1.0 -0.2171827437
C  C443  1  0.05060000  0.86120000  0.91780000  1.0 -0.2010758354
C  C444  1  0.86120000  0.91780000  0.05060000  1.0 -0.2010758354
C  C445  1  0.36120000  0.58220000  0.94940000  1.0 -0.2114378835
C  C446  1  0.13880000  0.58220000  0.05060000  1.0 -0.1390144985
C  C447  1  0.63880000  0.91780000  0.94940000  1.0 -0.2010758354
C  C448  1  0.08220000  0.55060000  0.36120000  1.0 -0.1296247797
C  C449  1  0.41780000  0.94940000  0.36120000  1.0 -0.1483359144
C  C450  1  0.41780000  0.55060000  0.13880000  1.0 -0.2279415907
C  C451  1  0.94940000  0.36120000  0.41780000  1.0 -0.1483359144
C  C452  1  0.55060000  0.13880000  0.41780000  1.0 -0.2279415907
C  C453  1  0.55060000  0.36120000  0.08220000  1.0 -0.1296247797
C  C454  1  0.13880000  0.41780000  0.55060000  1.0 -0.2279415907
C  C455  1  0.36120000  0.41780000  0.94940000  1.0 -0.1564904616
C  C456  1  0.36120000  0.08220000  0.55060000  1.0 -0.1296247797
C  C457  1  0.26190000  0.14460000  0.10510000  1.0 0.0023929384
C  C458  1  0.10540000  0.01190000  0.35510000  1.0 -0.0104223465
C  C459  1  0.23810000  0.85540000  0.60510000  1.0 0.1009523012
C  C460  1  0.39460000  0.98810000  0.85510000  1.0 0.0200479435
C  C461  1  0.26190000  0.85540000  0.39490000  1.0 0.0701121885
C  C462  1  0.39460000  0.01190000  0.64490000  1.0 0.0701121885
C  C463  1  0.23810000  0.14460000  0.89490000  1.0 0.09153541
C  C464  1  0.10540000  0.98810000  0.14490000  1.0 0.0793917508
C  C465  1  0.10510000  0.26190000  0.14460000  1.0 0.0023929384
C  C466  1  0.98810000  0.85510000  0.39460000  1.0 0.0200479435
C  C467  1  0.39490000  0.73810000  0.64460000  1.0 0.1009523012
C  C468  1  0.51190000  0.14490000  0.89460000  1.0 -0.0191454011
C  C469  1  0.10510000  0.73810000  0.35540000  1.0 0.09153541
C  C470  1  0.51190000  0.85510000  0.60540000  1.0 0.1009523012
C  C471  1  0.39490000  0.26190000  0.85540000  1.0 0.0701121885
C  C472  1  0.98810000  0.14490000  0.10540000  1.0 0.0793917508
C  C473  1  0.14460000  0.10510000  0.26190000  1.0 0.0023929384
C  C474  1  0.14490000  0.10540000  0.98810000  1.0 0.0793917508
C  C475  1  0.64490000  0.39460000  0.01190000  1.0 0.0701121885
C  C476  1  0.85510000  0.39460000  0.98810000  1.0 0.0200479435
C  C477  1  0.35510000  0.10540000  0.01190000  1.0 -0.0104223465
C  C478  1  0.14460000  0.89490000  0.23810000  1.0 0.09153541
C  C479  1  0.85540000  0.39490000  0.26190000  1.0 0.0701121885
C  C480  1  0.85540000  0.60510000  0.23810000  1.0 0.1009523012
C  C481  1  0.76190000  0.64460000  0.60510000  1.0 0.1009523012
C  C482  1  0.60540000  0.51190000  0.85510000  1.0 0.1009523012
C  C483  1  0.73810000  0.35540000  0.10510000  1.0 0.09153541
C  C484  1  0.89460000  0.48810000  0.35510000  1.0 0.0200479435
C  C485  1  0.76190000  0.35540000  0.89490000  1.0 0.1009523012
C  C486  1  0.89460000  0.51190000  0.14490000  1.0 -0.0191454011
C  C487  1  0.73810000  0.64460000  0.39490000  1.0 0.1009523012
C  C488  1  0.60540000  0.48810000  0.64490000  1.0 0.1009523012
C  C489  1  0.60510000  0.76190000  0.64460000  1.0 0.1009523012
C  C490  1  0.48810000  0.35510000  0.89460000  1.0 0.0200479435
C  C491  1  0.89490000  0.23810000  0.14460000  1.0 0.09153541
C  C492  1  0.01190000  0.64490000  0.39460000  1.0 0.0701121885
C  C493  1  0.60510000  0.23810000  0.85540000  1.0 0.1009523012
C  C494  1  0.01190000  0.35510000  0.10540000  1.0 -0.0104223465
C  C495  1  0.89490000  0.76190000  0.35540000  1.0 0.1009523012
C  C496  1  0.48810000  0.64490000  0.60540000  1.0 0.1009523012
C  C497  1  0.64460000  0.60510000  0.76190000  1.0 0.1009523012
C  C498  1  0.64490000  0.60540000  0.48810000  1.0 0.1009523012
C  C499  1  0.14490000  0.89460000  0.51190000  1.0 -0.0191454011
C  C500  1  0.35510000  0.89460000  0.48810000  1.0 0.0200479435
C  C501  1  0.85510000  0.60540000  0.51190000  1.0 0.1009523012
C  C502  1  0.64460000  0.39490000  0.73810000  1.0 0.1009523012
C  C503  1  0.35540000  0.89490000  0.76190000  1.0 0.1009523012
C  C504  1  0.35540000  0.10510000  0.73810000  1.0 0.09153541
C  C505  1  0.73810000  0.85540000  0.89490000  1.0 0.1009523012
C  C506  1  0.39460000  0.48810000  0.14490000  1.0 -0.0104223465
C  C507  1  0.76190000  0.14460000  0.39490000  1.0 0.09153541
C  C508  1  0.10540000  0.51190000  0.64490000  1.0 0.0200479435
C  C509  1  0.73810000  0.14460000  0.60510000  1.0 0.1009523012
C  C510  1  0.10540000  0.48810000  0.85510000  1.0 0.0701121885
C  C511  1  0.76190000  0.85540000  0.10510000  1.0 0.1009523012
C  C512  1  0.39460000  0.51190000  0.35510000  1.0 0.0793917508
C  C513  1  0.89490000  0.73810000  0.85540000  1.0 0.1009523012
C  C514  1  0.51190000  0.64490000  0.10540000  1.0 0.0200479435
C  C515  1  0.60510000  0.26190000  0.35540000  1.0 0.09153541
C  C516  1  0.98810000  0.35510000  0.60540000  1.0 -0.0191454011
C  C517  1  0.89490000  0.26190000  0.64460000  1.0 0.1009523012
C  C518  1  0.98810000  0.64490000  0.89460000  1.0 0.1009523012
C  C519  1  0.60510000  0.73810000  0.14460000  1.0 0.09153541
C  C520  1  0.51190000  0.35510000  0.39460000  1.0 0.0793917508
C  C521  1  0.85540000  0.89490000  0.73810000  1.0 0.1009523012
C  C522  1  0.35510000  0.39460000  0.51190000  1.0 0.0793917508
C  C523  1  0.85510000  0.10540000  0.48810000  1.0 0.0701121885
C  C524  1  0.64490000  0.10540000  0.51190000  1.0 0.0200479435
C  C525  1  0.14490000  0.39460000  0.48810000  1.0 -0.0104223465
C  C526  1  0.85540000  0.10510000  0.76190000  1.0 0.1009523012
C  C527  1  0.14460000  0.60510000  0.73810000  1.0 0.1009523012
C  C528  1  0.14460000  0.39490000  0.76190000  1.0 0.09153541
C  C529  1  0.23810000  0.35540000  0.39490000  1.0 0.0102127705
C  C530  1  0.39460000  0.98810000  0.14490000  1.0 -0.0496626254
C  C531  1  0.26190000  0.64460000  0.89490000  1.0 0.1009523012
C  C532  1  0.10540000  0.51190000  0.14490000  1.0 -0.0031122544
C  C533  1  0.23810000  0.64460000  0.10510000  1.0 0.0701121885
C  C534  1  0.10540000  0.98810000  0.35510000  1.0 -0.0031122544
C  C535  1  0.26190000  0.35540000  0.60510000  1.0 0.09153541
C  C536  1  0.39490000  0.23810000  0.35540000  1.0 0.0102127705
C  C537  1  0.51190000  0.14490000  0.10540000  1.0 -0.0031122544
C  C538  1  0.10510000  0.76190000  0.85540000  1.0 0.1009523012
C  C539  1  0.98810000  0.35510000  0.10540000  1.0 -0.0031122544
C  C540  1  0.39490000  0.76190000  0.14460000  1.0 0.09153541
C  C541  1  0.98810000  0.14490000  0.39460000  1.0 -0.0496626254
C  C542  1  0.10510000  0.23810000  0.64460000  1.0 0.0701121885
C  C543  1  0.35540000  0.39490000  0.23810000  1.0 0.0102127705
C  C544  1  0.35510000  0.10540000  0.98810000  1.0 -0.0031122544
C  C545  1  0.14490000  0.10540000  0.51190000  1.0 -0.0031122544
C  C546  1  0.14490000  0.39460000  0.98810000  1.0 -0.0496626254
C  C547  1  0.35540000  0.60510000  0.26190000  1.0 0.09153541
C  C548  1  0.64460000  0.10510000  0.23810000  1.0 0.0701121885
C  C549  1  0.64460000  0.89490000  0.26190000  1.0 0.1009523012
C  C550  1  0.89460000  0.98810000  0.64490000  1.0 0.1009523012
C  C551  1  0.60540000  0.01190000  0.14490000  1.0 0.0200479435
C  C552  1  0.60540000  0.98810000  0.35510000  1.0 -0.0191454011
C  C553  1  0.89460000  0.01190000  0.85510000  1.0 0.1009523012
C  C554  1  0.01190000  0.14490000  0.60540000  1.0 0.0200479435
C  C555  1  0.48810000  0.85510000  0.10540000  1.0 0.0701121885
C  C556  1  0.48810000  0.14490000  0.39460000  1.0 -0.0104223465
C  C557  1  0.01190000  0.85510000  0.89460000  1.0 0.1009523012
C  C558  1  0.85510000  0.89460000  0.01190000  1.0 0.1009523012
C  C559  1  0.35510000  0.60540000  0.98810000  1.0 -0.0191454011
C  C560  1  0.14490000  0.60540000  0.01190000  1.0 0.0200479435
C  C561  1  0.64490000  0.89460000  0.98810000  1.0 0.1009523012
C  C562  1  0.10540000  0.51190000  0.35510000  1.0 -0.0496626254
C  C563  1  0.39460000  0.98810000  0.35510000  1.0 -0.0031122544
C  C564  1  0.39460000  0.51190000  0.14490000  1.0 -0.0031122544
C  C565  1  0.98810000  0.35510000  0.39460000  1.0 -0.0031122544
C  C566  1  0.51190000  0.14490000  0.39460000  1.0 -0.0031122544
C  C567  1  0.51190000  0.35510000  0.10540000  1.0 -0.0496626254
C  C568  1  0.14490000  0.39460000  0.51190000  1.0 -0.0031122544
C  C569  1  0.35510000  0.39460000  0.98810000  1.0 -0.0031122544
C  C570  1  0.35510000  0.10540000  0.51190000  1.0 -0.0496626254
C  C571  1  0.32460000  0.10790000  0.18570000  1.0 -0.6039225738
C  C572  1  0.14210000  0.07460000  0.43570000  1.0 -0.4331609837
C  C573  1  0.17540000  0.89210000  0.68570000  1.0 -0.7204557865
C  C574  1  0.35790000  0.92540000  0.93570000  1.0 -0.7278902255
C  C575  1  0.32460000  0.89210000  0.31430000  1.0 -0.6874990792
C  C576  1  0.35790000  0.07460000  0.56430000  1.0 -0.2010758354
C  C577  1  0.17540000  0.10790000  0.81430000  1.0 -0.7204557865
C  C578  1  0.14210000  0.92540000  0.06430000  1.0 -0.7204557865
C  C579  1  0.18570000  0.32460000  0.10790000  1.0 -0.6039225738
C  C580  1  0.92540000  0.93570000  0.35790000  1.0 -0.7278902255
C  C581  1  0.31430000  0.67540000  0.60790000  1.0 -0.7204557865
C  C582  1  0.57460000  0.06430000  0.85790000  1.0 -0.7204557865
C  C583  1  0.18570000  0.67540000  0.39210000  1.0 -0.6874990792
C  C584  1  0.57460000  0.93570000  0.64210000  1.0 -0.7204557865
C  C585  1  0.31430000  0.32460000  0.89210000  1.0 -0.6874990792
C  C586  1  0.92540000  0.06430000  0.14210000  1.0 -0.7204557865
C  C587  1  0.10790000  0.18570000  0.32460000  1.0 -0.6039225738
C  C588  1  0.06430000  0.14210000  0.92540000  1.0 -0.7204557865
C  C589  1  0.56430000  0.35790000  0.07460000  1.0 -0.2010758354
C  C590  1  0.93570000  0.35790000  0.92540000  1.0 -0.7278902255
C  C591  1  0.43570000  0.14210000  0.07460000  1.0 -0.4331609837
C  C592  1  0.10790000  0.81430000  0.17540000  1.0 -0.7204557865
C  C593  1  0.89210000  0.31430000  0.32460000  1.0 -0.6874990792
C  C594  1  0.89210000  0.68570000  0.17540000  1.0 -0.7204557865
C  C595  1  0.82460000  0.60790000  0.68570000  1.0 -0.7204557865
C  C596  1  0.64210000  0.57460000  0.93570000  1.0 -0.7204557865
C  C597  1  0.67540000  0.39210000  0.18570000  1.0 -0.6874990792
C  C598  1  0.85790000  0.42540000  0.43570000  1.0 -0.2596868867
C  C599  1  0.82460000  0.39210000  0.81430000  1.0 -0.7204557865
C  C600  1  0.85790000  0.57460000  0.06430000  1.0 -0.7204557865
C  C601  1  0.67540000  0.60790000  0.31430000  1.0 -0.7204557865
C  C602  1  0.64210000  0.42540000  0.56430000  1.0 -0.7204557865
C  C603  1  0.68570000  0.82460000  0.60790000  1.0 -0.7204557865
C  C604  1  0.42540000  0.43570000  0.85790000  1.0 -0.2596868867
C  C605  1  0.81430000  0.17540000  0.10790000  1.0 -0.7204557865
C  C606  1  0.07460000  0.56430000  0.35790000  1.0 -0.2010758354
C  C607  1  0.68570000  0.17540000  0.89210000  1.0 -0.7204557865
C  C608  1  0.07460000  0.43570000  0.14210000  1.0 -0.4331609837
C  C609  1  0.81430000  0.82460000  0.39210000  1.0 -0.7204557865
C  C610  1  0.42540000  0.56430000  0.64210000  1.0 -0.7204557865
C  C611  1  0.60790000  0.68570000  0.82460000  1.0 -0.7204557865
C  C612  1  0.56430000  0.64210000  0.42540000  1.0 -0.7204557865
C  C613  1  0.06430000  0.85790000  0.57460000  1.0 -0.7204557865
C  C614  1  0.43570000  0.85790000  0.42540000  1.0 -0.2596868867
C  C615  1  0.93570000  0.64210000  0.57460000  1.0 -0.7204557865
C  C616  1  0.60790000  0.31430000  0.67540000  1.0 -0.7204557865
C  C617  1  0.39210000  0.81430000  0.82460000  1.0 -0.7204557865
C  C618  1  0.39210000  0.18570000  0.67540000  1.0 -0.6874990792
C  C619  1  0.67540000  0.89210000  0.81430000  1.0 -0.7204557865
C  C620  1  0.35790000  0.42540000  0.06430000  1.0 -0.4331609837
C  C621  1  0.82460000  0.10790000  0.31430000  1.0 -0.6874990792
C  C622  1  0.14210000  0.57460000  0.56430000  1.0 -0.7278902255
C  C623  1  0.67540000  0.10790000  0.68570000  1.0 -0.7204557865
C  C624  1  0.14210000  0.42540000  0.93570000  1.0 -0.2010758354
C  C625  1  0.82460000  0.89210000  0.18570000  1.0 -0.7204557865
C  C626  1  0.35790000  0.57460000  0.43570000  1.0 -0.7204557865
C  C627  1  0.81430000  0.67540000  0.89210000  1.0 -0.7204557865
C  C628  1  0.57460000  0.56430000  0.14210000  1.0 -0.7278902255
C  C629  1  0.68570000  0.32460000  0.39210000  1.0 -0.7204557865
C  C630  1  0.92540000  0.43570000  0.64210000  1.0 -0.7204557865
C  C631  1  0.81430000  0.32460000  0.60790000  1.0 -0.7204557865
C  C632  1  0.92540000  0.56430000  0.85790000  1.0 -0.7204557865
C  C633  1  0.68570000  0.67540000  0.10790000  1.0 -0.7204557865
C  C634  1  0.57460000  0.43570000  0.35790000  1.0 -0.7204557865
C  C635  1  0.89210000  0.81430000  0.67540000  1.0 -0.7204557865
C  C636  1  0.43570000  0.35790000  0.57460000  1.0 -0.7204557865
C  C637  1  0.93570000  0.14210000  0.42540000  1.0 -0.2010758354
C  C638  1  0.56430000  0.14210000  0.57460000  1.0 -0.7278902255
C  C639  1  0.06430000  0.35790000  0.42540000  1.0 -0.4331609837
C  C640  1  0.89210000  0.18570000  0.82460000  1.0 -0.7204557865
C  C641  1  0.10790000  0.68570000  0.67540000  1.0 -0.7204557865
C  C642  1  0.10790000  0.31430000  0.82460000  1.0 -0.6874990792
C  C643  1  0.17540000  0.39210000  0.31430000  1.0 -0.6039225738
C  C644  1  0.35790000  0.92540000  0.06430000  1.0 -0.2691818395
C  C645  1  0.32460000  0.60790000  0.81430000  1.0 -0.7204557865
C  C646  1  0.14210000  0.57460000  0.06430000  1.0 -0.2010758354
C  C647  1  0.17540000  0.60790000  0.18570000  1.0 -0.6874990792
C  C648  1  0.14210000  0.92540000  0.43570000  1.0 -0.4368086339
C  C649  1  0.32460000  0.39210000  0.68570000  1.0 -0.7204557865
C  C650  1  0.31430000  0.17540000  0.39210000  1.0 -0.6039225738
C  C651  1  0.57460000  0.06430000  0.14210000  1.0 -0.2010758354
C  C652  1  0.18570000  0.82460000  0.89210000  1.0 -0.7204557865
C  C653  1  0.92540000  0.43570000  0.14210000  1.0 -0.4368086339
C  C654  1  0.31430000  0.82460000  0.10790000  1.0 -0.6874990792
C  C655  1  0.92540000  0.06430000  0.35790000  1.0 -0.2691818395
C  C656  1  0.18570000  0.17540000  0.60790000  1.0 -0.6874990792
C  C657  1  0.39210000  0.31430000  0.17540000  1.0 -0.6039225738
C  C658  1  0.43570000  0.14210000  0.92540000  1.0 -0.4368086339
C  C659  1  0.06430000  0.14210000  0.57460000  1.0 -0.2010758354
C  C660  1  0.06430000  0.35790000  0.92540000  1.0 -0.2691818395
C  C661  1  0.39210000  0.68570000  0.32460000  1.0 -0.7204557865
C  C662  1  0.60790000  0.18570000  0.17540000  1.0 -0.6874990792
C  C663  1  0.60790000  0.81430000  0.32460000  1.0 -0.7204557865
C  C664  1  0.85790000  0.92540000  0.56430000  1.0 -0.7204557865
C  C665  1  0.64210000  0.07460000  0.06430000  1.0 -0.2596868867
C  C666  1  0.64210000  0.92540000  0.43570000  1.0 -0.7204557865
C  C667  1  0.85790000  0.07460000  0.93570000  1.0 -0.7204557865
C  C668  1  0.07460000  0.06430000  0.64210000  1.0 -0.2596868867
C  C669  1  0.42540000  0.93570000  0.14210000  1.0 -0.2010758354
C  C670  1  0.42540000  0.06430000  0.35790000  1.0 -0.4331609837
C  C671  1  0.07460000  0.93570000  0.85790000  1.0 -0.7204557865
C  C672  1  0.93570000  0.85790000  0.07460000  1.0 -0.7204557865
C  C673  1  0.43570000  0.64210000  0.92540000  1.0 -0.7204557865
C  C674  1  0.06430000  0.64210000  0.07460000  1.0 -0.2596868867
C  C675  1  0.56430000  0.85790000  0.92540000  1.0 -0.7204557865
C  C676  1  0.14210000  0.57460000  0.43570000  1.0 -0.2691818395
C  C677  1  0.35790000  0.92540000  0.43570000  1.0 -0.2010758354
C  C678  1  0.35790000  0.57460000  0.06430000  1.0 -0.4368086339
C  C679  1  0.92540000  0.43570000  0.35790000  1.0 -0.2010758354
C  C680  1  0.57460000  0.06430000  0.35790000  1.0 -0.4368086339
C  C681  1  0.57460000  0.43570000  0.14210000  1.0 -0.2691818395
C  C682  1  0.06430000  0.35790000  0.57460000  1.0 -0.4368086339
C  C683  1  0.43570000  0.35790000  0.92540000  1.0 -0.2010758354
C  C684  1  0.43570000  0.14210000  0.57460000  1.0 -0.2691818395
C  C685  1  0.37780000  0.18970000  0.16870000  1.0 -0.6977379403
C  C686  1  0.06030000  0.12780000  0.41870000  1.0 -0.522998798
C  C687  1  0.12220000  0.81030000  0.66870000  1.0 -0.7278902255
C  C688  1  0.43970000  0.87220000  0.91870000  1.0 -0.7204557865
C  C689  1  0.37780000  0.81030000  0.33130000  1.0 -0.6829695286
C  C690  1  0.43970000  0.12780000  0.58130000  1.0 -0.2919522704
C  C691  1  0.12220000  0.18970000  0.83130000  1.0 -0.7204557865
C  C692  1  0.06030000  0.87220000  0.08130000  1.0 -0.7278902255
C  C693  1  0.16870000  0.37780000  0.18970000  1.0 -0.6977379403
C  C694  1  0.87220000  0.91870000  0.43970000  1.0 -0.7204557865
C  C695  1  0.33130000  0.62220000  0.68970000  1.0 -0.7278902255
C  C696  1  0.62780000  0.08130000  0.93970000  1.0 -0.7204557865
C  C697  1  0.16870000  0.62220000  0.31030000  1.0 -0.6977379403
C  C698  1  0.62780000  0.91870000  0.56030000  1.0 -0.7278902255
C  C699  1  0.33130000  0.37780000  0.81030000  1.0 -0.6829695286
C  C700  1  0.87220000  0.08130000  0.06030000  1.0 -0.7278902255
C  C701  1  0.18970000  0.16870000  0.37780000  1.0 -0.6977379403
C  C702  1  0.08130000  0.06030000  0.87220000  1.0 -0.7278902255
C  C703  1  0.58130000  0.43970000  0.12780000  1.0 -0.2919522704
C  C704  1  0.91870000  0.43970000  0.87220000  1.0 -0.7204557865
C  C705  1  0.41870000  0.06030000  0.12780000  1.0 -0.522998798
C  C706  1  0.18970000  0.83130000  0.12220000  1.0 -0.7204557865
C  C707  1  0.81030000  0.33130000  0.37780000  1.0 -0.6829695286
C  C708  1  0.81030000  0.66870000  0.12220000  1.0 -0.7278902255
C  C709  1  0.87780000  0.68970000  0.66870000  1.0 -0.7204557865
C  C710  1  0.56030000  0.62780000  0.91870000  1.0 -0.7278902255
C  C711  1  0.62220000  0.31030000  0.16870000  1.0 -0.6977379403
C  C712  1  0.93970000  0.37220000  0.41870000  1.0 -0.1920013331
C  C713  1  0.87780000  0.31030000  0.83130000  1.0 -0.7204557865
C  C714  1  0.93970000  0.62780000  0.08130000  1.0 -0.7204557865
C  C715  1  0.62220000  0.68970000  0.33130000  1.0 -0.7278902255
C  C716  1  0.56030000  0.37220000  0.58130000  1.0 -0.7278902255
C  C717  1  0.66870000  0.87780000  0.68970000  1.0 -0.7204557865
C  C718  1  0.37220000  0.41870000  0.93970000  1.0 -0.1920013331
C  C719  1  0.83130000  0.12220000  0.18970000  1.0 -0.7204557865
C  C720  1  0.12780000  0.58130000  0.43970000  1.0 -0.2919522704
C  C721  1  0.66870000  0.12220000  0.81030000  1.0 -0.7278902255
C  C722  1  0.12780000  0.41870000  0.06030000  1.0 -0.522998798
C  C723  1  0.83130000  0.87780000  0.31030000  1.0 -0.7204557865
C  C724  1  0.37220000  0.58130000  0.56030000  1.0 -0.7278902255
C  C725  1  0.68970000  0.66870000  0.87780000  1.0 -0.7204557865
C  C726  1  0.58130000  0.56030000  0.37220000  1.0 -0.7278902255
C  C727  1  0.08130000  0.93970000  0.62780000  1.0 -0.7204557865
C  C728  1  0.41870000  0.93970000  0.37220000  1.0 -0.1920013331
C  C729  1  0.91870000  0.56030000  0.62780000  1.0 -0.7278902255
C  C730  1  0.68970000  0.33130000  0.62220000  1.0 -0.7204557865
C  C731  1  0.31030000  0.83130000  0.87780000  1.0 -0.7204557865
C  C732  1  0.31030000  0.16870000  0.62220000  1.0 -0.6977379403
C  C733  1  0.62220000  0.81030000  0.83130000  1.0 -0.7204557865
C  C734  1  0.43970000  0.37220000  0.08130000  1.0 -0.522998798
C  C735  1  0.87780000  0.18970000  0.33130000  1.0 -0.6977379403
C  C736  1  0.06030000  0.62780000  0.58130000  1.0 -0.7204557865
C  C737  1  0.62220000  0.18970000  0.66870000  1.0 -0.7204557865
C  C738  1  0.06030000  0.37220000  0.91870000  1.0 -0.2919522704
C  C739  1  0.87780000  0.81030000  0.16870000  1.0 -0.7278902255
C  C740  1  0.43970000  0.62780000  0.41870000  1.0 -0.7278902255
C  C741  1  0.83130000  0.62220000  0.81030000  1.0 -0.7204557865
C  C742  1  0.62780000  0.58130000  0.06030000  1.0 -0.7204557865
C  C743  1  0.66870000  0.37780000  0.31030000  1.0 -0.7204557865
C  C744  1  0.87220000  0.41870000  0.56030000  1.0 -0.7204557865
C  C745  1  0.83130000  0.37780000  0.68970000  1.0 -0.7278902255
C  C746  1  0.87220000  0.58130000  0.93970000  1.0 -0.7278902255
C  C747  1  0.66870000  0.62220000  0.18970000  1.0 -0.7204557865
C  C748  1  0.62780000  0.41870000  0.43970000  1.0 -0.7278902255
C  C749  1  0.81030000  0.83130000  0.62220000  1.0 -0.7204557865
C  C750  1  0.41870000  0.43970000  0.62780000  1.0 -0.7278902255
C  C751  1  0.91870000  0.06030000  0.37220000  1.0 -0.2919522704
C  C752  1  0.58130000  0.06030000  0.62780000  1.0 -0.7204557865
C  C753  1  0.08130000  0.43970000  0.37220000  1.0 -0.522998798
C  C754  1  0.81030000  0.16870000  0.87780000  1.0 -0.7204557865
C  C755  1  0.18970000  0.66870000  0.62220000  1.0 -0.7204557865
C  C756  1  0.18970000  0.33130000  0.87780000  1.0 -0.6977379403
C  C757  1  0.12220000  0.31030000  0.33130000  1.0 -0.6977379403
C  C758  1  0.43970000  0.87220000  0.08130000  1.0 -0.2010758354
C  C759  1  0.37780000  0.68970000  0.83130000  1.0 -0.7278902255
C  C760  1  0.06030000  0.62780000  0.08130000  1.0 -0.2791144035
C  C761  1  0.12220000  0.68970000  0.16870000  1.0 -0.6829695286
C  C762  1  0.06030000  0.87220000  0.41870000  1.0 -0.5439167004
C  C763  1  0.37780000  0.31030000  0.66870000  1.0 -0.7204557865
C  C764  1  0.33130000  0.12220000  0.31030000  1.0 -0.6977379403
C  C765  1  0.62780000  0.08130000  0.06030000  1.0 -0.2791144035
C  C766  1  0.16870000  0.87780000  0.81030000  1.0 -0.7278902255
C  C767  1  0.87220000  0.41870000  0.06030000  1.0 -0.5439167004
C  C768  1  0.33130000  0.87780000  0.18970000  1.0 -0.6977379403
C  C769  1  0.87220000  0.08130000  0.43970000  1.0 -0.2010758354
C  C770  1  0.16870000  0.12220000  0.68970000  1.0 -0.6829695286
C  C771  1  0.31030000  0.33130000  0.12220000  1.0 -0.6977379403
C  C772  1  0.41870000  0.06030000  0.87220000  1.0 -0.5439167004
C  C773  1  0.08130000  0.06030000  0.62780000  1.0 -0.2791144035
C  C774  1  0.08130000  0.43970000  0.87220000  1.0 -0.2010758354
C  C775  1  0.31030000  0.66870000  0.37780000  1.0 -0.7204557865
C  C776  1  0.68970000  0.16870000  0.12220000  1.0 -0.6829695286
C  C777  1  0.68970000  0.83130000  0.37780000  1.0 -0.7278902255
C  C778  1  0.93970000  0.87220000  0.58130000  1.0 -0.7278902255
C  C779  1  0.56030000  0.12780000  0.08130000  1.0 -0.1920013331
C  C780  1  0.56030000  0.87220000  0.41870000  1.0 -0.7204557865
C  C781  1  0.93970000  0.12780000  0.91870000  1.0 -0.7278902255
C  C782  1  0.12780000  0.08130000  0.56030000  1.0 -0.1920013331
C  C783  1  0.37220000  0.91870000  0.06030000  1.0 -0.2919522704
C  C784  1  0.37220000  0.08130000  0.43970000  1.0 -0.522998798
C  C785  1  0.12780000  0.91870000  0.93970000  1.0 -0.7278902255
C  C786  1  0.91870000  0.93970000  0.12780000  1.0 -0.7278902255
C  C787  1  0.41870000  0.56030000  0.87220000  1.0 -0.7204557865
C  C788  1  0.08130000  0.56030000  0.12780000  1.0 -0.1920013331
C  C789  1  0.58130000  0.93970000  0.87220000  1.0 -0.7278902255
C  C790  1  0.06030000  0.62780000  0.41870000  1.0 -0.2010758354
C  C791  1  0.43970000  0.87220000  0.41870000  1.0 -0.2791144035
C  C792  1  0.43970000  0.62780000  0.08130000  1.0 -0.5439167004
C  C793  1  0.87220000  0.41870000  0.43970000  1.0 -0.2791144035
C  C794  1  0.62780000  0.08130000  0.43970000  1.0 -0.5439167004
C  C795  1  0.62780000  0.41870000  0.06030000  1.0 -0.2010758354
C  C796  1  0.08130000  0.43970000  0.62780000  1.0 -0.5439167004
C  C797  1  0.41870000  0.43970000  0.87220000  1.0 -0.2791144035
C  C798  1  0.41870000  0.06030000  0.62780000  1.0 -0.2010758354
N  N1  1  0.22790000  0.15880000  0.08220000  1.0 -0.2596868867
N  N2  1  0.09120000  0.97790000  0.33220000  1.0 0.1095201687
N  N3  1  0.27210000  0.84120000  0.58220000  1.0 -0.2515570552
N  N4  1  0.40880000  0.02210000  0.83220000  1.0 -0.0281890205
N  N5  1  0.22790000  0.84120000  0.41780000  1.0 -0.2114378835
N  N6  1  0.40880000  0.97790000  0.66780000  1.0 -0.2691818395
N  N7  1  0.27210000  0.15880000  0.91780000  1.0 -0.2596868867
N  N8  1  0.09120000  0.02210000  0.16780000  1.0 -0.2691818395
N  N9  1  0.08220000  0.22790000  0.15880000  1.0 -0.2596868867
N  N10  1  0.02210000  0.83220000  0.40880000  1.0 -0.0281890205
N  N11  1  0.41780000  0.77210000  0.65880000  1.0 -0.2596868867
N  N12  1  0.47790000  0.16780000  0.90880000  1.0 -0.0104223465
N  N13  1  0.08220000  0.77210000  0.34120000  1.0 -0.2171827437
N  N14  1  0.47790000  0.83220000  0.59120000  1.0 -0.2596868867
N  N15  1  0.41780000  0.22790000  0.84120000  1.0 -0.2114378835
N  N16  1  0.02210000  0.16780000  0.09120000  1.0 -0.2691818395
N  N17  1  0.15880000  0.08220000  0.22790000  1.0 -0.2596868867
N  N18  1  0.16780000  0.09120000  0.02210000  1.0 -0.2691818395
N  N19  1  0.66780000  0.40880000  0.97790000  1.0 -0.2691818395
N  N20  1  0.83220000  0.40880000  0.02210000  1.0 -0.0281890205
N  N21  1  0.33220000  0.09120000  0.97790000  1.0 0.1095201687
N  N22  1  0.15880000  0.91780000  0.27210000  1.0 -0.2596868867
N  N23  1  0.84120000  0.41780000  0.22790000  1.0 -0.2114378835
N  N24  1  0.84120000  0.58220000  0.27210000  1.0 -0.2515570552
N  N25  1  0.72790000  0.65880000  0.58220000  1.0 -0.2596868867
N  N26  1  0.59120000  0.47790000  0.83220000  1.0 -0.2596868867
N  N27  1  0.77210000  0.34120000  0.08220000  1.0 -0.2171827437
N  N28  1  0.90880000  0.52210000  0.33220000  1.0 -0.2691818395
N  N29  1  0.72790000  0.34120000  0.91780000  1.0 -0.2596868867
N  N30  1  0.90880000  0.47790000  0.16780000  1.0 -0.0104223465
N  N31  1  0.77210000  0.65880000  0.41780000  1.0 -0.2596868867
N  N32  1  0.59120000  0.52210000  0.66780000  1.0 -0.2596868867
N  N33  1  0.58220000  0.72790000  0.65880000  1.0 -0.2596868867
N  N34  1  0.52210000  0.33220000  0.90880000  1.0 -0.2691818395
N  N35  1  0.91780000  0.27210000  0.15880000  1.0 -0.2596868867
N  N36  1  0.97790000  0.66780000  0.40880000  1.0 -0.2691818395
N  N37  1  0.58220000  0.27210000  0.84120000  1.0 -0.2515570552
N  N38  1  0.97790000  0.33220000  0.09120000  1.0 0.1095201687
N  N39  1  0.91780000  0.72790000  0.34120000  1.0 -0.2596868867
N  N40  1  0.52210000  0.66780000  0.59120000  1.0 -0.2596868867
N  N41  1  0.65880000  0.58220000  0.72790000  1.0 -0.2596868867
N  N42  1  0.66780000  0.59120000  0.52210000  1.0 -0.2596868867
N  N43  1  0.16780000  0.90880000  0.47790000  1.0 -0.0104223465
N  N44  1  0.33220000  0.90880000  0.52210000  1.0 -0.2691818395
N  N45  1  0.83220000  0.59120000  0.47790000  1.0 -0.2596868867
N  N46  1  0.65880000  0.41780000  0.77210000  1.0 -0.2596868867
N  N47  1  0.34120000  0.91780000  0.72790000  1.0 -0.2596868867
N  N48  1  0.34120000  0.08220000  0.77210000  1.0 -0.2171827437
N  N49  1  0.77210000  0.84120000  0.91780000  1.0 -0.2596868867
N  N50  1  0.40880000  0.52210000  0.16780000  1.0 0.1095201687
N  N51  1  0.72790000  0.15880000  0.41780000  1.0 -0.2171827437
N  N52  1  0.09120000  0.47790000  0.66780000  1.0 -0.0281890205
N  N53  1  0.77210000  0.15880000  0.58220000  1.0 -0.2596868867
N  N54  1  0.09120000  0.52210000  0.83220000  1.0 -0.2691818395
N  N55  1  0.72790000  0.84120000  0.08220000  1.0 -0.2596868867
N  N56  1  0.40880000  0.47790000  0.33220000  1.0 -0.2691818395
N  N57  1  0.91780000  0.77210000  0.84120000  1.0 -0.2596868867
N  N58  1  0.47790000  0.66780000  0.09120000  1.0 -0.0281890205
N  N59  1  0.58220000  0.22790000  0.34120000  1.0 -0.2596868867
N  N60  1  0.02210000  0.33220000  0.59120000  1.0 -0.0191454011
N  N61  1  0.91780000  0.22790000  0.65880000  1.0 -0.2515570552
N  N62  1  0.02210000  0.66780000  0.90880000  1.0 -0.2596868867
N  N63  1  0.58220000  0.77210000  0.15880000  1.0 -0.2596868867
N  N64  1  0.47790000  0.33220000  0.40880000  1.0 -0.2691818395
N  N65  1  0.84120000  0.91780000  0.77210000  1.0 -0.2596868867
N  N66  1  0.33220000  0.40880000  0.47790000  1.0 -0.2691818395
N  N67  1  0.83220000  0.09120000  0.52210000  1.0 -0.2691818395
N  N68  1  0.66780000  0.09120000  0.47790000  1.0 -0.0281890205
N  N69  1  0.16780000  0.40880000  0.52210000  1.0 0.1095201687
N  N70  1  0.84120000  0.08220000  0.72790000  1.0 -0.2596868867
N  N71  1  0.15880000  0.58220000  0.77210000  1.0 -0.2596868867
N  N72  1  0.15880000  0.41780000  0.72790000  1.0 -0.2171827437
N  N73  1  0.27210000  0.34120000  0.41780000  1.0 -0.2596868867
N  N74  1  0.40880000  0.02210000  0.16780000  1.0 -0.1390144985
N  N75  1  0.22790000  0.65880000  0.91780000  1.0 -0.2515570552
N  N76  1  0.09120000  0.47790000  0.16780000  1.0 -0.1215903857
N  N77  1  0.27210000  0.65880000  0.08220000  1.0 -0.2114378835
N  N78  1  0.09120000  0.02210000  0.33220000  1.0 0.1095201687
N  N79  1  0.22790000  0.34120000  0.58220000  1.0 -0.2596868867
N  N80  1  0.41780000  0.27210000  0.34120000  1.0 -0.2596868867
N  N81  1  0.47790000  0.16780000  0.09120000  1.0 -0.1215903857
N  N82  1  0.08220000  0.72790000  0.84120000  1.0 -0.2596868867
N  N83  1  0.02210000  0.33220000  0.09120000  1.0 0.1095201687
N  N84  1  0.41780000  0.72790000  0.15880000  1.0 -0.2171827437
N  N85  1  0.02210000  0.16780000  0.40880000  1.0 -0.1390144985
N  N86  1  0.08220000  0.27210000  0.65880000  1.0 -0.2114378835
N  N87  1  0.34120000  0.41780000  0.27210000  1.0 -0.2596868867
N  N88  1  0.33220000  0.09120000  0.02210000  1.0 0.1095201687
N  N89  1  0.16780000  0.09120000  0.47790000  1.0 -0.1215903857
N  N90  1  0.16780000  0.40880000  0.02210000  1.0 -0.1390144985
N  N91  1  0.34120000  0.58220000  0.22790000  1.0 -0.2596868867
N  N92  1  0.65880000  0.08220000  0.27210000  1.0 -0.2114378835
N  N93  1  0.65880000  0.91780000  0.22790000  1.0 -0.2515570552
N  N94  1  0.90880000  0.02210000  0.66780000  1.0 -0.2596868867
N  N95  1  0.59120000  0.97790000  0.16780000  1.0 -0.2691818395
N  N96  1  0.59120000  0.02210000  0.33220000  1.0 -0.0191454011
N  N97  1  0.90880000  0.97790000  0.83220000  1.0 -0.2596868867
N  N98  1  0.97790000  0.16780000  0.59120000  1.0 -0.2691818395
N  N99  1  0.52210000  0.83220000  0.09120000  1.0 -0.2691818395
N  N100  1  0.52210000  0.16780000  0.40880000  1.0 0.1095201687
N  N101  1  0.97790000  0.83220000  0.90880000  1.0 -0.2596868867
N  N102  1  0.83220000  0.90880000  0.97790000  1.0 -0.2596868867
N  N103  1  0.33220000  0.59120000  0.02210000  1.0 -0.0191454011
N  N104  1  0.16780000  0.59120000  0.97790000  1.0 -0.2691818395
N  N105  1  0.66780000  0.90880000  0.02210000  1.0 -0.2596868867
N  N106  1  0.09120000  0.47790000  0.33220000  1.0 -0.1390144985
N  N107  1  0.40880000  0.02210000  0.33220000  1.0 -0.1215903857
N  N108  1  0.40880000  0.47790000  0.16780000  1.0 0.1189583307
N  N109  1  0.02210000  0.33220000  0.40880000  1.0 -0.1215903857
N  N110  1  0.47790000  0.16780000  0.40880000  1.0 0.1189583307
N  N111  1  0.47790000  0.33220000  0.09120000  1.0 -0.1390144985
N  N112  1  0.16780000  0.40880000  0.47790000  1.0 0.1189583307
N  N113  1  0.33220000  0.40880000  0.02210000  1.0 -0.1215903857
N  N114  1  0.33220000  0.09120000  0.47790000  1.0 -0.1390144985
Cl  Cl1  1  0.62500000  0.74715000  0.99715000  1.0 1.1877290824
Cl  Cl2  1  0.62500000  0.25285000  0.50285000  1.0 1.1702206442
Cl  Cl3  1  0.50285000  0.62500000  0.25285000  1.0 1.1702206442
Cl  Cl4  1  0.99715000  0.62500000  0.74715000  1.0 1.1877290824
Cl  Cl5  1  0.87500000  0.25285000  0.49715000  1.0 1.0187117874
Cl  Cl6  1  0.99715000  0.37500000  0.75285000  1.0 1.1702206442
Cl  Cl7  1  0.87500000  0.74715000  0.00285000  1.0 1.1877290824
Cl  Cl8  1  0.75285000  0.00285000  0.12500000  1.0 1.1784397979
Cl  Cl9  1  0.25285000  0.49715000  0.87500000  1.0 1.0187117874
Cl  Cl10  1  0.74715000  0.99715000  0.62500000  1.0 1.1877290824
Cl  Cl11  1  0.25285000  0.50285000  0.62500000  1.0 1.1702206442
Cl  Cl12  1  0.75285000  0.99715000  0.37500000  1.0 1.1702206442
Cl  Cl13  1  0.74715000  0.00285000  0.87500000  1.0 1.1877290824
Cl  Cl14  1  0.49715000  0.87500000  0.25285000  1.0 1.0187117874
Cl  Cl15  1  0.12500000  0.75285000  0.00285000  1.0 1.1784397979
Cl  Cl16  1  0.00285000  0.12500000  0.75285000  1.0 1.1784397979
Cl  Cl17  1  0.37500000  0.75285000  0.99715000  1.0 1.1702206442
Cl  Cl18  1  0.00285000  0.87500000  0.74715000  1.0 1.1877290824
Cl  Cl19  1  0.74715000  0.49715000  0.37500000  1.0 1.1784397979
Cl  Cl20  1  0.74715000  0.50285000  0.12500000  1.0 1.1702206442
Cl  Cl21  1  0.75285000  0.50285000  0.87500000  1.0 1.1877290824
Cl  Cl22  1  0.75285000  0.49715000  0.62500000  1.0 1.1877290824
Cl  Cl23  1  0.62500000  0.75285000  0.49715000  1.0 1.1877290824
Cl  Cl24  1  0.00285000  0.62500000  0.24715000  1.0 1.0187117874
Cl  Cl25  1  0.62500000  0.24715000  0.00285000  1.0 1.0187117874
Cl  Cl26  1  0.49715000  0.62500000  0.75285000  1.0 1.1877290824
Cl  Cl27  1  0.87500000  0.75285000  0.50285000  1.0 1.1877290824
Cl  Cl28  1  0.87500000  0.24715000  0.99715000  1.0 1.1702206442
Cl  Cl29  1  0.49715000  0.37500000  0.74715000  1.0 1.1784397979
Cl  Cl30  1  0.24715000  0.99715000  0.87500000  1.0 1.1702206442
Cl  Cl31  1  0.24715000  0.00285000  0.62500000  1.0 1.0187117874
Cl  Cl32  1  0.50285000  0.12500000  0.74715000  1.0 1.1702206442
Cl  Cl33  1  0.37500000  0.74715000  0.49715000  1.0 1.1784397979
Cl  Cl34  1  0.99715000  0.87500000  0.24715000  1.0 1.1644688068
Cl  Cl35  1  0.50285000  0.87500000  0.75285000  1.0 1.1877290824
Cl  Cl36  1  0.12500000  0.74715000  0.50285000  1.0 1.1702206442
O  O1  1  0.16664000  0.08336000  0.12500000  1.0 -0.8381138823
O  O2  1  0.16664000  0.91664000  0.37500000  1.0 -0.5439167004
O  O3  1  0.33333333  0.91664000  0.62500000  1.0 -0.8381138823
O  O4  1  0.33333333  0.08336000  0.87500000  1.0 -0.7094991387
O  O5  1  0.12500000  0.16664000  0.08336000  1.0 -0.8381138823
O  O6  1  0.08336000  0.87500000  0.33333333  1.0 -0.7094991387
O  O7  1  0.37500000  0.83336000  0.58336000  1.0 -0.8284782948
O  O8  1  0.41664000  0.12500000  0.83336000  1.0 -0.6829695286
O  O9  1  0.12500000  0.83336000  0.41664000  1.0 -0.6829695286
O  O10  1  0.41664000  0.87500000  0.66666667  1.0 -0.8381138823
O  O11  1  0.37500000  0.16664000  0.91664000  1.0 -0.5439167004
O  O12  1  0.08336000  0.12500000  0.16664000  1.0 -0.8381138823
O  O13  1  0.62500000  0.33333333  0.91664000  1.0 -0.8381138823
O  O14  1  0.87500000  0.33333333  0.08336000  1.0 -0.7094991387
O  O15  1  0.91664000  0.37500000  0.16664000  1.0 -0.5439167004
O  O16  1  0.91664000  0.62500000  0.33333333  1.0 -0.8381138823
O  O17  1  0.66666667  0.58336000  0.62500000  1.0 -0.8381138823
O  O18  1  0.66666667  0.41664000  0.87500000  1.0 -0.8381138823
O  O19  1  0.83336000  0.41664000  0.12500000  1.0 -0.6829695286
O  O20  1  0.83336000  0.58336000  0.37500000  1.0 -0.8284782948
O  O21  1  0.62500000  0.66666667  0.58336000  1.0 -0.8381138823
O  O22  1  0.58336000  0.37500000  0.83336000  1.0 -0.8284782948
O  O23  1  0.87500000  0.66666667  0.41664000  1.0 -0.8381138823
O  O24  1  0.58336000  0.62500000  0.66666667  1.0 -0.8381138823
O  O25  1  0.83336000  0.91664000  0.87500000  1.0 -0.8381138823
O  O26  1  0.33333333  0.58336000  0.12500000  1.0 -0.5439167004
O  O27  1  0.66666667  0.08336000  0.37500000  1.0 -0.6829695286
O  O28  1  0.16664000  0.41664000  0.62500000  1.0 -0.7094991387
O  O29  1  0.83336000  0.08336000  0.62500000  1.0 -0.8381138823
O  O30  1  0.16664000  0.58336000  0.87500000  1.0 -0.8381138823
O  O31  1  0.66666667  0.91664000  0.12500000  1.0 -0.8284782948
O  O32  1  0.33333333  0.41664000  0.37500000  1.0 -0.8455895366
O  O33  1  0.87500000  0.83336000  0.91664000  1.0 -0.8381138823
O  O34  1  0.41664000  0.62500000  0.16664000  1.0 -0.7094991387
O  O35  1  0.62500000  0.16664000  0.41664000  1.0 -0.7094991387
O  O36  1  0.08336000  0.37500000  0.66666667  1.0 -0.6829695286
O  O37  1  0.87500000  0.16664000  0.58336000  1.0 -0.8381138823
O  O38  1  0.08336000  0.62500000  0.83336000  1.0 -0.8381138823
O  O39  1  0.62500000  0.83336000  0.08336000  1.0 -0.8381138823
O  O40  1  0.41664000  0.37500000  0.33333333  1.0 -0.8455895366
O  O41  1  0.91664000  0.87500000  0.83336000  1.0 -0.8381138823
O  O42  1  0.37500000  0.33333333  0.41664000  1.0 -0.8455895366
O  O43  1  0.12500000  0.33333333  0.58336000  1.0 -0.5439167004
O  O44  1  0.91664000  0.12500000  0.66666667  1.0 -0.8284782948
O  O45  1  0.33333333  0.08336000  0.12500000  1.0 -0.5029777452
O  O46  1  0.16664000  0.41664000  0.12500000  1.0 -0.5767220836
O  O47  1  0.16664000  0.08336000  0.37500000  1.0 -0.5029777452
O  O48  1  0.41664000  0.12500000  0.16664000  1.0 -0.5767220836
O  O49  1  0.12500000  0.66666667  0.91664000  1.0 -0.8284782948
O  O50  1  0.08336000  0.37500000  0.16664000  1.0 -0.5029777452
O  O51  1  0.37500000  0.66666667  0.08336000  1.0 -0.6829695286
O  O52  1  0.08336000  0.12500000  0.33333333  1.0 -0.5029777452
O  O53  1  0.37500000  0.16664000  0.08336000  1.0 -0.5029777452
O  O54  1  0.12500000  0.16664000  0.41664000  1.0 -0.5767220836
O  O55  1  0.12500000  0.33333333  0.08336000  1.0 -0.5029777452
O  O56  1  0.58336000  0.12500000  0.33333333  1.0 -0.5439167004
O  O57  1  0.58336000  0.87500000  0.16664000  1.0 -0.8381138823
O  O58  1  0.16664000  0.41664000  0.37500000  1.0 -0.5029777452
O  O59  1  0.33333333  0.08336000  0.37500000  1.0 -0.5767220836
O  O60  1  0.33333333  0.41664000  0.12500000  1.0 -0.5029777452
O  O61  1  0.08336000  0.37500000  0.33333333  1.0 -0.5767220836
O  O62  1  0.41664000  0.12500000  0.33333333  1.0 -0.5029777452
O  O63  1  0.41664000  0.37500000  0.16664000  1.0 -0.5029777452
O  O64  1  0.12500000  0.33333333  0.41664000  1.0 -0.5029777452
O  O65  1  0.37500000  0.33333333  0.08336000  1.0 -0.5767220836
O  O66  1  0.37500000  0.16664000  0.41664000  1.0 -0.5029777452
O  O67  1  0.60910000  0.74290000  0.03940000  1.0 -0.4784189823
O  O68  1  0.64090000  0.78940000  0.99290000  1.0 -0.4734864415
O  O69  1  0.59440000  0.74090000  0.96860000  1.0 -0.3609449282
O  O70  1  0.65560000  0.71860000  0.99090000  1.0 -0.3609449282
O  O71  1  0.60910000  0.25710000  0.46060000  1.0 -0.5029777452
O  O72  1  0.64090000  0.21060000  0.50710000  1.0 -0.4885893147
O  O73  1  0.59440000  0.25910000  0.53140000  1.0 -0.3790002844
O  O74  1  0.65560000  0.28140000  0.50910000  1.0 -0.3526227505
O  O75  1  0.46060000  0.60910000  0.25710000  1.0 -0.5029777452
O  O76  1  0.50710000  0.64090000  0.21060000  1.0 -0.4885893147
O  O77  1  0.53140000  0.59440000  0.25910000  1.0 -0.3790002844
O  O78  1  0.50910000  0.65560000  0.28140000  1.0 -0.3526227505
O  O79  1  0.03940000  0.60910000  0.74290000  1.0 -0.4784189823
O  O80  1  0.99290000  0.64090000  0.78940000  1.0 -0.4734864415
O  O81  1  0.96860000  0.59440000  0.74090000  1.0 -0.3609449282
O  O82  1  0.99090000  0.65560000  0.71860000  1.0 -0.3609449282
O  O83  1  0.89090000  0.25710000  0.53940000  1.0 -0.4784189823
O  O84  1  0.85910000  0.21060000  0.49290000  1.0 -0.4784189823
O  O85  1  0.90560000  0.25910000  0.46860000  1.0 -0.406521686
O  O86  1  0.84440000  0.28140000  0.49090000  1.0 -0.3609449282
O  O87  1  0.99290000  0.35910000  0.71060000  1.0 -0.4885893147
O  O88  1  0.03940000  0.39090000  0.75710000  1.0 -0.4784189823
O  O89  1  0.99090000  0.34440000  0.78140000  1.0 -0.3609449282
O  O90  1  0.96860000  0.40560000  0.75910000  1.0 -0.3609449282
O  O91  1  0.89090000  0.74290000  0.96060000  1.0 -0.4784189823
O  O92  1  0.85910000  0.78940000  0.00710000  1.0 -0.4784189823
O  O93  1  0.90560000  0.74090000  0.03140000  1.0 -0.3659432214
O  O94  1  0.84440000  0.71860000  0.00910000  1.0 -0.3609449282
O  O95  1  0.75710000  0.96060000  0.10910000  1.0 -0.4784189823
O  O96  1  0.71060000  0.00710000  0.14090000  1.0 -0.4784189823
O  O97  1  0.75910000  0.03140000  0.09440000  1.0 -0.3659432214
O  O98  1  0.78140000  0.00910000  0.15560000  1.0 -0.3526227505
O  O99  1  0.21060000  0.49290000  0.85910000  1.0 -0.4784189823
O  O100  1  0.25710000  0.53940000  0.89090000  1.0 -0.4784189823
O  O101  1  0.28140000  0.49090000  0.84440000  1.0 -0.3609449282
O  O102  1  0.25910000  0.46860000  0.90560000  1.0 -0.406521686
O  O103  1  0.74290000  0.03940000  0.60910000  1.0 -0.4784189823
O  O104  1  0.78940000  0.99290000  0.64090000  1.0 -0.4734864415
O  O105  1  0.74090000  0.96860000  0.59440000  1.0 -0.3609449282
O  O106  1  0.71860000  0.99090000  0.65560000  1.0 -0.3609449282
O  O107  1  0.21060000  0.50710000  0.64090000  1.0 -0.4885893147
O  O108  1  0.25710000  0.46060000  0.60910000  1.0 -0.5029777452
O  O109  1  0.28140000  0.50910000  0.65560000  1.0 -0.3526227505
O  O110  1  0.25910000  0.53140000  0.59440000  1.0 -0.3790002844
O  O111  1  0.75710000  0.03940000  0.39090000  1.0 -0.4784189823
O  O112  1  0.71060000  0.99290000  0.35910000  1.0 -0.4885893147
O  O113  1  0.75910000  0.96860000  0.40560000  1.0 -0.3609449282
O  O114  1  0.78140000  0.99090000  0.34440000  1.0 -0.3609449282
O  O115  1  0.74290000  0.96060000  0.89090000  1.0 -0.4784189823
O  O116  1  0.78940000  0.00710000  0.85910000  1.0 -0.4784189823
O  O117  1  0.74090000  0.03140000  0.90560000  1.0 -0.3659432214
O  O118  1  0.71860000  0.00910000  0.84440000  1.0 -0.3609449282
O  O119  1  0.53940000  0.89090000  0.25710000  1.0 -0.4784189823
O  O120  1  0.49290000  0.85910000  0.21060000  1.0 -0.4784189823
O  O121  1  0.46860000  0.90560000  0.25910000  1.0 -0.406521686
O  O122  1  0.49090000  0.84440000  0.28140000  1.0 -0.3609449282
O  O123  1  0.14090000  0.71060000  0.00710000  1.0 -0.4784189823
O  O124  1  0.10910000  0.75710000  0.96060000  1.0 -0.4784189823
O  O125  1  0.15560000  0.78140000  0.00910000  1.0 -0.3526227505
O  O126  1  0.09440000  0.75910000  0.03140000  1.0 -0.3659432214
O  O127  1  0.96060000  0.10910000  0.75710000  1.0 -0.4784189823
O  O128  1  0.00710000  0.14090000  0.71060000  1.0 -0.4784189823
O  O129  1  0.03140000  0.09440000  0.75910000  1.0 -0.3659432214
O  O130  1  0.00910000  0.15560000  0.78140000  1.0 -0.3526227505
O  O131  1  0.35910000  0.71060000  0.99290000  1.0 -0.4885893147
O  O132  1  0.39090000  0.75710000  0.03940000  1.0 -0.4784189823
O  O133  1  0.34440000  0.78140000  0.99090000  1.0 -0.3609449282
O  O134  1  0.40560000  0.75910000  0.96860000  1.0 -0.3609449282
O  O135  1  0.96060000  0.89090000  0.74290000  1.0 -0.4784189823
O  O136  1  0.00710000  0.85910000  0.78940000  1.0 -0.4784189823
O  O137  1  0.03140000  0.90560000  0.74090000  1.0 -0.3659432214
O  O138  1  0.00910000  0.84440000  0.71860000  1.0 -0.3609449282
O  O139  1  0.78940000  0.49290000  0.35910000  1.0 -0.4784189823
O  O140  1  0.74290000  0.53940000  0.39090000  1.0 -0.4784189823
O  O141  1  0.71860000  0.49090000  0.34440000  1.0 -0.3526227505
O  O142  1  0.74090000  0.46860000  0.40560000  1.0 -0.3659432214
O  O143  1  0.74290000  0.46060000  0.10910000  1.0 -0.4784189823
O  O144  1  0.78940000  0.50710000  0.14090000  1.0 -0.4885893147
O  O145  1  0.74090000  0.53140000  0.09440000  1.0 -0.3609449282
O  O146  1  0.71860000  0.50910000  0.15560000  1.0 -0.3609449282
O  O147  1  0.71060000  0.50710000  0.85910000  1.0 -0.4734864415
O  O148  1  0.75710000  0.46060000  0.89090000  1.0 -0.4784189823
O  O149  1  0.78140000  0.50910000  0.84440000  1.0 -0.3609449282
O  O150  1  0.75910000  0.53140000  0.90560000  1.0 -0.3609449282
O  O151  1  0.75710000  0.53940000  0.60910000  1.0 -0.4784189823
O  O152  1  0.71060000  0.49290000  0.64090000  1.0 -0.4784189823
O  O153  1  0.75910000  0.46860000  0.59440000  1.0 -0.3659432214
O  O154  1  0.78140000  0.49090000  0.65560000  1.0 -0.3609449282
O  O155  1  0.64090000  0.71060000  0.49290000  1.0 -0.4784189823
O  O156  1  0.60910000  0.75710000  0.53940000  1.0 -0.4784189823
O  O157  1  0.65560000  0.78140000  0.49090000  1.0 -0.3609449282
O  O158  1  0.59440000  0.75910000  0.46860000  1.0 -0.3659432214
O  O159  1  0.96060000  0.60910000  0.24290000  1.0 -0.4784189823
O  O160  1  0.00710000  0.64090000  0.28940000  1.0 -0.4784189823
O  O161  1  0.03140000  0.59440000  0.24090000  1.0 -0.406521686
O  O162  1  0.00910000  0.65560000  0.21860000  1.0 -0.3609449282
O  O163  1  0.64090000  0.28940000  0.00710000  1.0 -0.4784189823
O  O164  1  0.60910000  0.24290000  0.96060000  1.0 -0.4784189823
O  O165  1  0.65560000  0.21860000  0.00910000  1.0 -0.3609449282
O  O166  1  0.59440000  0.24090000  0.03140000  1.0 -0.406521686
O  O167  1  0.53940000  0.60910000  0.75710000  1.0 -0.4784189823
O  O168  1  0.49290000  0.64090000  0.71060000  1.0 -0.4784189823
O  O169  1  0.46860000  0.59440000  0.75910000  1.0 -0.3659432214
O  O170  1  0.49090000  0.65560000  0.78140000  1.0 -0.3609449282
O  O171  1  0.89090000  0.75710000  0.46060000  1.0 -0.4784189823
O  O172  1  0.85910000  0.71060000  0.50710000  1.0 -0.4734864415
O  O173  1  0.90560000  0.75910000  0.53140000  1.0 -0.3609449282
O  O174  1  0.84440000  0.78140000  0.50910000  1.0 -0.3609449282
O  O175  1  0.89090000  0.24290000  0.03940000  1.0 -0.5029777452
O  O176  1  0.85910000  0.28940000  0.99290000  1.0 -0.4885893147
O  O177  1  0.90560000  0.24090000  0.96860000  1.0 -0.3790002844
O  O178  1  0.84440000  0.21860000  0.99090000  1.0 -0.3526227505
O  O179  1  0.49290000  0.35910000  0.78940000  1.0 -0.4784189823
O  O180  1  0.53940000  0.39090000  0.74290000  1.0 -0.4784189823
O  O181  1  0.49090000  0.34440000  0.71860000  1.0 -0.3526227505
O  O182  1  0.46860000  0.40560000  0.74090000  1.0 -0.3659432214
O  O183  1  0.28940000  0.99290000  0.85910000  1.0 -0.4885893147
O  O184  1  0.24290000  0.03940000  0.89090000  1.0 -0.5029777452
O  O185  1  0.21860000  0.99090000  0.84440000  1.0 -0.3526227505
O  O186  1  0.24090000  0.96860000  0.90560000  1.0 -0.3790002844
O  O187  1  0.24290000  0.96060000  0.60910000  1.0 -0.4784189823
O  O188  1  0.28940000  0.00710000  0.64090000  1.0 -0.4784189823
O  O189  1  0.24090000  0.03140000  0.59440000  1.0 -0.406521686
O  O190  1  0.21860000  0.00910000  0.65560000  1.0 -0.3609449282
O  O191  1  0.46060000  0.10910000  0.74290000  1.0 -0.4784189823
O  O192  1  0.50710000  0.14090000  0.78940000  1.0 -0.4885893147
O  O193  1  0.53140000  0.09440000  0.74090000  1.0 -0.3609449282
O  O194  1  0.50910000  0.15560000  0.71860000  1.0 -0.3609449282
O  O195  1  0.35910000  0.78940000  0.49290000  1.0 -0.4784189823
O  O196  1  0.39090000  0.74290000  0.53940000  1.0 -0.4784189823
O  O197  1  0.34440000  0.71860000  0.49090000  1.0 -0.3526227505
O  O198  1  0.40560000  0.74090000  0.46860000  1.0 -0.3659432214
O  O199  1  0.03940000  0.89090000  0.24290000  1.0 -0.5029777452
O  O200  1  0.99290000  0.85910000  0.28940000  1.0 -0.4885893147
O  O201  1  0.96860000  0.90560000  0.24090000  1.0 -0.3790002844
O  O202  1  0.99090000  0.84440000  0.21860000  1.0 -0.3526227505
O  O203  1  0.46060000  0.89090000  0.75710000  1.0 -0.4784189823
O  O204  1  0.50710000  0.85910000  0.71060000  1.0 -0.4734864415
O  O205  1  0.53140000  0.90560000  0.75910000  1.0 -0.3609449282
O  O206  1  0.50910000  0.84440000  0.78140000  1.0 -0.3609449282
O  O207  1  0.14090000  0.78940000  0.50710000  1.0 -0.4885893147
O  O208  1  0.10910000  0.74290000  0.46060000  1.0 -0.4784189823
O  O209  1  0.15560000  0.71860000  0.50910000  1.0 -0.3609449282
O  O210  1  0.09440000  0.74090000  0.53140000  1.0 -0.3609449282
