# DDEC6 charges by PACMAN v1.1 (https://github.com/mtap-research/PACMAN-charge/)
data_2017[Zn][dia]3[ASR]4
_chemical_formula_sum              "Zn4 H96 C156 S8 N8 O16 F24"
_cell_length_a       7.2175
_cell_length_b       24.471
_cell_length_c       28.683
_cell_angle_alpha    90
_cell_angle_beta     90
_cell_angle_gamma    90

_symmetry_space_group_name_H-M    "P 1"
_symmetry_Int_Tables_number       1

loop_
  _symmetry_equiv_pos_as_xyz
  'x, y, z'

loop_
  _atom_site_type_symbol
  _atom_site_label
  _atom_site_symmetry_multiplicity
  _atom_site_fract_x
  _atom_site_fract_y
  _atom_site_fract_z
  _atom_site_occupancy
  _atom_site_charge
Zn  Zn1       1.0  0.91473  0.96072  0.74076  1.0000 0.7483760813
Zn  Zn2       1.0  0.58527  0.03928  0.24076  1.0000 0.7483760813
Zn  Zn3       1.0  0.41473  0.53928  0.25924  1.0000 0.7483760813
Zn  Zn4       1.0  0.08527  0.46072  0.75924  1.0000 0.7483760813
H   H1        1.0  0.54522  0.95798  0.69247  1.0000 0.1124659477
H   H2        1.0  0.95478  0.04202  0.19247  1.0000 0.1124659477
H   H3        1.0  0.04522  0.54202  0.30753  1.0000 0.1124659477
H   H4        1.0  0.45478  0.45798  0.80753  1.0000 0.1124659477
H   H5        1.0  0.78933  0.83998  0.51699  1.0000 0.1322233745
H   H6        1.0  0.71067  0.16002  0.01699  1.0000 0.1322233745
H   H7        1.0  0.28933  0.66002  0.48301  1.0000 0.1322233745
H   H8        1.0  0.21067  0.33998  0.98301  1.0000 0.1322233745
H   H9        1.0  0.41791  0.92924  0.62268  1.0000 0.1418364833
H   H10       1.0  0.08209  0.07076  0.12268  1.0000 0.1418364833
H   H11       1.0  0.91791  0.57076  0.37732  1.0000 0.1418364833
H   H12       1.0  0.58209  0.42924  0.87732  1.0000 0.1418364833
H   H13       1.0  0.27291  0.86651  0.33712  1.0000 0.1322233745
H   H14       1.0  0.22709  0.13349  0.83712  1.0000 0.1322233745
H   H15       1.0  0.77291  0.63349  0.66288  1.0000 0.1322233745
H   H16       1.0  0.72709  0.36651  0.16288  1.0000 0.1322233745
H   H17       1.0  0.02892  0.89526  0.65915  1.0000 0.1178419167
H   H18       1.0  0.47108  0.10474  0.15915  1.0000 0.1178419167
H   H19       1.0  0.52892  0.60474  0.34085  1.0000 0.1178419167
H   H20       1.0  0.97108  0.39526  0.84085  1.0000 0.1178419167
H   H21       1.0  0.87645  0.62536  0.75326  1.0000 0.1124659477
H   H22       1.0  0.62355  0.37464  0.25326  1.0000 0.1124659477
H   H23       1.0  0.37645  0.87464  0.24674  1.0000 0.1124659477
H   H24       1.0  0.12355  0.12536  0.74674  1.0000 0.1124659477
H   H25       1.0  0.35853  0.85246  0.76682  1.0000 0.1178419167
H   H26       1.0  0.14147  0.14754  0.26682  1.0000 0.1178419167
H   H27       1.0  0.85853  0.64754  0.23318  1.0000 0.1178419167
H   H28       1.0  0.64147  0.35246  0.73318  1.0000 0.1178419167
H   H29       1.0  0.91079  0.86315  0.58883  1.0000 0.1322233745
H   H30       1.0  0.58921  0.13685  0.08883  1.0000 0.1322233745
H   H31       1.0  0.41079  0.63685  0.41117  1.0000 0.1322233745
H   H32       1.0  0.08921  0.36315  0.91117  1.0000 0.1322233745
H   H33       1.0  0.73288  0.93296  0.27463  1.0000 0.1124659477
H   H34       1.0  0.76712  0.06704  0.77463  1.0000 0.1124659477
H   H35       1.0  0.23288  0.56704  0.72537  1.0000 0.1124659477
H   H36       1.0  0.26712  0.43296  0.22537  1.0000 0.1124659477
H   H37       1.0  0.12136  0.68173  0.80762  1.0000 0.1124659477
H   H38       1.0  0.37864  0.31827  0.30762  1.0000 0.1124659477
H   H39       1.0  0.62136  0.81827  0.19238  1.0000 0.1124659477
H   H40       1.0  0.87864  0.18173  0.69238  1.0000 0.1124659477
H   H41       1.0  0.55605  0.77885  0.77272  1.0000 0.1178419167
H   H42       1.0  0.94395  0.22115  0.27272  1.0000 0.1178419167
H   H43       1.0  0.05605  0.72115  0.22728  1.0000 0.1178419167
H   H44       1.0  0.44395  0.27885  0.72728  1.0000 0.1178419167
H   H45       1.0  0.19355  0.05116  0.32400  1.0000 0.1418364833
H   H46       1.0  0.30645  0.94884  0.82400  1.0000 0.1418364833
H   H47       1.0  0.69355  0.44884  0.67600  1.0000 0.1418364833
H   H48       1.0  0.80645  0.55116  0.17600  1.0000 0.1418364833
H   H49       1.0  0.99507  0.89837  0.31180  1.0000 0.1322233745
H   H50       1.0  0.50493  0.10163  0.81180  1.0000 0.1322233745
H   H51       1.0  0.49507  0.60163  0.68820  1.0000 0.1322233745
H   H52       1.0  0.00493  0.39837  0.18820  1.0000 0.1322233745
H   H53       1.0  0.71696  0.95311  0.45163  1.0000 0.1497132131
H   H54       1.0  0.78304  0.04689  0.95163  1.0000 0.1497132131
H   H55       1.0  0.21696  0.54689  0.54837  1.0000 0.1497132131
H   H56       1.0  0.28304  0.45311  0.04837  1.0000 0.1497132131
H   H57       1.0  0.80965  0.98280  0.40773  1.0000 0.1418364833
H   H58       1.0  0.69035  0.01720  0.90773  1.0000 0.1418364833
H   H59       1.0  0.30965  0.51720  0.59227  1.0000 0.1418364833
H   H60       1.0  0.19035  0.48280  0.09227  1.0000 0.1418364833
H   H61       1.0  0.83570  0.91842  0.41497  1.0000 0.1418364833
H   H62       1.0  0.66430  0.08158  0.91497  1.0000 0.1418364833
H   H63       1.0  0.33570  0.58158  0.58503  1.0000 0.1418364833
H   H64       1.0  0.16430  0.41842  0.08503  1.0000 0.1418364833
H   H65       1.0  0.68308  0.70108  0.74859  1.0000 0.1124659477
H   H66       1.0  0.81692  0.29892  0.24859  1.0000 0.1124659477
H   H67       1.0  0.18308  0.79892  0.25141  1.0000 0.1124659477
H   H68       1.0  0.31692  0.20108  0.75141  1.0000 0.1124659477
H   H69       1.0  0.52436  0.55469  0.84587  1.0000 0.1124659477
H   H70       1.0  0.97564  0.44531  0.34587  1.0000 0.1124659477
H   H71       1.0  0.02436  0.94531  0.15413  1.0000 0.1124659477
H   H72       1.0  0.47564  0.05469  0.65413  1.0000 0.1124659477
H   H73       1.0  0.16803  0.88930  0.44053  1.0000 0.1418364833
H   H74       1.0  0.33197  0.11070  0.94053  1.0000 0.1418364833
H   H75       1.0  0.66803  0.61070  0.55947  1.0000 0.1418364833
H   H76       1.0  0.83197  0.38930  0.05947  1.0000 0.1418364833
H   H77       1.0  0.09484  0.84059  0.47289  1.0000 0.1418364833
H   H78       1.0  0.40516  0.15941  0.97289  1.0000 0.1418364833
H   H79       1.0  0.59484  0.65941  0.52711  1.0000 0.1418364833
H   H80       1.0  0.90516  0.34059  0.02711  1.0000 0.1418364833
H   H81       1.0  0.22434  0.82751  0.42899  1.0000 0.1418364833
H   H82       1.0  0.27566  0.17249  0.92899  1.0000 0.1418364833
H   H83       1.0  0.72434  0.67249  0.57101  1.0000 0.1418364833
H   H84       1.0  0.77566  0.32751  0.07101  1.0000 0.1418364833
H   H85       1.0  0.92483  0.75485  0.79563  1.0000 0.1178419167
H   H86       1.0  0.57517  0.24515  0.29563  1.0000 0.1178419167
H   H87       1.0  0.42483  0.74515  0.20437  1.0000 0.1178419167
H   H88       1.0  0.07517  0.25485  0.70437  1.0000 0.1178419167
H   H89       1.0  0.92201  0.08370  0.28901  1.0000 0.1178419167
H   H90       1.0  0.57799  0.91630  0.78901  1.0000 0.1178419167
H   H91       1.0  0.42201  0.41630  0.71099  1.0000 0.1178419167
H   H92       1.0  0.07799  0.58370  0.21099  1.0000 0.1178419167
H   H93       1.0  0.33852  0.63234  0.84479  1.0000 0.1178419167
H   H94       1.0  0.16148  0.36766  0.34479  1.0000 0.1178419167
H   H95       1.0  0.83852  0.86766  0.15521  1.0000 0.1178419167
H   H96       1.0  0.66148  0.13234  0.65521  1.0000 0.1178419167
C   C1        1.0  0.58000  0.93890  0.39090  1.0000 0.0518043866
C   C2        1.0  0.92000  0.06110  0.89090  1.0000 0.0518043866
C   C3        1.0  0.08000  0.56110  0.60910  1.0000 0.0518043866
C   C4        1.0  0.42000  0.43890  0.10910  1.0000 0.0518043866
C   C5        1.0  0.82830  0.52980  0.79720  1.0000 0.550691525
C   C6        1.0  0.67170  0.47020  0.29720  1.0000 0.550691525
C   C7        1.0  0.32830  0.97020  0.20280  1.0000 0.550691525
C   C8        1.0  0.17170  0.02980  0.70280  1.0000 0.550691525
C   C9        1.0  0.64980  0.89270  0.59770  1.0000 0.1322233745
C   C10       1.0  0.85020  0.10730  0.09770  1.0000 0.1322233745
C   C11       1.0  0.14980  0.60730  0.40230  1.0000 0.1322233745
C   C12       1.0  0.35020  0.39270  0.90230  1.0000 0.1322233745
C   C13       1.0  0.12350  0.97130  0.32120  1.0000 0.1178419167
C   C14       1.0  0.37650  0.02870  0.82120  1.0000 0.1178419167
C   C15       1.0  0.62350  0.52870  0.67880  1.0000 0.1178419167
C   C16       1.0  0.87650  0.47130  0.17880  1.0000 0.1178419167
C   C17       1.0  0.62160  0.93910  0.67080  1.0000 0.101684099
C   C18       1.0  0.87840  0.06090  0.17080  1.0000 0.101684099
C   C19       1.0  0.12160  0.56090  0.32920  1.0000 0.101684099
C   C20       1.0  0.37840  0.43910  0.82920  1.0000 0.101684099
C   C21       1.0  0.75330  0.75340  0.38120  1.0000 0.2501418913
C   C22       1.0  0.74670  0.24660  0.88120  1.0000 0.2501418913
C   C23       1.0  0.25330  0.74660  0.61880  1.0000 0.2501418913
C   C24       1.0  0.24670  0.25340  0.11880  1.0000 0.2501418913
C   C25       1.0  0.71670  0.58160  0.79810  1.0000 -0.0324940602
C   C26       1.0  0.78330  0.41840  0.29810  1.0000 -0.0324940602
C   C27       1.0  0.21670  0.91840  0.20190  1.0000 -0.0324940602
C   C28       1.0  0.28330  0.08160  0.70190  1.0000 -0.0324940602
C   C29       1.0  0.50520  0.88960  0.37630  1.0000 0.0208731522
C   C30       1.0  0.99480  0.11040  0.87630  1.0000 0.0208731522
C   C31       1.0  0.00520  0.61040  0.62370  1.0000 0.0208731522
C   C32       1.0  0.49480  0.38960  0.12370  1.0000 0.0208731522
C   C33       1.0  0.57710  0.87520  0.55290  1.0000 -0.0187649322
C   C34       1.0  0.92290  0.12480  0.05290  1.0000 -0.0187649322
C   C35       1.0  0.07710  0.62480  0.44710  1.0000 -0.0187649322
C   C36       1.0  0.42290  0.37520  0.94710  1.0000 -0.0187649322
C   C37       1.0  0.66280  0.85060  0.51640  1.0000 -0.208236353
C   C38       1.0  0.83720  0.14940  0.01640  1.0000 -0.208236353
C   C39       1.0  0.16280  0.64940  0.48360  1.0000 -0.208236353
C   C40       1.0  0.33720  0.35060  0.98360  1.0000 -0.208236353
C   C41       1.0  0.54410  0.92150  0.62940  1.0000 -0.1880781999
C   C42       1.0  0.95590  0.07850  0.12940  1.0000 -0.1880781999
C   C43       1.0  0.04410  0.57850  0.37060  1.0000 -0.1880781999
C   C44       1.0  0.45590  0.42150  0.87060  1.0000 -0.1880781999
C   C45       1.0  0.99270  0.85920  0.77370  1.0000 0.550691525
C   C46       1.0  0.50730  0.14080  0.27370  1.0000 0.550691525
C   C47       1.0  0.49270  0.64080  0.22630  1.0000 0.550691525
C   C48       1.0  0.00730  0.35920  0.72630  1.0000 0.550691525
C   C49       1.0  0.34080  0.89630  0.34970  1.0000 -0.2183361849
C   C50       1.0  0.15920  0.10370  0.84970  1.0000 -0.2183361849
C   C51       1.0  0.84080  0.60370  0.65030  1.0000 -0.2183361849
C   C52       1.0  0.65920  0.39630  0.15030  1.0000 -0.2183361849
C   C53       1.0  0.12100  0.81140  0.78020  1.0000 -0.0187649322
C   C54       1.0  0.37900  0.18860  0.28020  1.0000 -0.0187649322
C   C55       1.0  0.62100  0.68860  0.21980  1.0000 -0.0187649322
C   C56       1.0  0.87900  0.31140  0.71980  1.0000 -0.0187649322
C   C57       1.0  0.90310  0.90240  0.65160  1.0000 0.101684099
C   C58       1.0  0.59690  0.09760  0.15160  1.0000 0.101684099
C   C59       1.0  0.40310  0.59760  0.34840  1.0000 0.101684099
C   C60       1.0  0.09690  0.40240  0.84840  1.0000 0.101684099
C   C61       1.0  0.76460  0.62610  0.77070  1.0000 -0.1084915245
C   C62       1.0  0.73540  0.37390  0.27070  1.0000 -0.1084915245
C   C63       1.0  0.26460  0.87390  0.22930  1.0000 -0.1084915245
C   C64       1.0  0.23540  0.12610  0.72930  1.0000 -0.1084915245
C   C65       1.0  0.30960  0.81750  0.77410  1.0000 -0.0979802259
C   C66       1.0  0.19040  0.18250  0.27410  1.0000 -0.0979802259
C   C67       1.0  0.80960  0.68250  0.22590  1.0000 -0.0979802259
C   C68       1.0  0.69040  0.31750  0.72590  1.0000 -0.0979802259
C   C69       1.0  0.83300  0.88300  0.60950  1.0000 -0.1781573955
C   C70       1.0  0.66700  0.11700  0.10950  1.0000 -0.1781573955
C   C71       1.0  0.33300  0.61700  0.39050  1.0000 -0.1781573955
C   C72       1.0  0.16700  0.38300  0.89050  1.0000 -0.1781573955
C   C73       1.0  0.69180  0.76170  0.43180  1.0000 0.3485972756
C   C74       1.0  0.80820  0.23830  0.93180  1.0000 0.3485972756
C   C75       1.0  0.19180  0.73830  0.56820  1.0000 0.3485972756
C   C76       1.0  0.30820  0.26170  0.06820  1.0000 0.3485972756
C   C77       1.0  0.28880  0.95010  0.34360  1.0000 -0.0187649322
C   C78       1.0  0.21120  0.04990  0.84360  1.0000 -0.0187649322
C   C79       1.0  0.78880  0.54990  0.65640  1.0000 -0.0187649322
C   C80       1.0  0.71120  0.45010  0.15640  1.0000 -0.0187649322
C   C81       1.0  0.54600  0.84220  0.47700  1.0000 0.0128479382
C   C82       1.0  0.95400  0.15780  0.97700  1.0000 0.0128479382
C   C83       1.0  0.04600  0.65780  0.52300  1.0000 0.0128479382
C   C84       1.0  0.45400  0.34220  0.02300  1.0000 0.0128479382
C   C85       1.0  0.60670  0.81730  0.43300  1.0000 -0.0665994715
C   C86       1.0  0.89330  0.18270  0.93300  1.0000 -0.0665994715
C   C87       1.0  0.10670  0.68270  0.56700  1.0000 -0.0665994715
C   C88       1.0  0.39330  0.31730  0.06700  1.0000 -0.0665994715
C   C89       1.0  0.82650  0.95740  0.28500  1.0000 0.0895816373
C   C90       1.0  0.67350  0.04260  0.78500  1.0000 0.0895816373
C   C91       1.0  0.32650  0.54260  0.71500  1.0000 0.0895816373
C   C92       1.0  0.17350  0.45740  0.21500  1.0000 0.0895816373
C   C93       1.0  0.17070  0.71600  0.79830  1.0000 -0.1496386145
C   C94       1.0  0.32930  0.28400  0.29830  1.0000 -0.1496386145
C   C95       1.0  0.67070  0.78400  0.20170  1.0000 -0.1496386145
C   C96       1.0  0.82930  0.21600  0.70170  1.0000 -0.1496386145
C   C97       1.0  0.63990  0.79550  0.35370  1.0000 0.3588420847
C   C98       1.0  0.86010  0.20450  0.85370  1.0000 0.3588420847
C   C99       1.0  0.13990  0.70450  0.64630  1.0000 0.3588420847
C   C100      1.0  0.36010  0.29550  0.14630  1.0000 0.3588420847
C   C101      1.0  0.42750  0.77390  0.77840  1.0000 -0.1351784668
C   C102      1.0  0.07250  0.22610  0.27840  1.0000 -0.1351784668
C   C103      1.0  0.92750  0.72610  0.22160  1.0000 -0.1351784668
C   C104      1.0  0.57250  0.27390  0.72160  1.0000 -0.1351784668
C   C105      1.0  0.58320  0.83650  0.39010  1.0000 -0.0665994715
C   C106      1.0  0.91680  0.16350  0.89010  1.0000 -0.0665994715
C   C107      1.0  0.08320  0.66350  0.60990  1.0000 -0.0665994715
C   C108      1.0  0.41680  0.33650  0.10990  1.0000 -0.0665994715
C   C109      1.0  0.10020  0.02620  0.31440  1.0000 -0.1781573955
C   C110      1.0  0.39980  0.97380  0.81440  1.0000 -0.1781573955
C   C111      1.0  0.60020  0.47380  0.68560  1.0000 -0.1781573955
C   C112      1.0  0.89980  0.52620  0.18560  1.0000 -0.1781573955
C   C113      1.0  0.98380  0.93660  0.30680  1.0000 -0.1744527123
C   C114      1.0  0.51620  0.06340  0.80680  1.0000 -0.1744527123
C   C115      1.0  0.48380  0.56340  0.69320  1.0000 -0.1744527123
C   C116      1.0  0.01620  0.43660  0.19320  1.0000 -0.1744527123
C   C117      1.0  0.48770  0.67500  0.79500  1.0000 0.0727467503
C   C118      1.0  0.01230  0.32500  0.29500  1.0000 0.0727467503
C   C119      1.0  0.98770  0.82500  0.20500  1.0000 0.0727467503
C   C120      1.0  0.51230  0.17500  0.70500  1.0000 0.0727467503
C   C121      1.0  0.36110  0.72180  0.79130  1.0000 0.0727467503
C   C122      1.0  0.13890  0.27820  0.29130  1.0000 0.0727467503
C   C123      1.0  0.86110  0.77820  0.20870  1.0000 0.0727467503
C   C124      1.0  0.63890  0.22180  0.70870  1.0000 0.0727467503
C   C125      1.0  0.75000  0.94920  0.41870  1.0000 -0.4413500106
C   C126      1.0  0.75000  0.05080  0.91870  1.0000 -0.4413500106
C   C127      1.0  0.25000  0.55080  0.58130  1.0000 -0.4413500106
C   C128      1.0  0.25000  0.44920  0.08130  1.0000 -0.4413500106
C   C129      1.0  0.65030  0.67160  0.76850  1.0000 -0.1574684241
C   C130      1.0  0.84970  0.32840  0.26850  1.0000 -0.1574684241
C   C131      1.0  0.15030  0.82840  0.23150  1.0000 -0.1574684241
C   C132      1.0  0.34970  0.17160  0.73150  1.0000 -0.1574684241
C   C133      1.0  0.55600  0.58450  0.82620  1.0000 -0.1084915245
C   C134      1.0  0.94400  0.41550  0.32620  1.0000 -0.1084915245
C   C135      1.0  0.05600  0.91550  0.17380  1.0000 -0.1084915245
C   C136      1.0  0.44400  0.08450  0.67380  1.0000 -0.1084915245
C   C137      1.0  0.36930  0.85930  0.48460  1.0000 0.0518043866
C   C138      1.0  0.13070  0.14070  0.98460  1.0000 0.0518043866
C   C139      1.0  0.86930  0.64070  0.51540  1.0000 0.0518043866
C   C140      1.0  0.63070  0.35930  0.01540  1.0000 0.0518043866
C   C141      1.0  0.19910  0.85370  0.45410  1.0000 -0.4709463096
C   C142      1.0  0.30090  0.14630  0.95410  1.0000 -0.4709463096
C   C143      1.0  0.69910  0.64630  0.54590  1.0000 -0.4709463096
C   C144      1.0  0.80090  0.35370  0.04590  1.0000 -0.4709463096
C   C145      1.0  0.05450  0.75990  0.79190  1.0000 -0.0979802259
C   C146      1.0  0.44550  0.24010  0.29190  1.0000 -0.0979802259
C   C147      1.0  0.55450  0.74010  0.20810  1.0000 -0.0979802259
C   C148      1.0  0.94550  0.25990  0.70810  1.0000 -0.0979802259
C   C149      1.0  0.93820  0.04550  0.29310  1.0000 0.0895816373
C   C150      1.0  0.56180  0.95450  0.79310  1.0000 0.0895816373
C   C151      1.0  0.43820  0.45450  0.70690  1.0000 0.0895816373
C   C152      1.0  0.06180  0.54550  0.20690  1.0000 0.0895816373
C   C153      1.0  0.44450  0.63040  0.82520  1.0000 -0.1574684241
C   C154      1.0  0.05550  0.36960  0.32520  1.0000 -0.1574684241
C   C155      1.0  0.94450  0.86960  0.17480  1.0000 -0.1574684241
C   C156      1.0  0.55550  0.13040  0.67480  1.0000 -0.1574684241
S   S1        1.0  0.34620  0.88786  0.53916  1.0000 0.0780843868
S   S2        1.0  0.15380  0.11214  0.03916  1.0000 0.0780843868
S   S3        1.0  0.84620  0.61214  0.46084  1.0000 0.0727467503
S   S4        1.0  0.65380  0.38786  0.96084  1.0000 0.0780843868
S   S5        1.0  0.44630  0.99270  0.37082  1.0000 0.101684099
S   S6        1.0  0.05370  0.00730  0.87082  1.0000 0.101684099
S   S7        1.0  0.94630  0.50730  0.62918  1.0000 0.101684099
S   S8        1.0  0.55370  0.49270  0.12918  1.0000 0.101684099
N   N1        1.0  0.80450  0.01110  0.27841  1.0000 -0.2506113848
N   N2        1.0  0.69550  0.98890  0.77841  1.0000 -0.2506113848
N   N3        1.0  0.30450  0.48890  0.72159  1.0000 -0.2506113848
N   N4        1.0  0.19550  0.51110  0.22159  1.0000 -0.2506113848
N   N5        1.0  0.79880  0.93070  0.68180  1.0000 -0.2386645651
N   N6        1.0  0.70120  0.06930  0.18180  1.0000 -0.2386645651
N   N7        1.0  0.29880  0.56930  0.31820  1.0000 -0.2386645651
N   N8        1.0  0.20120  0.43070  0.81820  1.0000 -0.2386645651
O   O1        1.0  0.07290  0.90453  0.76541  1.0000 -0.5526865921
O   O2        1.0  0.42710  0.09547  0.26541  1.0000 -0.5526865921
O   O3        1.0  0.57290  0.59547  0.23459  1.0000 -0.5526865921
O   O4        1.0  0.92710  0.40453  0.73459  1.0000 -0.5526865921
O   O5        1.0  0.96170  0.52991  0.76769  1.0000 -0.5578287965
O   O6        1.0  0.53830  0.47009  0.26769  1.0000 -0.5578287965
O   O7        1.0  0.46170  0.97009  0.23231  1.0000 -0.5578287965
O   O8        1.0  0.03830  0.02991  0.73231  1.0000 -0.5578287965
O   O9        1.0  0.82310  0.85270  0.77610  1.0000 -0.5578287965
O   O10       1.0  0.67690  0.14730  0.27610  1.0000 -0.5578287965
O   O11       1.0  0.32310  0.64730  0.22390  1.0000 -0.5578287965
O   O12       1.0  0.17690  0.35270  0.72390  1.0000 -0.5578287965
O   O13       1.0  0.78650  0.49030  0.82178  1.0000 -0.5526865921
O   O14       1.0  0.71350  0.50970  0.32178  1.0000 -0.5526865921
O   O15       1.0  0.28650  0.00970  0.17822  1.0000 -0.5526865921
O   O16       1.0  0.21350  0.99030  0.67822  1.0000 -0.5526865921
F   F1        1.0  0.56690  0.72254  0.44384  1.0000 -0.1781573955
F   F2        1.0  0.93310  0.27746  0.94384  1.0000 -0.1781573955
F   F3        1.0  0.06690  0.77746  0.55616  1.0000 -0.1781573955
F   F4        1.0  0.43310  0.22254  0.05616  1.0000 -0.1781573955
F   F5        1.0  0.83590  0.75602  0.46173  1.0000 -0.1574684241
F   F6        1.0  0.66410  0.24398  0.96173  1.0000 -0.1574684241
F   F7        1.0  0.33590  0.74398  0.53827  1.0000 -0.1574684241
F   F8        1.0  0.16410  0.25602  0.03827  1.0000 -0.1574684241
F   F9        1.0  0.49000  0.77074  0.33391  1.0000 -0.1574684241
F   F10       1.0  0.01000  0.22926  0.83391  1.0000 -0.1574684241
F   F11       1.0  0.99000  0.72926  0.66609  1.0000 -0.1574684241
F   F12       1.0  0.51000  0.27074  0.16609  1.0000 -0.1574684241
F   F13       1.0  0.93710  0.76580  0.37718  1.0000 -0.1496386145
F   F14       1.0  0.56290  0.23420  0.87718  1.0000 -0.1496386145
F   F15       1.0  0.43710  0.73420  0.62282  1.0000 -0.1496386145
F   F16       1.0  0.06290  0.26580  0.12282  1.0000 -0.1574684241
F   F17       1.0  0.73070  0.70209  0.36579  1.0000 -0.1496386145
F   F18       1.0  0.76930  0.29791  0.86579  1.0000 -0.1496386145
F   F19       1.0  0.23070  0.79791  0.63421  1.0000 -0.1496386145
F   F20       1.0  0.26930  0.20209  0.13421  1.0000 -0.1496386145
F   F21       1.0  0.73630  0.81756  0.31793  1.0000 -0.1574684241
F   F22       1.0  0.76370  0.18244  0.81793  1.0000 -0.1574684241
F   F23       1.0  0.23630  0.68244  0.68207  1.0000 -0.1574684241
F   F24       1.0  0.26370  0.31756  0.18207  1.0000 -0.1574684241
