# DDEC6 charges by PACMAN v1.1 (https://github.com/mtap-research/PACMAN-charge/)
data_d3nj03470d2_2_FSR_pacman
_symmetry_space_group_name_H-M   'P 1'
_cell_length_a   16.11700000
_cell_length_b   31.10400000
_cell_length_c   41.89600000
_cell_angle_alpha   90.00000000
_cell_angle_beta   90.00000000
_cell_angle_gamma   90.00000000
_symmetry_Int_Tables_number   1
_chemical_formula_structural   In7.9992Fe16.0008H192C336N16O128
_chemical_formula_sum   'In7.9992 Fe16.0008 H192 C336 N16 O128'
_cell_volume   21002.59752653
_cell_formula_units_Z   1
loop_
 _symmetry_equiv_pos_site_id
 _symmetry_equiv_pos_as_xyz
  1  'x, y, z'
loop_
 _atom_site_type_symbol
 _atom_site_label
 _atom_site_symmetry_multiplicity
 _atom_site_fract_x
 _atom_site_fract_y
 _atom_site_fract_z
 _atom_site_occupancy
 _atom_site_charge
In  In1  1  0.95922000  0.02439000  0.74139000  0.3333 1.2690712136
Fe  In1  1  0.95922000  0.02439000  0.74139000  0.6667 1.2690712136
In  In2  1  0.04078000  0.97561000  0.24139000  0.3333 1.2690712136
Fe  In2  1  0.04078000  0.97561000  0.24139000  0.6667 1.2690712136
In  In3  1  0.95922000  0.47561000  0.24139000  0.3333 1.2209089221
Fe  In3  1  0.95922000  0.47561000  0.24139000  0.6667 1.2277010304
In  In4  1  0.04078000  0.52439000  0.74139000  0.3333 1.2209089221
Fe  In4  1  0.04078000  0.52439000  0.74139000  0.6667 1.2277010304
In  In5  1  0.03472000  0.05559000  0.81662000  0.3333 1.2355634791
Fe  In5  1  0.03472000  0.05559000  0.81662000  0.6667 1.2277010304
In  In6  1  0.96528000  0.94441000  0.31662000  0.3333 1.2277010304
Fe  In6  1  0.96528000  0.94441000  0.31662000  0.6667 1.2355634791
In  In7  1  0.03472000  0.44441000  0.31662000  0.3333 1.3088809174
Fe  In7  1  0.03472000  0.44441000  0.31662000  0.6667 1.3088809174
In  In8  1  0.96528000  0.55559000  0.81662000  0.3333 1.3088809174
Fe  In8  1  0.96528000  0.55559000  0.81662000  0.6667 1.3088809174
In  In9  1  0.11600000  0.96400000  0.77915000  0.3333 1.3735269528
Fe  In9  1  0.11600000  0.96400000  0.77915000  0.6667 1.3735269528
In  In10  1  0.88400000  0.03600000  0.27915000  0.3333 1.3735269528
Fe  In10  1  0.88400000  0.03600000  0.27915000  0.6667 1.3735269528
In  In11  1  0.11600000  0.53600000  0.27915000  0.3333 1.2209089221
Fe  In11  1  0.11600000  0.53600000  0.27915000  0.6667 1.2209089221
In  In12  1  0.88400000  0.46400000  0.77915000  0.3333 1.2209089221
Fe  In12  1  0.88400000  0.46400000  0.77915000  0.6667 1.2209089221
In  In13  1  0.38826000  0.28783000  0.52048000  0.3333 0.1320159227
Fe  In13  1  0.38826000  0.28783000  0.52048000  0.6667 0.1320159227
In  In14  1  0.61174000  0.71217000  0.02048000  0.3333 0.1320159227
Fe  In14  1  0.61174000  0.71217000  0.02048000  0.6667 0.1320159227
In  In15  1  0.38826000  0.21217000  0.02048000  0.3333 0.1384672105
Fe  In15  1  0.38826000  0.21217000  0.02048000  0.6667 0.1384672105
In  In16  1  0.61174000  0.78783000  0.52048000  0.3333 0.1384672105
Fe  In16  1  0.61174000  0.78783000  0.52048000  0.6667 0.1384672105
In  In17  1  0.47631000  0.19741000  0.48399000  0.3333 0.1384672105
Fe  In17  1  0.47631000  0.19741000  0.48399000  0.6667 0.1384672105
In  In18  1  0.52369000  0.80259000  0.98399000  0.3333 0.1384672105
Fe  In18  1  0.52369000  0.80259000  0.98399000  0.6667 0.1384672105
In  In19  1  0.47631000  0.30259000  0.98399000  0.3333 0.1320159227
Fe  In19  1  0.47631000  0.30259000  0.98399000  0.6667 0.1320159227
In  In20  1  0.52369000  0.69741000  0.48399000  0.3333 0.1320159227
Fe  In20  1  0.52369000  0.69741000  0.48399000  0.6667 0.1320159227
In  In21  1  0.54123000  0.22718000  0.56027000  0.3333 0.1384672105
Fe  In21  1  0.54123000  0.22718000  0.56027000  0.6667 0.1384672105
In  In22  1  0.45877000  0.77282000  0.06027000  0.3333 0.1384672105
Fe  In22  1  0.45877000  0.77282000  0.06027000  0.6667 0.1384672105
In  In23  1  0.54123000  0.27282000  0.06027000  0.3333 0.1384672105
Fe  In23  1  0.54123000  0.27282000  0.06027000  0.6667 0.1320159227
In  In24  1  0.45877000  0.72718000  0.56027000  0.3333 0.1384672105
Fe  In24  1  0.45877000  0.72718000  0.56027000  0.6667 0.1384672105
H  H1  1  0.38073000  0.07407000  0.51522000  1.0 0.1384672105
H  H2  1  0.61927000  0.92593000  0.01522000  1.0 0.1384672105
H  H3  1  0.38073000  0.42593000  0.01522000  1.0 0.1384672105
H  H4  1  0.61927000  0.57407000  0.51522000  1.0 0.1384672105
H  H5  1  0.32108000  0.01249000  0.53643000  1.0 0.1320159227
H  H6  1  0.67892000  0.98751000  0.03643000  1.0 0.1320159227
H  H7  1  0.32108000  0.48751000  0.03643000  1.0 0.1320159227
H  H8  1  0.67892000  0.51249000  0.53643000  1.0 0.1320159227
H  H9  1  0.39257000  0.04879000  0.62427000  1.0 0.1320159227
H  H10  1  0.60743000  0.95121000  0.12427000  1.0 0.1320159227
H  H11  1  0.39257000  0.45121000  0.12427000  1.0 0.1320159227
H  H12  1  0.60743000  0.54879000  0.62427000  1.0 0.1320159227
H  H13  1  0.45222000  0.11037000  0.60306000  1.0 0.1384672105
H  H14  1  0.54778000  0.88963000  0.10306000  1.0 0.1384672105
H  H15  1  0.45222000  0.38963000  0.10306000  1.0 0.1384672105
H  H16  1  0.54778000  0.61037000  0.60306000  1.0 0.1384672105
H  H17  1  0.26436000  0.94930000  0.69657000  1.0 0.1320159227
H  H18  1  0.73564000  0.05070000  0.19657000  1.0 0.1320159227
H  H19  1  0.26436000  0.55070000  0.19657000  1.0 0.1320159227
H  H20  1  0.73564000  0.44930000  0.69657000  1.0 0.1320159227
H  H21  1  0.34325000  0.94584000  0.65033000  1.0 0.1320159227
H  H22  1  0.65675000  0.05416000  0.15033000  1.0 0.1320159227
H  H23  1  0.34325000  0.55416000  0.15033000  1.0 0.1320159227
H  H24  1  0.65675000  0.44584000  0.65033000  1.0 0.1320159227
H  H25  1  0.18893000  0.02969000  0.60791000  1.0 0.1320159227
H  H26  1  0.81107000  0.97031000  0.10791000  1.0 0.1320159227
H  H27  1  0.18893000  0.47031000  0.10791000  1.0 0.1320159227
H  H28  1  0.81107000  0.52969000  0.60791000  1.0 0.1320159227
H  H29  1  0.11004000  0.03316000  0.65415000  1.0 0.1384672105
H  H30  1  0.88996000  0.96684000  0.15415000  1.0 0.1384672105
H  H31  1  0.11004000  0.46684000  0.15415000  1.0 0.1384672105
H  H32  1  0.88996000  0.53316000  0.65415000  1.0 0.1384672105
H  H33  1  0.30782000  0.84333000  0.58109000  1.0 0.1384672105
H  H34  1  0.69218000  0.15667000  0.08109000  1.0 0.1384672105
H  H35  1  0.30782000  0.65667000  0.08109000  1.0 0.1384672105
H  H36  1  0.69218000  0.34333000  0.58109000  1.0 0.1384672105
H  H37  1  0.25544000  0.90800000  0.59993000  1.0 0.1320159227
H  H38  1  0.74456000  0.09200000  0.09993000  1.0 0.1320159227
H  H39  1  0.25544000  0.59200000  0.09993000  1.0 0.1384672105
H  H40  1  0.74456000  0.40800000  0.59993000  1.0 0.1320159227
H  H41  1  0.45853000  0.96916000  0.56778000  1.0 0.1384672105
H  H42  1  0.54147000  0.03084000  0.06778000  1.0 0.1384672105
H  H43  1  0.45853000  0.53084000  0.06778000  1.0 0.1384672105
H  H44  1  0.54147000  0.46916000  0.56778000  1.0 0.1384672105
H  H45  1  0.51091000  0.90449000  0.54894000  1.0 0.1384672105
H  H46  1  0.48909000  0.09551000  0.04894000  1.0 0.1384672105
H  H47  1  0.51091000  0.59551000  0.04894000  1.0 0.1384672105
H  H48  1  0.48909000  0.40449000  0.54894000  1.0 0.1384672105
H  H49  1  0.24640000  0.30365000  0.60532000  1.0 0.1384672105
H  H50  1  0.75360000  0.69635000  0.10532000  1.0 0.1384672105
H  H51  1  0.24640000  0.19635000  0.10532000  1.0 0.1384672105
H  H52  1  0.75360000  0.80365000  0.60532000  1.0 0.1384672105
H  H53  1  0.16820000  0.30852000  0.65167000  1.0 0.1320159227
H  H54  1  0.83180000  0.69148000  0.15167000  1.0 0.1320159227
H  H55  1  0.16820000  0.19148000  0.15167000  1.0 0.1320159227
H  H56  1  0.83180000  0.80852000  0.65167000  1.0 0.1320159227
H  H57  1  0.31659000  0.22156000  0.69377000  1.0 0.1320159227
H  H58  1  0.68341000  0.77844000  0.19377000  1.0 0.1320159227
H  H59  1  0.31659000  0.27844000  0.19377000  1.0 0.1320159227
H  H60  1  0.68341000  0.72156000  0.69377000  1.0 0.1320159227
H  H61  1  0.39479000  0.21668000  0.64742000  1.0 0.1320159227
H  H62  1  0.60521000  0.78332000  0.14742000  1.0 0.1320159227
H  H63  1  0.39479000  0.28332000  0.14742000  1.0 0.1320159227
H  H64  1  0.60521000  0.71668000  0.64742000  1.0 0.1320159227
H  H65  1  0.06383000  0.13644000  0.69796000  1.0 0.1384672105
H  H66  1  0.93617000  0.86356000  0.19796000  1.0 0.1384672105
H  H67  1  0.06383000  0.36356000  0.19796000  1.0 0.1384672105
H  H68  1  0.93617000  0.63644000  0.69796000  1.0 0.1384672105
H  H69  1  0.11724000  0.19976000  0.67712000  1.0 0.1320159227
H  H70  1  0.88276000  0.80024000  0.17712000  1.0 0.1320159227
H  H71  1  0.11724000  0.30024000  0.17712000  1.0 0.1320159227
H  H72  1  0.88276000  0.69976000  0.67712000  1.0 0.1320159227
H  H73  1  0.16864000  0.24109000  0.76581000  1.0 0.1384672105
H  H74  1  0.83136000  0.75891000  0.26581000  1.0 0.1384672105
H  H75  1  0.16864000  0.25891000  0.26581000  1.0 0.1384672105
H  H76  1  0.83136000  0.74109000  0.76581000  1.0 0.1384672105
H  H77  1  0.11524000  0.17777000  0.78665000  1.0 0.1384672105
H  H78  1  0.88476000  0.82223000  0.28665000  1.0 0.1384672105
H  H79  1  0.11524000  0.32223000  0.28665000  1.0 0.1384672105
H  H80  1  0.88476000  0.67777000  0.78665000  1.0 0.1384672105
H  H81  1  0.97836000  0.34720000  0.74307000  1.0 0.1384672105
H  H82  1  0.02164000  0.65280000  0.24307000  1.0 0.1384672105
H  H83  1  0.97836000  0.15280000  0.24307000  1.0 0.1384672105
H  H84  1  0.02164000  0.84720000  0.74307000  1.0 0.1384672105
H  H85  1  0.03793000  0.28174000  0.72966000  1.0 0.1320159227
H  H86  1  0.96207000  0.71826000  0.22966000  1.0 0.1320159227
H  H87  1  0.03793000  0.21826000  0.22966000  1.0 0.1320159227
H  H88  1  0.96207000  0.78174000  0.72966000  1.0 0.1320159227
H  H89  1  0.25276000  0.34161000  0.70982000  1.0 0.1320159227
H  H90  1  0.74724000  0.65839000  0.20982000  1.0 0.1320159227
H  H91  1  0.25276000  0.15839000  0.20982000  1.0 0.1320159227
H  H92  1  0.74724000  0.84161000  0.70982000  1.0 0.1320159227
H  H93  1  0.19319000  0.40707000  0.72322000  1.0 0.1320159227
H  H94  1  0.80681000  0.59293000  0.22322000  1.0 0.1320159227
H  H95  1  0.19319000  0.09293000  0.22322000  1.0 0.1320159227
H  H96  1  0.80681000  0.90707000  0.72322000  1.0 0.1320159227
H  H97  1  0.00850000  0.88112000  0.85499000  1.0 0.1320159227
H  H98  1  0.99150000  0.11888000  0.35499000  1.0 0.1320159227
H  H99  1  0.00850000  0.61888000  0.35499000  1.0 0.1320159227
H  H100  1  0.99150000  0.38112000  0.85499000  1.0 0.1320159227
H  H101  1  0.99924000  0.83848000  0.90029000  1.0 0.1320159227
H  H102  1  0.00076000  0.16152000  0.40029000  1.0 0.1320159227
H  H103  1  0.99924000  0.66152000  0.40029000  1.0 0.1320159227
H  H104  1  0.00076000  0.33848000  0.90029000  1.0 0.1320159227
H  H105  1  0.04391000  0.94180000  0.95525000  1.0 0.1384672105
H  H106  1  0.95609000  0.05820000  0.45525000  1.0 0.1384672105
H  H107  1  0.04391000  0.55820000  0.45525000  1.0 0.1384672105
H  H108  1  0.95609000  0.44180000  0.95525000  1.0 0.1384672105
H  H109  1  0.05318000  0.98443000  0.90995000  1.0 0.1320159227
H  H110  1  0.94682000  0.01557000  0.40995000  1.0 0.1384672105
H  H111  1  0.05318000  0.51557000  0.40995000  1.0 0.1384672105
H  H112  1  0.94682000  0.48443000  0.90995000  1.0 0.1384672105
H  H113  1  0.86807000  0.75351000  0.99651000  1.0 0.1320159227
H  H114  1  0.13193000  0.24649000  0.49651000  1.0 0.1320159227
H  H115  1  0.86807000  0.74649000  0.49651000  1.0 0.1320159227
H  H116  1  0.13193000  0.25351000  0.99651000  1.0 0.1320159227
H  H117  1  0.99551000  0.78418000  0.98447000  1.0 0.1320159227
H  H118  1  0.00449000  0.21582000  0.48447000  1.0 0.1320159227
H  H119  1  0.99551000  0.71582000  0.48447000  1.0 0.1320159227
H  H120  1  0.00449000  0.28418000  0.98447000  1.0 0.1320159227
H  H121  1  0.87991000  0.88970000  0.95154000  1.0 0.1320159227
H  H122  1  0.12009000  0.11030000  0.45154000  1.0 0.1320159227
H  H123  1  0.87991000  0.61030000  0.45154000  1.0 0.1320159227
H  H124  1  0.12009000  0.38970000  0.95154000  1.0 0.1320159227
H  H125  1  0.75248000  0.85904000  0.96358000  1.0 0.1384672105
H  H126  1  0.24752000  0.14096000  0.46358000  1.0 0.1384672105
H  H127  1  0.75248000  0.64096000  0.46358000  1.0 0.1384672105
H  H128  1  0.24752000  0.35904000  0.96358000  1.0 0.1384672105
H  H129  1  0.29453000  0.83281000  0.95157000  1.0 0.1320159227
H  H130  1  0.70547000  0.16719000  0.45157000  1.0 0.1320159227
H  H131  1  0.29453000  0.66719000  0.45157000  1.0 0.1320159227
H  H132  1  0.70547000  0.33281000  0.95157000  1.0 0.1320159227
H  H133  1  0.16795000  0.85755000  0.93265000  1.0 0.1320159227
H  H134  1  0.83205000  0.14245000  0.43265000  1.0 0.1320159227
H  H135  1  0.16795000  0.64245000  0.43265000  1.0 0.1320159227
H  H136  1  0.83205000  0.35755000  0.93265000  1.0 0.1320159227
H  H137  1  0.06450000  0.83406000  0.01816000  1.0 0.1320159227
H  H138  1  0.93550000  0.16594000  0.51816000  1.0 0.1320159227
H  H139  1  0.06450000  0.66594000  0.51816000  1.0 0.1320159227
H  H140  1  0.93550000  0.33406000  0.01816000  1.0 0.1320159227
H  H141  1  0.19108000  0.80932000  0.03708000  1.0 0.1320159227
H  H142  1  0.80892000  0.19068000  0.53708000  1.0 0.1320159227
H  H143  1  0.19108000  0.69068000  0.53708000  1.0 0.1320159227
H  H144  1  0.80892000  0.30932000  0.03708000  1.0 0.1320159227
H  H145  1  0.55867000  0.26907000  0.40159000  1.0 0.1320159227
H  H146  1  0.44133000  0.73093000  0.90159000  1.0 0.1320159227
H  H147  1  0.55867000  0.23093000  0.90159000  1.0 0.1320159227
H  H148  1  0.44133000  0.76907000  0.40159000  1.0 0.1320159227
H  H149  1  0.58990000  0.31077000  0.35727000  1.0 0.1320159227
H  H150  1  0.41010000  0.68923000  0.85727000  1.0 0.1320159227
H  H151  1  0.58990000  0.18923000  0.85727000  1.0 0.1320159227
H  H152  1  0.41010000  0.81077000  0.35727000  1.0 0.1320159227
H  H153  1  0.46333000  0.40958000  0.39532000  1.0 0.1320159227
H  H154  1  0.53667000  0.59042000  0.89532000  1.0 0.1320159227
H  H155  1  0.46333000  0.09042000  0.89532000  1.0 0.1320159227
H  H156  1  0.53667000  0.90958000  0.39532000  1.0 0.1320159227
H  H157  1  0.43210000  0.36788000  0.43963000  1.0 0.1320159227
H  H158  1  0.56790000  0.63212000  0.93963000  1.0 0.1320159227
H  H159  1  0.43210000  0.13212000  0.93963000  1.0 0.1320159227
H  H160  1  0.56790000  0.86788000  0.43963000  1.0 0.1320159227
H  H161  1  0.71548000  0.44153000  0.27135000  1.0 0.1384672105
H  H162  1  0.28452000  0.55847000  0.77135000  1.0 0.1384672105
H  H163  1  0.71548000  0.05847000  0.77135000  1.0 0.1384672105
H  H164  1  0.28452000  0.94153000  0.27135000  1.0 0.1384672105
H  H165  1  0.58311000  0.42052000  0.28652000  1.0 0.1320159227
H  H166  1  0.41689000  0.57948000  0.78652000  1.0 0.1320159227
H  H167  1  0.58311000  0.07948000  0.78652000  1.0 0.1320159227
H  H168  1  0.41689000  0.92052000  0.28652000  1.0 0.1320159227
H  H169  1  0.66770000  0.39237000  0.37429000  1.0 0.5993575643
H  H170  1  0.33230000  0.60763000  0.87429000  1.0 0.5993575643
H  H171  1  0.66770000  0.10763000  0.87429000  1.0 0.5993575643
H  H172  1  0.33230000  0.89237000  0.37429000  1.0 0.5993575643
H  H173  1  0.80007000  0.41338000  0.35912000  1.0 -0.0314750539
H  H174  1  0.19993000  0.58662000  0.85912000  1.0 -0.0314750539
H  H175  1  0.80007000  0.08662000  0.85912000  1.0 -0.0314750539
H  H176  1  0.19993000  0.91338000  0.35912000  1.0 -0.0314750539
H  H177  1  0.37125000  0.49991000  0.31119000  1.0 -0.0702959623
H  H178  1  0.62875000  0.50009000  0.81119000  1.0 -0.0702959623
H  H179  1  0.37125000  0.00009000  0.81119000  1.0 -0.0702959623
H  H180  1  0.62875000  0.99991000  0.31119000  1.0 -0.0702959623
H  H181  1  0.49829000  0.46927000  0.32386000  1.0 -0.2073202594
H  H182  1  0.50171000  0.53073000  0.82386000  1.0 -0.2073202594
H  H183  1  0.49829000  0.03073000  0.82386000  1.0 -0.2073202594
H  H184  1  0.50171000  0.96927000  0.32386000  1.0 -0.2073202594
H  H185  1  0.38763000  0.35450000  0.33511000  1.0 0.1897071988
H  H186  1  0.61237000  0.64550000  0.83511000  1.0 0.1897071988
H  H187  1  0.38763000  0.14550000  0.83511000  1.0 0.1897071988
H  H188  1  0.61237000  0.85450000  0.33511000  1.0 0.1897071988
H  H189  1  0.26059000  0.38514000  0.32244000  1.0 -0.198291058
H  H190  1  0.73941000  0.61486000  0.82244000  1.0 -0.198291058
H  H191  1  0.26059000  0.11486000  0.82244000  1.0 -0.198291058
H  H192  1  0.73941000  0.88514000  0.32244000  1.0 -0.198291058
C  C1  1  0.47260000  0.13610000  0.54480000  1.0 -0.0779254575
C  C2  1  0.52740000  0.86390000  0.04480000  1.0 -0.0779254575
C  C3  1  0.47260000  0.36390000  0.04480000  1.0 -0.0779254575
C  C4  1  0.52740000  0.63610000  0.54480000  1.0 -0.0779254575
C  C5  1  0.42240000  0.09830000  0.55700000  1.0 0.57296624
C  C6  1  0.57760000  0.90170000  0.05700000  1.0 0.57296624
C  C7  1  0.42240000  0.40170000  0.05700000  1.0 0.57296624
C  C8  1  0.57760000  0.59830000  0.55700000  1.0 0.57296624
C  C9  1  0.38310000  0.06900000  0.53710000  1.0 -0.0230735237
C  C10  1  0.61690000  0.93100000  0.03710000  1.0 -0.0230735237
C  C11  1  0.38310000  0.43100000  0.03710000  1.0 -0.0230735237
C  C12  1  0.61690000  0.56900000  0.53710000  1.0 -0.0230735237
C  C13  1  0.34740000  0.03210000  0.54980000  1.0 -0.0702959623
C  C14  1  0.65260000  0.96790000  0.04980000  1.0 -0.0702959623
C  C15  1  0.34740000  0.46790000  0.04980000  1.0 -0.0702959623
C  C16  1  0.65260000  0.53210000  0.54980000  1.0 -0.0702959623
C  C17  1  0.35090000  0.02450000  0.58250000  1.0 -0.1890974139
C  C18  1  0.64910000  0.97550000  0.08250000  1.0 -0.1890974139
C  C19  1  0.35090000  0.47550000  0.08250000  1.0 -0.1890974139
C  C20  1  0.64910000  0.52450000  0.58250000  1.0 -0.1890974139
C  C21  1  0.39020000  0.05390000  0.60240000  1.0 0.1512367524
C  C22  1  0.60980000  0.94610000  0.10240000  1.0 0.1512367524
C  C23  1  0.39020000  0.44610000  0.10240000  1.0 0.1512367524
C  C24  1  0.60980000  0.55390000  0.60240000  1.0 0.1512367524
C  C25  1  0.42590000  0.09080000  0.58970000  1.0 -0.1802163338
C  C26  1  0.57410000  0.90920000  0.08970000  1.0 -0.1802163338
C  C27  1  0.42590000  0.40920000  0.08970000  1.0 -0.1802163338
C  C28  1  0.57410000  0.59080000  0.58970000  1.0 -0.1802163338
C  C29  1  0.11770000  0.99470000  0.70780000  1.0 -0.0879789911
C  C30  1  0.88230000  0.00530000  0.20780000  1.0 -0.0879789911
C  C31  1  0.11770000  0.50530000  0.20780000  1.0 -0.0879789911
C  C32  1  0.88230000  0.49470000  0.70780000  1.0 -0.0879789911
C  C33  1  0.17940000  0.99160000  0.67990000  1.0 0.5911480632
C  C34  1  0.82060000  0.00840000  0.17990000  1.0 0.5834015961
C  C35  1  0.17940000  0.50840000  0.17990000  1.0 0.5911480632
C  C36  1  0.82060000  0.49160000  0.67990000  1.0 0.5834015961
C  C37  1  0.24920000  0.96540000  0.67880000  1.0 -0.0314750539
C  C38  1  0.75080000  0.03460000  0.17880000  1.0 -0.0314750539
C  C39  1  0.24920000  0.53460000  0.17880000  1.0 -0.0314750539
C  C40  1  0.75080000  0.46540000  0.67880000  1.0 -0.0314750539
C  C41  1  0.29650000  0.96330000  0.65110000  1.0 -0.0702959623
C  C42  1  0.70350000  0.03670000  0.15110000  1.0 -0.0702959623
C  C43  1  0.29650000  0.53670000  0.15110000  1.0 -0.0702959623
C  C44  1  0.70350000  0.46330000  0.65110000  1.0 -0.0702959623
C  C45  1  0.27390000  0.98740000  0.62450000  1.0 -0.1890974139
C  C46  1  0.72610000  0.01260000  0.12450000  1.0 -0.1890974139
C  C47  1  0.27390000  0.51260000  0.12450000  1.0 -0.1890974139
C  C48  1  0.72610000  0.48740000  0.62450000  1.0 -0.1890974139
C  C49  1  0.20410000  0.01360000  0.62570000  1.0 0.1720700453
C  C50  1  0.79590000  0.98640000  0.12570000  1.0 0.1720700453
C  C51  1  0.20410000  0.48640000  0.12570000  1.0 0.1720700453
C  C52  1  0.79590000  0.51360000  0.62570000  1.0 0.1720700453
C  C53  1  0.15680000  0.01570000  0.65340000  1.0 -0.1890974139
C  C54  1  0.84320000  0.98430000  0.15340000  1.0 -0.1890974139
C  C55  1  0.15680000  0.48430000  0.15340000  1.0 -0.1890974139
C  C56  1  0.84320000  0.51570000  0.65340000  1.0 -0.1890974139
C  C57  1  0.44970000  0.82430000  0.55390000  1.0 -0.0702959623
C  C58  1  0.55030000  0.17570000  0.05390000  1.0 -0.0702959623
C  C59  1  0.44970000  0.67570000  0.05390000  1.0 -0.0702959623
C  C60  1  0.55030000  0.32430000  0.55390000  1.0 -0.0702959623
C  C61  1  0.41460000  0.86750000  0.56310000  1.0 0.5834015961
C  C62  1  0.58540000  0.13250000  0.06310000  1.0 0.5911480632
C  C63  1  0.41460000  0.63250000  0.06310000  1.0 0.5834015961
C  C64  1  0.58540000  0.36750000  0.56310000  1.0 0.5834015961
C  C65  1  0.33800000  0.86850000  0.57840000  1.0 -0.0421562331
C  C66  1  0.66200000  0.13150000  0.07840000  1.0 -0.0421562331
C  C67  1  0.33800000  0.63150000  0.07840000  1.0 -0.0421562331
C  C68  1  0.66200000  0.36850000  0.57840000  1.0 -0.0421562331
C  C69  1  0.30660000  0.90730000  0.58970000  1.0 -0.0702959623
C  C70  1  0.69340000  0.09270000  0.08970000  1.0 -0.0702959623
C  C71  1  0.30660000  0.59270000  0.08970000  1.0 -0.0702959623
C  C72  1  0.69340000  0.40730000  0.58970000  1.0 -0.0702959623
C  C73  1  0.35180000  0.94500000  0.58570000  1.0 -0.1890974139
C  C74  1  0.64820000  0.05500000  0.08570000  1.0 -0.1890974139
C  C75  1  0.35180000  0.55500000  0.08570000  1.0 -0.1890974139
C  C76  1  0.64820000  0.44500000  0.58570000  1.0 -0.1890974139
C  C77  1  0.42830000  0.94390000  0.57040000  1.0 0.1720700453
C  C78  1  0.57170000  0.05610000  0.07040000  1.0 0.1720700453
C  C79  1  0.42830000  0.55610000  0.07040000  1.0 0.1720700453
C  C80  1  0.57170000  0.44390000  0.57040000  1.0 0.1720700453
C  C81  1  0.45970000  0.90520000  0.55920000  1.0 -0.1890974139
C  C82  1  0.54030000  0.09480000  0.05920000  1.0 -0.1890974139
C  C83  1  0.45970000  0.59480000  0.05920000  1.0 -0.1890974139
C  C84  1  0.54030000  0.40520000  0.55920000  1.0 -0.1890974139
C  C85  1  0.37800000  0.25890000  0.59170000  1.0 -0.0779254575
C  C86  1  0.62200000  0.74110000  0.09170000  1.0 -0.0779254575
C  C87  1  0.37800000  0.24110000  0.09170000  1.0 -0.0779254575
C  C88  1  0.62200000  0.75890000  0.59170000  1.0 -0.0779254575
C  C89  1  0.32830000  0.25970000  0.62180000  1.0 0.5584988665
C  C90  1  0.67170000  0.74030000  0.12180000  1.0 0.5584988665
C  C91  1  0.32830000  0.24030000  0.12180000  1.0 0.5584988665
C  C92  1  0.67170000  0.75970000  0.62180000  1.0 0.5584988665
C  C93  1  0.26050000  0.28720000  0.62300000  1.0 -0.0421562331
C  C94  1  0.73950000  0.71280000  0.12300000  1.0 -0.0421562331
C  C95  1  0.26050000  0.21280000  0.12300000  1.0 -0.0421562331
C  C96  1  0.73950000  0.78720000  0.62300000  1.0 -0.0421562331
C  C97  1  0.21360000  0.29010000  0.65080000  1.0 -0.0702959623
C  C98  1  0.78640000  0.70990000  0.15080000  1.0 -0.0702959623
C  C99  1  0.21360000  0.20990000  0.15080000  1.0 -0.0779254575
C  C100  1  0.78640000  0.79010000  0.65080000  1.0 -0.0702959623
C  C101  1  0.23460000  0.26550000  0.67730000  1.0 -0.1802163338
C  C102  1  0.76540000  0.73450000  0.17730000  1.0 -0.1802163338
C  C103  1  0.23460000  0.23450000  0.17730000  1.0 -0.1802163338
C  C104  1  0.76540000  0.76550000  0.67730000  1.0 -0.1802163338
C  C105  1  0.30250000  0.23800000  0.67600000  1.0 0.1720700453
C  C106  1  0.69750000  0.76200000  0.17600000  1.0 0.1766611737
C  C107  1  0.30250000  0.26200000  0.17600000  1.0 0.1720700453
C  C108  1  0.69750000  0.73800000  0.67600000  1.0 0.1766611737
C  C109  1  0.34940000  0.23510000  0.64830000  1.0 -0.1890974139
C  C110  1  0.65060000  0.76490000  0.14830000  1.0 -0.1890974139
C  C111  1  0.34940000  0.26490000  0.14830000  1.0 -0.1890974139
C  C112  1  0.65060000  0.73510000  0.64830000  1.0 -0.1890974139
C  C113  1  0.04230000  0.11170000  0.75700000  1.0 -0.0779254575
C  C114  1  0.95770000  0.88830000  0.25700000  1.0 -0.0779254575
C  C115  1  0.04230000  0.38830000  0.25700000  1.0 -0.0779254575
C  C116  1  0.95770000  0.61170000  0.75700000  1.0 -0.0779254575
C  C117  1  0.08420000  0.15080000  0.74440000  1.0 0.5993575643
C  C118  1  0.91580000  0.84920000  0.24440000  1.0 0.5911480632
C  C119  1  0.08420000  0.34920000  0.24440000  1.0 0.5911480632
C  C120  1  0.91580000  0.65080000  0.74440000  1.0 0.5911480632
C  C121  1  0.08480000  0.15740000  0.71160000  1.0 -0.0497592402
C  C122  1  0.91520000  0.84260000  0.21160000  1.0 -0.0497592402
C  C123  1  0.08480000  0.34260000  0.21160000  1.0 -0.0497592402
C  C124  1  0.91520000  0.65740000  0.71160000  1.0 -0.0497592402
C  C125  1  0.11680000  0.19540000  0.69910000  1.0 -0.0702959623
C  C126  1  0.88320000  0.80460000  0.19910000  1.0 -0.0702959623
C  C127  1  0.11680000  0.30460000  0.19910000  1.0 -0.0702959623
C  C128  1  0.88320000  0.69540000  0.69910000  1.0 -0.0702959623
C  C129  1  0.14820000  0.22670000  0.71940000  1.0 -0.198291058
C  C130  1  0.85180000  0.77330000  0.21940000  1.0 -0.198291058
C  C131  1  0.14820000  0.27330000  0.21940000  1.0 -0.198291058
C  C132  1  0.85180000  0.72670000  0.71940000  1.0 -0.198291058
C  C133  1  0.14760000  0.22010000  0.75220000  1.0 0.1991258093
C  C134  1  0.85240000  0.77990000  0.25220000  1.0 0.1991258093
C  C135  1  0.14760000  0.27990000  0.25220000  1.0 0.1991258093
C  C136  1  0.85240000  0.72010000  0.75220000  1.0 0.1991258093
C  C137  1  0.11560000  0.18220000  0.76470000  1.0 -0.1890974139
C  C138  1  0.88440000  0.81780000  0.26470000  1.0 -0.1890974139
C  C139  1  0.11560000  0.31780000  0.26470000  1.0 -0.1890974139
C  C140  1  0.88440000  0.68220000  0.76470000  1.0 -0.1890974139
C  C141  1  0.04750000  0.42530000  0.74660000  1.0 -0.0702959623
C  C142  1  0.95250000  0.57470000  0.24660000  1.0 -0.0702959623
C  C143  1  0.04750000  0.07470000  0.24660000  1.0 -0.0702959623
C  C144  1  0.95250000  0.92530000  0.74660000  1.0 -0.0702959623
C  C145  1  0.07990000  0.38360000  0.73450000  1.0 0.5993575643
C  C146  1  0.92010000  0.61640000  0.23450000  1.0 0.5993575643
C  C147  1  0.07990000  0.11640000  0.23450000  1.0 0.5993575643
C  C148  1  0.92010000  0.88360000  0.73450000  1.0 0.5993575643
C  C149  1  0.03340000  0.34610000  0.73640000  1.0 -0.0702959623
C  C150  1  0.96660000  0.65390000  0.23640000  1.0 -0.0702959623
C  C151  1  0.03340000  0.15390000  0.23640000  1.0 -0.0702959623
C  C152  1  0.96660000  0.84610000  0.73640000  1.0 -0.0702959623
C  C153  1  0.06910000  0.30690000  0.72840000  1.0 -0.0613630288
C  C154  1  0.93090000  0.69310000  0.22840000  1.0 -0.0613630288
C  C155  1  0.06910000  0.19310000  0.22840000  1.0 -0.0613630288
C  C156  1  0.93090000  0.80690000  0.72840000  1.0 -0.0613630288
C  C157  1  0.15130000  0.30520000  0.71840000  1.0 -0.1890974139
C  C158  1  0.84870000  0.69480000  0.21840000  1.0 -0.1890974139
C  C159  1  0.15130000  0.19480000  0.21840000  1.0 -0.1890974139
C  C160  1  0.84870000  0.80520000  0.71840000  1.0 -0.1890974139
C  C161  1  0.19780000  0.34270000  0.71650000  1.0 0.1512367524
C  C162  1  0.80220000  0.65730000  0.21650000  1.0 0.1557589021
C  C163  1  0.19780000  0.15730000  0.21650000  1.0 0.1512367524
C  C164  1  0.80220000  0.84270000  0.71650000  1.0 0.1557589021
C  C165  1  0.16210000  0.38190000  0.72450000  1.0 -0.1802163338
C  C166  1  0.83790000  0.61810000  0.22450000  1.0 -0.1802163338
C  C167  1  0.16210000  0.11810000  0.22450000  1.0 -0.1802163338
C  C168  1  0.83790000  0.88190000  0.72450000  1.0 -0.1802163338
C  C169  1  0.04610000  0.96530000  0.85020000  1.0 -0.0702959623
C  C170  1  0.95390000  0.03470000  0.35020000  1.0 -0.0702959623
C  C171  1  0.04610000  0.53470000  0.35020000  1.0 -0.0702959623
C  C172  1  0.95390000  0.46530000  0.85020000  1.0 -0.0702959623
C  C173  1  0.03180000  0.93700000  0.87800000  1.0 0.5993575643
C  C174  1  0.96820000  0.06300000  0.37800000  1.0 0.5993575643
C  C175  1  0.03180000  0.56300000  0.37800000  1.0 0.5993575643
C  C176  1  0.96820000  0.43700000  0.87800000  1.0 0.5993575643
C  C177  1  0.01560000  0.89330000  0.87510000  1.0 -0.0230735237
C  C178  1  0.98440000  0.10670000  0.37510000  1.0 -0.0230735237
C  C179  1  0.01560000  0.60670000  0.37510000  1.0 -0.0230735237
C  C180  1  0.98440000  0.39330000  0.87510000  1.0 -0.0230735237
C  C181  1  0.01000000  0.86770000  0.90220000  1.0 -0.0702959623
C  C182  1  0.99000000  0.13230000  0.40220000  1.0 -0.0779254575
C  C183  1  0.01000000  0.63230000  0.40220000  1.0 -0.0702959623
C  C184  1  0.99000000  0.36770000  0.90220000  1.0 -0.0702959623
C  C185  1  0.02070000  0.88590000  0.93230000  1.0 -0.198291058
C  C186  1  0.97930000  0.11410000  0.43230000  1.0 -0.198291058
C  C187  1  0.02070000  0.61410000  0.43230000  1.0 -0.198291058
C  C188  1  0.97930000  0.38590000  0.93230000  1.0 -0.198291058
C  C189  1  0.03680000  0.92960000  0.93520000  1.0 0.1991258093
C  C190  1  0.96320000  0.07040000  0.43520000  1.0 0.1991258093
C  C191  1  0.03680000  0.57040000  0.43520000  1.0 0.1991258093
C  C192  1  0.96320000  0.42960000  0.93520000  1.0 0.1991258093
C  C193  1  0.04240000  0.95520000  0.90800000  1.0 -0.198291058
C  C194  1  0.95760000  0.04480000  0.40800000  1.0 -0.198291058
C  C195  1  0.04240000  0.54480000  0.40800000  1.0 -0.198291058
C  C196  1  0.95760000  0.45520000  0.90800000  1.0 -0.198291058
C  C197  1  0.71190000  0.78360000  0.98810000  1.0 -0.0779254575
C  C198  1  0.28810000  0.21640000  0.48810000  1.0 -0.0779254575
C  C199  1  0.71190000  0.71640000  0.48810000  1.0 -0.0779254575
C  C200  1  0.28810000  0.28360000  0.98810000  1.0 -0.0779254575
C  C201  1  0.79760000  0.80320000  0.98120000  1.0 0.5834015961
C  C202  1  0.20240000  0.19680000  0.48120000  1.0 0.5834015961
C  C203  1  0.79760000  0.69680000  0.48120000  1.0 0.5834015961
C  C204  1  0.20240000  0.30320000  0.98120000  1.0 0.5834015961
C  C205  1  0.87040000  0.78080000  0.98750000  1.0 -0.0613630288
C  C206  1  0.12960000  0.21920000  0.48750000  1.0 -0.0613630288
C  C207  1  0.87040000  0.71920000  0.48750000  1.0 -0.0613630288
C  C208  1  0.12960000  0.28080000  0.98750000  1.0 -0.0613630288
C  C209  1  0.94680000  0.79920000  0.98030000  1.0 -0.0613630288
C  C210  1  0.05320000  0.20080000  0.48030000  1.0 -0.0702959623
C  C211  1  0.94680000  0.70080000  0.48030000  1.0 -0.0613630288
C  C212  1  0.05320000  0.29920000  0.98030000  1.0 -0.0613630288
C  C213  1  0.95030000  0.84000000  0.96680000  1.0 -0.1890974139
C  C214  1  0.04970000  0.16000000  0.46680000  1.0 -0.1890974139
C  C215  1  0.95030000  0.66000000  0.46680000  1.0 -0.1890974139
C  C216  1  0.04970000  0.34000000  0.96680000  1.0 -0.1890974139
C  C217  1  0.87750000  0.86240000  0.96060000  1.0 0.1720700453
C  C218  1  0.12250000  0.13760000  0.46060000  1.0 0.1720700453
C  C219  1  0.87750000  0.63760000  0.46060000  1.0 0.1720700453
C  C220  1  0.12250000  0.36240000  0.96060000  1.0 0.1720700453
C  C221  1  0.80120000  0.84400000  0.96780000  1.0 -0.1890974139
C  C222  1  0.19880000  0.15600000  0.46780000  1.0 -0.1890974139
C  C223  1  0.80120000  0.65600000  0.46780000  1.0 -0.1890974139
C  C224  1  0.19880000  0.34400000  0.96780000  1.0 -0.1890974139
C  C225  1  0.33700000  0.80490000  0.00810000  1.0 -0.0702959623
C  C226  1  0.66300000  0.19510000  0.50810000  1.0 -0.0702959623
C  C227  1  0.33700000  0.69510000  0.50810000  1.0 -0.0702959623
C  C228  1  0.66300000  0.30490000  0.00810000  1.0 -0.0702959623
C  C229  1  0.25540000  0.81860000  0.99620000  1.0 0.5993575643
C  C230  1  0.74460000  0.18140000  0.49620000  1.0 0.5993575643
C  C231  1  0.25540000  0.68140000  0.49620000  1.0 0.5993575643
C  C232  1  0.74460000  0.31860000  0.99620000  1.0 0.5993575643
C  C233  1  0.24840000  0.83310000  0.96490000  1.0 -0.0779254575
C  C234  1  0.75160000  0.16690000  0.46490000  1.0 -0.0779254575
C  C235  1  0.24840000  0.66690000  0.46490000  1.0 -0.0779254575
C  C236  1  0.75160000  0.33310000  0.96490000  1.0 -0.0779254575
C  C237  1  0.17260000  0.84790000  0.95360000  1.0 -0.0613630288
C  C238  1  0.82740000  0.15210000  0.45360000  1.0 -0.0613630288
C  C239  1  0.17260000  0.65210000  0.45360000  1.0 -0.0613630288
C  C240  1  0.82740000  0.34790000  0.95360000  1.0 -0.0702959623
C  C241  1  0.10370000  0.84830000  0.97350000  1.0 -0.1890974139
C  C242  1  0.89630000  0.15170000  0.47350000  1.0 -0.1890974139
C  C243  1  0.10370000  0.65170000  0.47350000  1.0 -0.1890974139
C  C244  1  0.89630000  0.34830000  0.97350000  1.0 -0.1890974139
C  C245  1  0.11060000  0.83380000  0.00480000  1.0 0.1766611737
C  C246  1  0.88940000  0.16620000  0.50480000  1.0 0.1766611737
C  C247  1  0.11060000  0.66620000  0.50480000  1.0 0.1766611737
C  C248  1  0.88940000  0.33380000  0.00480000  1.0 0.1766611737
C  C249  1  0.18640000  0.81900000  0.01610000  1.0 -0.1890974139
C  C250  1  0.81360000  0.18100000  0.51610000  1.0 -0.1890974139
C  C251  1  0.18640000  0.68100000  0.51610000  1.0 -0.1890974139
C  C252  1  0.81360000  0.31900000  0.01610000  1.0 -0.1890974139
C  C253  1  0.47020000  0.28730000  0.45210000  1.0 -0.0613630288
C  C254  1  0.52980000  0.71270000  0.95210000  1.0 -0.0613630288
C  C255  1  0.47020000  0.21270000  0.95210000  1.0 -0.0613630288
C  C256  1  0.52980000  0.78730000  0.45210000  1.0 -0.0613630288
C  C257  1  0.49230000  0.31430000  0.42500000  1.0 0.57296624
C  C258  1  0.50770000  0.68570000  0.92500000  1.0 0.57296624
C  C259  1  0.49230000  0.18570000  0.92500000  1.0 0.57296624
C  C260  1  0.50770000  0.81430000  0.42500000  1.0 0.57296624
C  C261  1  0.53960000  0.29720000  0.40030000  1.0 -0.0421562331
C  C262  1  0.46040000  0.70280000  0.90030000  1.0 -0.0421562331
C  C263  1  0.53960000  0.20280000  0.90030000  1.0 -0.0421562331
C  C264  1  0.46040000  0.79720000  0.40030000  1.0 -0.0421562331
C  C265  1  0.55830000  0.32220000  0.37380000  1.0 -0.0702959623
C  C266  1  0.44170000  0.67780000  0.87380000  1.0 -0.0702959623
C  C267  1  0.55830000  0.17780000  0.87380000  1.0 -0.0702959623
C  C268  1  0.44170000  0.82220000  0.37380000  1.0 -0.0702959623
C  C269  1  0.52970000  0.36430000  0.37190000  1.0 -0.1890974139
C  C270  1  0.47030000  0.63570000  0.87190000  1.0 -0.1890974139
C  C271  1  0.52970000  0.13570000  0.87190000  1.0 -0.1890974139
C  C272  1  0.47030000  0.86430000  0.37190000  1.0 -0.1890974139
C  C273  1  0.48240000  0.38140000  0.39660000  1.0 0.1897071988
C  C274  1  0.51760000  0.61860000  0.89660000  1.0 0.1897071988
C  C275  1  0.48240000  0.11860000  0.89660000  1.0 0.1897071988
C  C276  1  0.51760000  0.88140000  0.39660000  1.0 0.1897071988
C  C277  1  0.46370000  0.35640000  0.42310000  1.0 -0.1890974139
C  C278  1  0.53630000  0.64360000  0.92310000  1.0 -0.1890974139
C  C279  1  0.46370000  0.14360000  0.92310000  1.0 -0.1890974139
C  C280  1  0.53630000  0.85640000  0.42310000  1.0 -0.1890974139
C  C281  1  0.85400000  0.44390000  0.30150000  1.0 -0.0779254575
C  C282  1  0.14600000  0.55610000  0.80150000  1.0 -0.0779254575
C  C283  1  0.85400000  0.05610000  0.80150000  1.0 -0.0779254575
C  C284  1  0.14600000  0.94390000  0.30150000  1.0 -0.0779254575
C  C285  1  0.77090000  0.42950000  0.31370000  1.0 0.5911480632
C  C286  1  0.22910000  0.57050000  0.81370000  1.0 0.5993575643
C  C287  1  0.77090000  0.07050000  0.81370000  1.0 0.5993575643
C  C288  1  0.22910000  0.92950000  0.31370000  1.0 0.5911480632
C  C289  1  0.70590000  0.43170000  0.29200000  1.0 -0.0702959623
C  C290  1  0.29410000  0.56830000  0.79200000  1.0 -0.0702959623
C  C291  1  0.70590000  0.06830000  0.79200000  1.0 -0.0702959623
C  C292  1  0.29410000  0.93170000  0.29200000  1.0 -0.0702959623
C  C293  1  0.62660000  0.41910000  0.30110000  1.0 -0.0613630288
C  C294  1  0.37340000  0.58090000  0.80110000  1.0 -0.0613630288
C  C295  1  0.62660000  0.08090000  0.80110000  1.0 -0.0613630288
C  C296  1  0.37340000  0.91910000  0.30110000  1.0 -0.0613630288
C  C297  1  0.61230000  0.40440000  0.33190000  1.0 -0.1890974139
C  C298  1  0.38770000  0.59560000  0.83190000  1.0 -0.1890974139
C  C299  1  0.61230000  0.09560000  0.83190000  1.0 -0.1890974139
C  C300  1  0.38770000  0.90440000  0.33190000  1.0 -0.1890974139
C  C301  1  0.67730000  0.40220000  0.35370000  1.0 0.1766611737
C  C302  1  0.32270000  0.59780000  0.85370000  1.0 0.1766611737
C  C303  1  0.67730000  0.09780000  0.85370000  1.0 0.1766611737
C  C304  1  0.32270000  0.90220000  0.35370000  1.0 0.1766611737
C  C305  1  0.75660000  0.41480000  0.34460000  1.0 -0.1890974139
C  C306  1  0.24340000  0.58520000  0.84460000  1.0 -0.1890974139
C  C307  1  0.75660000  0.08520000  0.84460000  1.0 -0.1890974139
C  C308  1  0.24340000  0.91480000  0.34460000  1.0 -0.1890974139
C  C309  1  0.22140000  0.46450000  0.30910000  1.0 -0.0702959623
C  C310  1  0.77860000  0.53550000  0.80910000  1.0 -0.0702959623
C  C311  1  0.22140000  0.03550000  0.80910000  1.0 -0.0702959623
C  C312  1  0.77860000  0.96450000  0.30910000  1.0 -0.0702959623
C  C313  1  0.30330000  0.44560000  0.31560000  1.0 -0.130902937
C  C314  1  0.69670000  0.55440000  0.81560000  1.0 -0.130902937
C  C315  1  0.30330000  0.05440000  0.81560000  1.0 -0.130902937
C  C316  1  0.69670000  0.94560000  0.31560000  1.0 -0.130902937
C  C317  1  0.37450000  0.47080000  0.31600000  1.0 -0.1651424545
C  C318  1  0.62550000  0.52920000  0.81600000  1.0 -0.1637536638
C  C319  1  0.37450000  0.02920000  0.81600000  1.0 -0.1651424545
C  C320  1  0.62550000  0.97080000  0.31600000  1.0 -0.1637536638
C  C321  1  0.45060000  0.45240000  0.32360000  1.0 -0.130902937
C  C322  1  0.54940000  0.54760000  0.82360000  1.0 -0.130902937
C  C323  1  0.45060000  0.04760000  0.82360000  1.0 -0.130902937
C  C324  1  0.54940000  0.95240000  0.32360000  1.0 -0.130902937
C  C325  1  0.45560000  0.40890000  0.33070000  1.0 -0.1637536638
C  C326  1  0.54440000  0.59110000  0.83070000  1.0 -0.1637536638
C  C327  1  0.45560000  0.09110000  0.83070000  1.0 -0.1637536638
C  C328  1  0.54440000  0.90890000  0.33070000  1.0 -0.1637536638
C  C329  1  0.38430000  0.38360000  0.33030000  1.0 -0.9571958709
C  C330  1  0.61570000  0.61640000  0.83030000  1.0 -0.9571958709
C  C331  1  0.38430000  0.11640000  0.83030000  1.0 -0.9571958709
C  C332  1  0.61570000  0.88360000  0.33030000  1.0 -0.9571958709
C  C333  1  0.30820000  0.40200000  0.32270000  1.0 -0.9819028306
C  C334  1  0.69180000  0.59800000  0.82270000  1.0 -0.9819028306
C  C335  1  0.30820000  0.09800000  0.82270000  1.0 -0.9819028306
C  C336  1  0.69180000  0.90200000  0.32270000  1.0 -0.9819028306
N  N1  1  0.31780000  0.98670000  0.59150000  1.0 -0.542212196
N  N2  1  0.68220000  0.01330000  0.09150000  1.0 -0.542212196
N  N3  1  0.31780000  0.51330000  0.09150000  1.0 -0.542212196
N  N4  1  0.68220000  0.48670000  0.59150000  1.0 -0.542212196
N  N5  1  0.18100000  0.26730000  0.70580000  1.0 -0.5993404764
N  N6  1  0.81900000  0.73270000  0.20580000  1.0 -0.5993404764
N  N7  1  0.18100000  0.23270000  0.20580000  1.0 -0.5993404764
N  N8  1  0.81900000  0.76730000  0.70580000  1.0 -0.5993404764
N  N9  1  0.02400000  0.85830000  0.96070000  1.0 -0.4428929863
N  N10  1  0.97600000  0.14170000  0.46070000  1.0 -0.4428929863
N  N11  1  0.02400000  0.64170000  0.46070000  1.0 -0.4491131801
N  N12  1  0.97600000  0.35830000  0.96070000  1.0 -0.4428929863
N  N13  1  0.53390000  0.39110000  0.34380000  1.0 -0.560404897
N  N14  1  0.46610000  0.60890000  0.84380000  1.0 -0.560404897
N  N15  1  0.53390000  0.10890000  0.84380000  1.0 -0.560404897
N  N16  1  0.46610000  0.89110000  0.34380000  1.0 -0.560404897
O  O1  1  0.02950000  0.01430000  0.77850000  1.0 -0.518079691
O  O2  1  0.97050000  0.98570000  0.27850000  1.0 -0.518079691
O  O3  1  0.02950000  0.48570000  0.27850000  1.0 -0.518079691
O  O4  1  0.97050000  0.51430000  0.77850000  1.0 -0.518079691
O  O5  1  0.46440000  0.23650000  0.52310000  1.0 -0.5485661618
O  O6  1  0.53560000  0.76350000  0.02310000  1.0 -0.5485661618
O  O7  1  0.46440000  0.26350000  0.02310000  1.0 -0.5485661618
O  O8  1  0.53560000  0.73650000  0.52310000  1.0 -0.5485661618
O  O9  1  0.49860000  0.15940000  0.56800000  1.0 -0.5260597694
O  O10  1  0.50140000  0.84060000  0.06800000  1.0 -0.5260597694
O  O11  1  0.49860000  0.34060000  0.06800000  1.0 -0.5260597694
O  O12  1  0.50140000  0.65940000  0.56800000  1.0 -0.5260597694
O  O13  1  0.45080000  0.14360000  0.51380000  1.0 -0.4760761041
O  O14  1  0.54920000  0.85640000  0.01380000  1.0 -0.4737453777
O  O15  1  0.45080000  0.35640000  0.01380000  1.0 -0.4760761041
O  O16  1  0.54920000  0.64360000  0.51380000  1.0 -0.4760761041
O  O17  1  0.05480000  0.00970000  0.70750000  1.0 -0.3178505578
O  O18  1  0.94520000  0.99030000  0.20750000  1.0 -0.3178505578
O  O19  1  0.05480000  0.49030000  0.20750000  1.0 -0.3178505578
O  O20  1  0.94520000  0.50970000  0.70750000  1.0 -0.3178505578
O  O21  1  0.16070000  0.97880000  0.73240000  1.0 -0.4081482518
O  O22  1  0.83930000  0.02120000  0.23240000  1.0 -0.4081482518
O  O23  1  0.16070000  0.52120000  0.23240000  1.0 -0.4081482518
O  O24  1  0.83930000  0.47880000  0.73240000  1.0 -0.4081482518
O  O25  1  0.41120000  0.79260000  0.56120000  1.0 -0.5684601011
O  O26  1  0.58880000  0.20740000  0.06120000  1.0 -0.5684601011
O  O27  1  0.41120000  0.70740000  0.06120000  1.0 -0.5684601011
O  O28  1  0.58880000  0.29260000  0.56120000  1.0 -0.5684601011
O  O29  1  0.51690000  0.82690000  0.53890000  1.0 -0.5485661618
O  O30  1  0.48310000  0.17310000  0.03890000  1.0 -0.5485661618
O  O31  1  0.51690000  0.67310000  0.03890000  1.0 -0.5485661618
O  O32  1  0.48310000  0.32690000  0.53890000  1.0 -0.5485661618
O  O33  1  0.34890000  0.27910000  0.56820000  1.0 -0.542212196
O  O34  1  0.65110000  0.72090000  0.06820000  1.0 -0.5485661618
O  O35  1  0.34890000  0.22090000  0.06820000  1.0 -0.5485661618
O  O36  1  0.65110000  0.77910000  0.56820000  1.0 -0.542212196
O  O37  1  0.44050000  0.23740000  0.58710000  1.0 -0.542212196
O  O38  1  0.55950000  0.76260000  0.08710000  1.0 -0.542212196
O  O39  1  0.44050000  0.26260000  0.08710000  1.0 -0.542212196
O  O40  1  0.55950000  0.73740000  0.58710000  1.0 -0.542212196
O  O41  1  0.03240000  0.10800000  0.78320000  1.0 -0.560404897
O  O42  1  0.96760000  0.89200000  0.28320000  1.0 -0.560404897
O  O43  1  0.03240000  0.39200000  0.28320000  1.0 -0.560404897
O  O44  1  0.96760000  0.60800000  0.78320000  1.0 -0.560404897
O  O45  1  0.99940000  0.08670000  0.74090000  1.0 -0.5684601011
O  O46  1  0.00060000  0.91330000  0.24090000  1.0 -0.5684601011
O  O47  1  0.99940000  0.41330000  0.24090000  1.0 -0.5684601011
O  O48  1  0.00060000  0.58670000  0.74090000  1.0 -0.5684601011
O  O49  1  0.97130000  0.42110000  0.75780000  1.0 -0.4737453777
O  O50  1  0.02870000  0.57890000  0.25780000  1.0 -0.4737453777
O  O51  1  0.97130000  0.07890000  0.25780000  1.0 -0.4737453777
O  O52  1  0.02870000  0.92110000  0.75780000  1.0 -0.4737453777
O  O53  1  0.09020000  0.45980000  0.74320000  1.0 -0.5782129682
O  O54  1  0.90980000  0.54020000  0.24320000  1.0 -0.5782129682
O  O55  1  0.09020000  0.04020000  0.24320000  1.0 -0.5782129682
O  O56  1  0.90980000  0.95980000  0.74320000  1.0 -0.5782129682
O  O57  1  0.03400000  0.00540000  0.85060000  1.0 -0.5684601011
O  O58  1  0.96600000  0.99460000  0.35060000  1.0 -0.5782129682
O  O59  1  0.03400000  0.49460000  0.35060000  1.0 -0.5684601011
O  O60  1  0.96600000  0.50540000  0.85060000  1.0 -0.5684601011
O  O61  1  0.08090000  0.94560000  0.82800000  1.0 -0.5782129682
O  O62  1  0.91910000  0.05440000  0.32800000  1.0 -0.5782129682
O  O63  1  0.08090000  0.55440000  0.32800000  1.0 -0.5782129682
O  O64  1  0.91910000  0.44560000  0.82800000  1.0 -0.5782129682
O  O65  1  0.65120000  0.80450000  0.97480000  1.0 -0.4491131801
O  O66  1  0.34880000  0.19550000  0.47480000  1.0 -0.4491131801
O  O67  1  0.65120000  0.69550000  0.47480000  1.0 -0.4491131801
O  O68  1  0.34880000  0.30450000  0.97480000  1.0 -0.4491131801
O  O69  1  0.71410000  0.74880000  0.00410000  1.0 -0.5782129682
O  O70  1  0.28590000  0.25120000  0.50410000  1.0 -0.5782129682
O  O71  1  0.71410000  0.75120000  0.50410000  1.0 -0.5782129682
O  O72  1  0.28590000  0.24880000  0.00410000  1.0 -0.5782129682
O  O73  1  0.34920000  0.79280000  0.03450000  1.0 -0.5094524104
O  O74  1  0.65080000  0.20720000  0.53450000  1.0 -0.5094524104
O  O75  1  0.34920000  0.70720000  0.53450000  1.0 -0.5094524104
O  O76  1  0.65080000  0.29280000  0.03450000  1.0 -0.5094524104
O  O77  1  0.40220000  0.80960000  0.98510000  1.0 -0.5485661618
O  O78  1  0.59780000  0.19040000  0.48510000  1.0 -0.5485661618
O  O79  1  0.40220000  0.69040000  0.48510000  1.0 -0.5485661618
O  O80  1  0.59780000  0.30960000  0.98510000  1.0 -0.5485661618
O  O81  1  0.42830000  0.30610000  0.47560000  1.0 -0.3294079481
O  O82  1  0.57170000  0.69390000  0.97560000  1.0 -0.3294079481
O  O83  1  0.42830000  0.19390000  0.97560000  1.0 -0.3294079481
O  O84  1  0.57170000  0.80610000  0.47560000  1.0 -0.3294079481
O  O85  1  0.49620000  0.24630000  0.45210000  1.0 -0.1514719951
O  O86  1  0.50380000  0.75370000  0.95210000  1.0 -0.1514719951
O  O87  1  0.49620000  0.25370000  0.95210000  1.0 -0.1514719951
O  O88  1  0.50380000  0.74630000  0.45210000  1.0 -0.1514719951
O  O89  1  0.92240000  0.44550000  0.31760000  1.0 -0.3294079481
O  O90  1  0.07760000  0.55450000  0.81760000  1.0 -0.3178505578
O  O91  1  0.92240000  0.05450000  0.81760000  1.0 -0.3178505578
O  O92  1  0.07760000  0.94550000  0.31760000  1.0 -0.3294079481
O  O93  1  0.85330000  0.45680000  0.27000000  1.0 -0.2073202594
O  O94  1  0.14670000  0.54320000  0.77000000  1.0 -0.2158706266
O  O95  1  0.85330000  0.04320000  0.77000000  1.0 -0.2073202594
O  O96  1  0.14670000  0.95680000  0.27000000  1.0 -0.2073202594
O  O97  1  0.22090000  0.50060000  0.29760000  1.0 -0.2483045835
O  O98  1  0.77910000  0.49940000  0.79760000  1.0 -0.2367695872
O  O99  1  0.22090000  0.99940000  0.79760000  1.0 -0.2367695872
O  O100  1  0.77910000  0.00060000  0.29760000  1.0 -0.2483045835
O  O101  1  0.16350000  0.43840000  0.31340000  1.0 -0.0702959623
O  O102  1  0.83650000  0.56160000  0.81340000  1.0 -0.0702959623
O  O103  1  0.16350000  0.06160000  0.81340000  1.0 -0.0779254575
O  O104  1  0.83650000  0.93840000  0.31340000  1.0 -0.0779254575
  O  O105  1  0.87670000  0.03600000  0.70000000  1.0
  O  O106  1  0.12330000  0.96400000  0.20000000  1.0
  O  O107  1  0.87670000  0.46400000  0.20000000  1.0
  O  O108  1  0.12330000  0.53600000  0.70000000  1.0
  O  O109  1  0.02950000  0.10610000  0.85790000  1.0
  O  O110  1  0.97050000  0.89390000  0.35790000  1.0
  O  O111  1  0.02950000  0.39390000  0.35790000  1.0
  O  O112  1  0.97050000  0.60610000  0.85790000  1.0
  O  O113  1  0.19940000  0.90900000  0.77650000  1.0
  O  O114  1  0.80060000  0.09100000  0.27650000  1.0
  O  O115  1  0.19940000  0.59100000  0.27650000  1.0
  O  O116  1  0.80060000  0.40900000  0.77650000  1.0
  O  O117  1  0.30600000  0.34710000  0.51700000  1.0
  O  O118  1  0.69400000  0.65290000  0.01700000  1.0
  O  O119  1  0.30600000  0.15290000  0.01700000  1.0
  O  O120  1  0.69400000  0.84710000  0.51700000  1.0
  O  O121  1  0.48730000  0.15480000  0.44270000  1.0
  O  O122  1  0.51270000  0.84520000  0.94270000  1.0
  O  O123  1  0.48730000  0.34520000  0.94270000  1.0
  O  O124  1  0.51270000  0.65480000  0.44270000  1.0
  O  O125  1  0.62080000  0.21310000  0.60490000  1.0
  O  O126  1  0.37920000  0.78690000  0.10490000  1.0
  O  O127  1  0.62080000  0.28690000  0.10490000  1.0
  O  O128  1  0.37920000  0.71310000  0.60490000  1.0
