# DDEC6 charges by PACMAN v1.1 (https://github.com/mtap-research/PACMAN-charge/)
data_d0ce00408a2_ASR_pacman
_symmetry_space_group_name_H-M   'P 1'
_cell_length_a   22.68400000
_cell_length_b   22.68400000
_cell_length_c   22.68400000
_cell_angle_alpha   90.00000000
_cell_angle_beta   90.00000000
_cell_angle_gamma   90.00000000
_symmetry_Int_Tables_number   1
_chemical_formula_structural   Zn24H133.92C229.8N96
_chemical_formula_sum   'Zn24 H133.92 C229.8 N96'
_cell_volume   11672.36650950
_cell_formula_units_Z   1
loop_
 _symmetry_equiv_pos_site_id
 _symmetry_equiv_pos_as_xyz
  1  'x, y, z'
loop_
 _atom_site_type_symbol
 _atom_site_label
 _atom_site_symmetry_multiplicity
 _atom_site_fract_x
 _atom_site_fract_y
 _atom_site_fract_z
 _atom_site_occupancy
 _atom_site_charge
Zn  Zn1  1  0.36875000  0.18299000  0.00013000  1.0 0.6431073309
Zn  Zn2  1  0.63125000  0.81701000  0.00013000  1.0 0.6431073309
Zn  Zn3  1  0.63125000  0.18299000  0.99987000  1.0 0.6431073309
Zn  Zn4  1  0.36875000  0.81701000  0.99987000  1.0 0.6431073309
Zn  Zn5  1  0.00013000  0.36875000  0.18299000  1.0 0.6431073309
Zn  Zn6  1  0.00013000  0.63125000  0.81701000  1.0 0.6431073309
Zn  Zn7  1  0.99987000  0.63125000  0.18299000  1.0 0.6431073309
Zn  Zn8  1  0.99987000  0.36875000  0.81701000  1.0 0.6431073309
Zn  Zn9  1  0.18299000  0.00013000  0.36875000  1.0 0.6431073309
Zn  Zn10  1  0.81701000  0.00013000  0.63125000  1.0 0.6431073309
Zn  Zn11  1  0.18299000  0.99987000  0.63125000  1.0 0.6431073309
Zn  Zn12  1  0.81701000  0.99987000  0.36875000  1.0 0.6431073309
Zn  Zn13  1  0.18299000  0.36875000  0.00013000  1.0 0.6431073309
Zn  Zn14  1  0.81701000  0.63125000  0.00013000  1.0 0.6431073309
Zn  Zn15  1  0.18299000  0.63125000  0.99987000  1.0 0.6431073309
Zn  Zn16  1  0.81701000  0.36875000  0.99987000  1.0 0.6431073309
Zn  Zn17  1  0.36875000  0.00013000  0.18299000  1.0 0.6431073309
Zn  Zn18  1  0.63125000  0.00013000  0.81701000  1.0 0.6431073309
Zn  Zn19  1  0.63125000  0.99987000  0.18299000  1.0 0.6431073309
Zn  Zn20  1  0.36875000  0.99987000  0.81701000  1.0 0.6431073309
Zn  Zn21  1  0.00013000  0.18299000  0.36875000  1.0 0.6431073309
Zn  Zn22  1  0.00013000  0.81701000  0.63125000  1.0 0.6431073309
Zn  Zn23  1  0.99987000  0.18299000  0.63125000  1.0 0.6431073309
Zn  Zn24  1  0.99987000  0.81701000  0.36875000  1.0 0.6431073309
H  H1  1  0.39760000  0.32074000  0.99057000  0.95 0.0929015662
H  H2  1  0.60240000  0.67926000  0.99057000  0.95 0.0929015662
H  H3  1  0.60240000  0.32074000  0.00943000  0.95 0.0929015662
H  H4  1  0.39760000  0.67926000  0.00943000  0.95 0.0929015662
H  H5  1  0.99057000  0.39760000  0.32074000  0.95 0.0929015662
H  H6  1  0.99057000  0.60240000  0.67926000  0.95 0.0929015662
H  H7  1  0.00943000  0.60240000  0.32074000  0.95 0.0929015662
H  H8  1  0.00943000  0.39760000  0.67926000  0.95 0.0929015662
H  H9  1  0.32074000  0.99057000  0.39760000  0.95 0.0929015662
H  H10  1  0.67926000  0.99057000  0.60240000  0.95 0.0929015662
H  H11  1  0.32074000  0.00943000  0.60240000  0.95 0.0929015662
H  H12  1  0.67926000  0.00943000  0.39760000  0.95 0.0929015662
H  H13  1  0.32074000  0.39760000  0.99057000  0.95 0.0929015662
H  H14  1  0.67926000  0.60240000  0.99057000  0.95 0.0929015662
H  H15  1  0.32074000  0.60240000  0.00943000  0.95 0.0929015662
H  H16  1  0.67926000  0.39760000  0.00943000  0.95 0.0929015662
H  H17  1  0.39760000  0.99057000  0.32074000  0.95 0.0929015662
H  H18  1  0.60240000  0.99057000  0.67926000  0.95 0.0929015662
H  H19  1  0.60240000  0.00943000  0.32074000  0.95 0.0929015662
H  H20  1  0.39760000  0.00943000  0.67926000  0.95 0.0929015662
H  H21  1  0.99057000  0.32074000  0.39760000  0.95 0.0929015662
H  H22  1  0.99057000  0.67926000  0.60240000  0.95 0.0929015662
H  H23  1  0.00943000  0.32074000  0.60240000  0.95 0.0929015662
H  H24  1  0.00943000  0.67926000  0.39760000  0.95 0.0929015662
H  H25  1  0.39760000  0.26520000  0.11403000  1.0 0.1468803842
H  H26  1  0.60240000  0.73480000  0.11403000  1.0 0.1468803842
H  H27  1  0.60240000  0.26520000  0.88597000  1.0 0.1468803842
H  H28  1  0.39760000  0.73480000  0.88597000  1.0 0.1468803842
H  H29  1  0.11403000  0.39760000  0.26520000  1.0 0.1468803842
H  H30  1  0.11403000  0.60240000  0.73480000  1.0 0.1468803842
H  H31  1  0.88597000  0.60240000  0.26520000  1.0 0.1468803842
H  H32  1  0.88597000  0.39760000  0.73480000  1.0 0.1468803842
H  H33  1  0.26520000  0.11403000  0.39760000  1.0 0.1468803842
H  H34  1  0.73480000  0.11403000  0.60240000  1.0 0.1468803842
H  H35  1  0.26520000  0.88597000  0.60240000  1.0 0.1468803842
H  H36  1  0.73480000  0.88597000  0.39760000  1.0 0.1468803842
H  H37  1  0.26520000  0.39760000  0.11403000  1.0 0.1468803842
H  H38  1  0.73480000  0.60240000  0.11403000  1.0 0.1468803842
H  H39  1  0.26520000  0.60240000  0.88597000  1.0 0.1468803842
H  H40  1  0.73480000  0.39760000  0.88597000  1.0 0.1468803842
H  H41  1  0.39760000  0.11403000  0.26520000  1.0 0.1468803842
H  H42  1  0.60240000  0.11403000  0.73480000  1.0 0.1468803842
H  H43  1  0.60240000  0.88597000  0.26520000  1.0 0.1468803842
H  H44  1  0.39760000  0.88597000  0.73480000  1.0 0.1468803842
H  H45  1  0.11403000  0.26520000  0.39760000  1.0 0.1468803842
H  H46  1  0.11403000  0.73480000  0.60240000  1.0 0.1468803842
H  H47  1  0.88597000  0.26520000  0.60240000  1.0 0.1468803842
H  H48  1  0.88597000  0.73480000  0.39760000  1.0 0.1468803842
H  H49  1  0.39904000  0.10687000  0.89313000  1.0 0.1172938103
H  H50  1  0.60096000  0.89313000  0.89313000  1.0 0.1172938103
H  H51  1  0.60096000  0.10687000  0.10687000  1.0 0.1172938103
H  H52  1  0.39904000  0.89313000  0.10687000  1.0 0.1172938103
H  H53  1  0.89313000  0.39904000  0.10687000  1.0 0.1172938103
H  H54  1  0.89313000  0.60096000  0.89313000  1.0 0.1172938103
H  H55  1  0.10687000  0.60096000  0.10687000  1.0 0.1172938103
H  H56  1  0.10687000  0.39904000  0.89313000  1.0 0.1172938103
H  H57  1  0.10687000  0.89313000  0.39904000  1.0 0.1172938103
H  H58  1  0.89313000  0.89313000  0.60096000  1.0 0.1172938103
H  H59  1  0.10687000  0.10687000  0.60096000  1.0 0.1172938103
H  H60  1  0.89313000  0.10687000  0.39904000  1.0 0.1172938103
H  H61  1  0.36655000  0.06649000  0.06649000  1.0 0.1118464125
H  H62  1  0.63345000  0.93351000  0.06649000  1.0 0.1118464125
H  H63  1  0.63345000  0.06649000  0.93351000  1.0 0.1118464125
H  H64  1  0.36655000  0.93351000  0.93351000  1.0 0.1118464125
H  H65  1  0.06649000  0.36655000  0.06649000  1.0 0.1118464125
H  H66  1  0.06649000  0.63345000  0.93351000  1.0 0.1118464125
H  H67  1  0.93351000  0.63345000  0.06649000  1.0 0.1118464125
H  H68  1  0.93351000  0.36655000  0.93351000  1.0 0.1118464125
H  H69  1  0.06649000  0.06649000  0.36655000  1.0 0.1118464125
H  H70  1  0.93351000  0.06649000  0.63345000  1.0 0.1118464125
H  H71  1  0.06649000  0.93351000  0.63345000  1.0 0.1118464125
H  H72  1  0.93351000  0.93351000  0.36655000  1.0 0.1118464125
H  H73  1  0.24539000  0.24539000  0.99470000  1.0 0.1172938103
H  H74  1  0.75461000  0.75461000  0.99470000  1.0 0.1172938103
H  H75  1  0.75461000  0.24539000  0.00530000  1.0 0.1172938103
H  H76  1  0.24539000  0.75461000  0.00530000  1.0 0.1172938103
H  H77  1  0.99470000  0.24539000  0.24539000  1.0 0.1172938103
H  H78  1  0.99470000  0.75461000  0.75461000  1.0 0.1172938103
H  H79  1  0.00530000  0.75461000  0.24539000  1.0 0.1172938103
H  H80  1  0.00530000  0.24539000  0.75461000  1.0 0.1172938103
H  H81  1  0.24539000  0.99470000  0.24539000  1.0 0.1172938103
H  H82  1  0.75461000  0.99470000  0.75461000  1.0 0.1172938103
H  H83  1  0.24539000  0.00530000  0.75461000  1.0 0.1172938103
H  H84  1  0.75461000  0.00530000  0.24539000  1.0 0.1172938103
H  H85  1  0.44367000  0.28740000  0.00092000  0.05 0.1010571718
H  H86  1  0.55633000  0.71260000  0.00092000  0.05 0.1010571718
H  H87  1  0.55633000  0.28740000  0.99908000  0.05 0.1010571718
H  H88  1  0.44367000  0.71260000  0.99908000  0.05 0.1010571718
H  H89  1  0.00092000  0.44367000  0.28740000  0.05 0.1010571718
H  H90  1  0.00092000  0.55633000  0.71260000  0.05 0.1010571718
H  H91  1  0.99908000  0.55633000  0.28740000  0.05 0.1010571718
H  H92  1  0.99908000  0.44367000  0.71260000  0.05 0.1010571718
H  H93  1  0.28740000  0.00092000  0.44367000  0.05 0.1010571718
H  H94  1  0.71260000  0.00092000  0.55633000  0.05 0.1010571718
H  H95  1  0.28740000  0.99908000  0.55633000  0.05 0.1010571718
H  H96  1  0.71260000  0.99908000  0.44367000  0.05 0.1010571718
H  H97  1  0.28740000  0.44367000  0.00092000  0.05 0.1010571718
H  H98  1  0.71260000  0.55633000  0.00092000  0.05 0.1010571718
H  H99  1  0.28740000  0.55633000  0.99908000  0.05 0.1010571718
H  H100  1  0.71260000  0.44367000  0.99908000  0.05 0.1010571718
H  H101  1  0.44367000  0.00092000  0.28740000  0.05 0.1010571718
H  H102  1  0.55633000  0.00092000  0.71260000  0.05 0.1010571718
H  H103  1  0.55633000  0.99908000  0.28740000  0.05 0.1010571718
H  H104  1  0.44367000  0.99908000  0.71260000  0.05 0.1010571718
H  H105  1  0.00092000  0.28740000  0.44367000  0.05 0.1010571718
H  H106  1  0.00092000  0.71260000  0.55633000  0.05 0.1010571718
H  H107  1  0.99908000  0.28740000  0.55633000  0.05 0.1010571718
H  H108  1  0.99908000  0.71260000  0.44367000  0.05 0.1010571718
H  H109  1  0.25115000  0.09809000  0.98161000  0.45 0.1010571718
H  H110  1  0.74885000  0.90191000  0.98161000  0.45 0.1010571718
H  H111  1  0.74885000  0.09809000  0.01839000  0.45 0.1010571718
H  H112  1  0.25115000  0.90191000  0.01839000  0.45 0.1010571718
H  H113  1  0.98161000  0.25115000  0.09809000  0.45 0.1010571718
H  H114  1  0.98161000  0.74885000  0.90191000  0.45 0.1010571718
H  H115  1  0.01839000  0.74885000  0.09809000  0.45 0.1010571718
H  H116  1  0.01839000  0.25115000  0.90191000  0.45 0.1010571718
H  H117  1  0.09809000  0.98161000  0.25115000  0.45 0.1010571718
H  H118  1  0.90191000  0.98161000  0.74885000  0.45 0.1010571718
H  H119  1  0.09809000  0.01839000  0.74885000  0.45 0.1010571718
H  H120  1  0.90191000  0.01839000  0.25115000  0.45 0.1010571718
H  H121  1  0.09809000  0.25115000  0.98161000  0.45 0.1010571718
H  H122  1  0.90191000  0.74885000  0.98161000  0.45 0.1010571718
H  H123  1  0.09809000  0.74885000  0.01839000  0.45 0.1010571718
H  H124  1  0.90191000  0.25115000  0.01839000  0.45 0.1010571718
H  H125  1  0.25115000  0.98161000  0.09809000  0.45 0.1010571718
H  H126  1  0.74885000  0.98161000  0.90191000  0.45 0.1010571718
H  H127  1  0.74885000  0.01839000  0.09809000  0.45 0.1010571718
H  H128  1  0.25115000  0.01839000  0.90191000  0.45 0.1010571718
H  H129  1  0.98161000  0.09809000  0.25115000  0.45 0.1010571718
H  H130  1  0.98161000  0.90191000  0.74885000  0.45 0.1010571718
H  H131  1  0.01839000  0.09809000  0.74885000  0.45 0.1010571718
H  H132  1  0.01839000  0.90191000  0.25115000  0.45 0.1010571718
H  H133  1  0.44460000  0.22429000  0.11397000  0.54 0.1010571718
H  H134  1  0.55226000  0.24203000  0.11773000  0.54 0.1468803842
H  H135  1  0.55540000  0.77571000  0.11397000  0.54 0.1010571718
H  H136  1  0.44774000  0.75797000  0.11773000  0.54 0.1468803842
H  H137  1  0.55540000  0.22429000  0.88603000  0.54 0.1010571718
H  H138  1  0.44774000  0.24203000  0.88227000  0.54 0.1468803842
H  H139  1  0.44460000  0.77571000  0.88603000  0.54 0.1010571718
H  H140  1  0.55226000  0.75797000  0.88227000  0.54 0.1468803842
H  H141  1  0.11397000  0.44460000  0.22429000  0.54 0.1010571718
H  H142  1  0.11773000  0.55226000  0.24203000  0.54 0.1468803842
H  H143  1  0.11397000  0.55540000  0.77571000  0.54 0.1010571718
H  H144  1  0.11773000  0.44774000  0.75797000  0.54 0.1468803842
H  H145  1  0.88603000  0.55540000  0.22429000  0.54 0.1010571718
H  H146  1  0.88227000  0.44774000  0.24203000  0.54 0.1468803842
H  H147  1  0.88603000  0.44460000  0.77571000  0.54 0.1010571718
H  H148  1  0.88227000  0.55226000  0.75797000  0.54 0.1468803842
H  H149  1  0.22429000  0.11397000  0.44460000  0.54 0.1010571718
H  H150  1  0.24203000  0.11773000  0.55226000  0.54 0.1468803842
H  H151  1  0.77571000  0.11397000  0.55540000  0.54 0.1010571718
H  H152  1  0.75797000  0.11773000  0.44774000  0.54 0.1468803842
H  H153  1  0.22429000  0.88603000  0.55540000  0.54 0.1010571718
H  H154  1  0.24203000  0.88227000  0.44774000  0.54 0.1468803842
H  H155  1  0.77571000  0.88603000  0.44460000  0.54 0.1010571718
H  H156  1  0.75797000  0.88227000  0.55226000  0.54 0.1468803842
H  H157  1  0.22429000  0.44460000  0.11397000  0.54 0.1010571718
H  H158  1  0.24203000  0.55226000  0.11773000  0.54 0.1468803842
H  H159  1  0.77571000  0.55540000  0.11397000  0.54 0.1010571718
H  H160  1  0.75797000  0.44774000  0.11773000  0.54 0.1468803842
H  H161  1  0.22429000  0.55540000  0.88603000  0.54 0.1010571718
H  H162  1  0.24203000  0.44774000  0.88227000  0.54 0.1468803842
H  H163  1  0.77571000  0.44460000  0.88603000  0.54 0.1010571718
H  H164  1  0.75797000  0.55226000  0.88227000  0.54 0.1468803842
H  H165  1  0.44460000  0.11397000  0.22429000  0.54 0.1010571718
H  H166  1  0.55226000  0.11773000  0.24203000  0.54 0.1468803842
H  H167  1  0.55540000  0.11397000  0.77571000  0.54 0.1010571718
H  H168  1  0.44774000  0.11773000  0.75797000  0.54 0.1468803842
H  H169  1  0.55540000  0.88603000  0.22429000  0.54 0.1010571718
H  H170  1  0.44774000  0.88227000  0.24203000  0.54 0.1468803842
H  H171  1  0.44460000  0.88603000  0.77571000  0.54 0.1010571718
H  H172  1  0.55226000  0.88227000  0.75797000  0.54 0.1468803842
H  H173  1  0.11397000  0.22429000  0.44460000  0.54 0.1010571718
H  H174  1  0.11773000  0.24203000  0.55226000  0.54 0.1468803842
H  H175  1  0.11397000  0.77571000  0.55540000  0.54 0.1010571718
H  H176  1  0.11773000  0.75797000  0.44774000  0.54 0.1468803842
H  H177  1  0.88603000  0.22429000  0.55540000  0.54 0.1010571718
H  H178  1  0.88227000  0.24203000  0.44774000  0.54 0.1468803842
H  H179  1  0.88603000  0.77571000  0.44460000  0.54 0.1010571718
H  H180  1  0.88227000  0.75797000  0.55226000  0.54 0.1468803842
H  H181  1  0.23766000  0.12970000  0.02456000  0.55 0.1118464125
H  H182  1  0.76234000  0.87030000  0.02456000  0.55 0.1118464125
H  H183  1  0.76234000  0.12970000  0.97544000  0.55 0.1118464125
H  H184  1  0.23766000  0.87030000  0.97544000  0.55 0.1118464125
H  H185  1  0.02456000  0.23766000  0.12970000  0.55 0.1118464125
H  H186  1  0.02456000  0.76234000  0.87030000  0.55 0.1118464125
H  H187  1  0.97544000  0.76234000  0.12970000  0.55 0.1118464125
H  H188  1  0.97544000  0.23766000  0.87030000  0.55 0.1118464125
H  H189  1  0.12970000  0.02456000  0.23766000  0.55 0.1118464125
H  H190  1  0.87030000  0.02456000  0.76234000  0.55 0.1118464125
H  H191  1  0.12970000  0.97544000  0.76234000  0.55 0.1118464125
H  H192  1  0.87030000  0.97544000  0.23766000  0.55 0.1118464125
H  H193  1  0.12970000  0.23766000  0.02456000  0.55 0.1118464125
H  H194  1  0.87030000  0.76234000  0.02456000  0.55 0.1118464125
H  H195  1  0.12970000  0.76234000  0.97544000  0.55 0.1118464125
H  H196  1  0.87030000  0.23766000  0.97544000  0.55 0.1118464125
H  H197  1  0.23766000  0.02456000  0.12970000  0.55 0.1118464125
H  H198  1  0.76234000  0.02456000  0.87030000  0.55 0.1118464125
H  H199  1  0.76234000  0.97544000  0.12970000  0.55 0.1118464125
H  H200  1  0.23766000  0.97544000  0.87030000  0.55 0.1118464125
H  H201  1  0.02456000  0.12970000  0.23766000  0.55 0.1118464125
H  H202  1  0.02456000  0.87030000  0.76234000  0.55 0.1118464125
H  H203  1  0.97544000  0.12970000  0.76234000  0.55 0.1118464125
H  H204  1  0.97544000  0.87030000  0.23766000  0.55 0.1118464125
C  C1  1  0.39160000  0.17520000  0.13170000  1.0 0.1118464125
C  C2  1  0.40340000  0.23560000  0.14200000  1.0 -0.2260740016
C  C3  1  0.42490000  0.24490000  0.19850000  1.0 -0.0041821287
C  C4  1  0.28100000  0.09020000  0.95470000  1.0 0.0576686209
C  C5  1  0.35730000  0.31460000  0.99490000  1.0 0.0300202729
C  C6  1  0.60840000  0.82480000  0.13170000  1.0 0.1118464125
C  C7  1  0.59660000  0.76440000  0.14200000  1.0 -0.2260740016
C  C8  1  0.57510000  0.75510000  0.19850000  1.0 -0.0041821287
C  C9  1  0.71900000  0.90980000  0.95470000  1.0 0.0576686209
C  C10  1  0.64270000  0.68540000  0.99490000  1.0 0.0300202729
C  C11  1  0.60840000  0.17520000  0.86830000  1.0 0.1118464125
C  C12  1  0.59660000  0.23560000  0.85800000  1.0 -0.2260740016
C  C13  1  0.57510000  0.24490000  0.80150000  1.0 -0.0041821287
C  C14  1  0.71900000  0.09020000  0.04530000  1.0 0.0576686209
C  C15  1  0.64270000  0.31460000  0.00510000  1.0 0.0300202729
C  C16  1  0.39160000  0.82480000  0.86830000  1.0 0.1118464125
C  C17  1  0.40340000  0.76440000  0.85800000  1.0 -0.2260740016
C  C18  1  0.42490000  0.75510000  0.80150000  1.0 -0.0041821287
C  C19  1  0.28100000  0.90980000  0.04530000  1.0 0.0576686209
C  C20  1  0.35730000  0.68540000  0.00510000  1.0 0.0300202729
C  C21  1  0.13170000  0.39160000  0.17520000  1.0 0.1118464125
C  C22  1  0.14200000  0.40340000  0.23560000  1.0 -0.2260740016
C  C23  1  0.19850000  0.42490000  0.24490000  1.0 -0.0069514965
C  C24  1  0.95470000  0.28100000  0.09020000  1.0 0.0576686209
C  C25  1  0.99490000  0.35730000  0.31460000  1.0 0.0300202729
C  C26  1  0.13170000  0.60840000  0.82480000  1.0 0.1118464125
C  C27  1  0.14200000  0.59660000  0.76440000  1.0 -0.2260740016
C  C28  1  0.19850000  0.57510000  0.75510000  1.0 -0.0041821287
C  C29  1  0.95470000  0.71900000  0.90980000  1.0 0.0576686209
C  C30  1  0.99490000  0.64270000  0.68540000  1.0 0.0300202729
C  C31  1  0.86830000  0.60840000  0.17520000  1.0 0.1118464125
C  C32  1  0.85800000  0.59660000  0.23560000  1.0 -0.2260740016
C  C33  1  0.80150000  0.57510000  0.24490000  1.0 -0.0041821287
C  C34  1  0.04530000  0.71900000  0.09020000  1.0 0.0576686209
C  C35  1  0.00510000  0.64270000  0.31460000  1.0 0.0300202729
C  C36  1  0.86830000  0.39160000  0.82480000  1.0 0.1118464125
C  C37  1  0.85800000  0.40340000  0.76440000  1.0 -0.2260740016
C  C38  1  0.80150000  0.42490000  0.75510000  1.0 -0.0041821287
C  C39  1  0.04530000  0.28100000  0.90980000  1.0 0.0576686209
C  C40  1  0.00510000  0.35730000  0.68540000  1.0 0.0300202729
C  C41  1  0.17520000  0.13170000  0.39160000  1.0 0.1118464125
C  C42  1  0.23560000  0.14200000  0.40340000  1.0 -0.2260740016
C  C43  1  0.24490000  0.19850000  0.42490000  1.0 -0.0041821287
C  C44  1  0.09020000  0.95470000  0.28100000  1.0 0.0576686209
C  C45  1  0.31460000  0.99490000  0.35730000  1.0 0.0300202729
C  C46  1  0.82480000  0.13170000  0.60840000  1.0 0.1118464125
C  C47  1  0.76440000  0.14200000  0.59660000  1.0 -0.2260740016
C  C48  1  0.75510000  0.19850000  0.57510000  1.0 -0.0041821287
C  C49  1  0.90980000  0.95470000  0.71900000  1.0 0.0576686209
C  C50  1  0.68540000  0.99490000  0.64270000  1.0 0.0300202729
C  C51  1  0.17520000  0.86830000  0.60840000  1.0 0.1118464125
C  C52  1  0.23560000  0.85800000  0.59660000  1.0 -0.2260740016
C  C53  1  0.24490000  0.80150000  0.57510000  1.0 -0.0069514965
C  C54  1  0.09020000  0.04530000  0.71900000  1.0 0.0576686209
C  C55  1  0.31460000  0.00510000  0.64270000  1.0 0.0300202729
C  C56  1  0.82480000  0.86830000  0.39160000  1.0 0.1118464125
C  C57  1  0.76440000  0.85800000  0.40340000  1.0 -0.2260740016
C  C58  1  0.75510000  0.80150000  0.42490000  1.0 -0.0041821287
C  C59  1  0.90980000  0.04530000  0.28100000  1.0 0.0576686209
C  C60  1  0.68540000  0.00510000  0.35730000  1.0 0.0300202729
C  C61  1  0.17520000  0.39160000  0.13170000  1.0 0.1118464125
C  C62  1  0.23560000  0.40340000  0.14200000  1.0 -0.2260740016
C  C63  1  0.24490000  0.42490000  0.19850000  1.0 -0.0041821287
C  C64  1  0.09020000  0.28100000  0.95470000  1.0 0.0576686209
C  C65  1  0.31460000  0.35730000  0.99490000  1.0 0.0300202729
C  C66  1  0.82480000  0.60840000  0.13170000  1.0 0.1118464125
C  C67  1  0.76440000  0.59660000  0.14200000  1.0 -0.2260740016
C  C68  1  0.75510000  0.57510000  0.19850000  1.0 -0.0041821287
C  C69  1  0.90980000  0.71900000  0.95470000  1.0 0.0576686209
C  C70  1  0.68540000  0.64270000  0.99490000  1.0 0.0300202729
C  C71  1  0.17520000  0.60840000  0.86830000  1.0 0.1118464125
C  C72  1  0.23560000  0.59660000  0.85800000  1.0 -0.2260740016
C  C73  1  0.24490000  0.57510000  0.80150000  1.0 -0.0069514965
C  C74  1  0.09020000  0.71900000  0.04530000  1.0 0.0576686209
C  C75  1  0.31460000  0.64270000  0.00510000  1.0 0.0300202729
C  C76  1  0.82480000  0.39160000  0.86830000  1.0 0.1118464125
C  C77  1  0.76440000  0.40340000  0.85800000  1.0 -0.2260740016
C  C78  1  0.75510000  0.42490000  0.80150000  1.0 -0.0041821287
C  C79  1  0.90980000  0.28100000  0.04530000  1.0 0.0576686209
C  C80  1  0.68540000  0.35730000  0.00510000  1.0 0.0300202729
C  C81  1  0.39160000  0.13170000  0.17520000  1.0 0.1118464125
C  C82  1  0.40340000  0.14200000  0.23560000  1.0 -0.2260740016
C  C83  1  0.42490000  0.19850000  0.24490000  1.0 -0.0041821287
C  C84  1  0.28100000  0.95470000  0.09020000  1.0 0.0576686209
C  C85  1  0.35730000  0.99490000  0.31460000  1.0 0.0300202729
C  C86  1  0.60840000  0.13170000  0.82480000  1.0 0.1118464125
C  C87  1  0.59660000  0.14200000  0.76440000  1.0 -0.2260740016
C  C88  1  0.57510000  0.19850000  0.75510000  1.0 -0.0041821287
C  C89  1  0.71900000  0.95470000  0.90980000  1.0 0.0576686209
C  C90  1  0.64270000  0.99490000  0.68540000  1.0 0.0300202729
C  C91  1  0.60840000  0.86830000  0.17520000  1.0 0.1118464125
C  C92  1  0.59660000  0.85800000  0.23560000  1.0 -0.2260740016
C  C93  1  0.57510000  0.80150000  0.24490000  1.0 -0.0041821287
C  C94  1  0.71900000  0.04530000  0.09020000  1.0 0.0576686209
C  C95  1  0.64270000  0.00510000  0.31460000  1.0 0.0300202729
C  C96  1  0.39160000  0.86830000  0.82480000  1.0 0.1118464125
C  C97  1  0.40340000  0.85800000  0.76440000  1.0 -0.2260740016
C  C98  1  0.42490000  0.80150000  0.75510000  1.0 -0.0041821287
C  C99  1  0.28100000  0.04530000  0.90980000  1.0 0.0576686209
C  C100  1  0.35730000  0.00510000  0.68540000  1.0 0.0300202729
C  C101  1  0.13170000  0.17520000  0.39160000  1.0 0.1118464125
C  C102  1  0.14200000  0.23560000  0.40340000  1.0 -0.2260740016
C  C103  1  0.19850000  0.24490000  0.42490000  1.0 -0.0041821287
C  C104  1  0.95470000  0.09020000  0.28100000  1.0 0.0576686209
C  C105  1  0.99490000  0.31460000  0.35730000  1.0 0.0300202729
C  C106  1  0.13170000  0.82480000  0.60840000  1.0 0.1118464125
C  C107  1  0.14200000  0.76440000  0.59660000  1.0 -0.2260740016
C  C108  1  0.19850000  0.75510000  0.57510000  1.0 -0.0069514965
C  C109  1  0.95470000  0.90980000  0.71900000  1.0 0.0576686209
C  C110  1  0.99490000  0.68540000  0.64270000  1.0 0.0300202729
C  C111  1  0.86830000  0.17520000  0.60840000  1.0 0.1118464125
C  C112  1  0.85800000  0.23560000  0.59660000  1.0 -0.2260740016
C  C113  1  0.80150000  0.24490000  0.57510000  1.0 -0.0041821287
C  C114  1  0.04530000  0.09020000  0.71900000  1.0 0.0576686209
C  C115  1  0.00510000  0.31460000  0.64270000  1.0 0.0300202729
C  C116  1  0.86830000  0.82480000  0.39160000  1.0 0.1118464125
C  C117  1  0.85800000  0.76440000  0.40340000  1.0 -0.2260740016
C  C118  1  0.80150000  0.75510000  0.42490000  1.0 -0.0041821287
C  C119  1  0.04530000  0.90980000  0.28100000  1.0 0.0576686209
C  C120  1  0.00510000  0.68540000  0.35730000  1.0 0.0300202729
C  C121  1  0.36210000  0.09430000  0.90570000  1.0 0.1118464125
C  C122  1  0.63790000  0.90570000  0.90570000  1.0 0.1118464125
C  C123  1  0.63790000  0.09430000  0.09430000  1.0 0.1118464125
C  C124  1  0.36210000  0.90570000  0.09430000  1.0 0.1118464125
C  C125  1  0.90570000  0.36210000  0.09430000  1.0 0.1118464125
C  C126  1  0.90570000  0.63790000  0.90570000  1.0 0.1118464125
C  C127  1  0.09430000  0.63790000  0.09430000  1.0 0.1118464125
C  C128  1  0.09430000  0.36210000  0.90570000  1.0 0.1118464125
C  C129  1  0.09430000  0.90570000  0.36210000  1.0 0.1118464125
C  C130  1  0.90570000  0.90570000  0.63790000  1.0 0.1118464125
C  C131  1  0.09430000  0.09430000  0.63790000  1.0 0.1118464125
C  C132  1  0.90570000  0.09430000  0.36210000  1.0 0.1118464125
C  C133  1  0.36790000  0.09550000  0.09550000  1.0 0.207922636
C  C134  1  0.63210000  0.90450000  0.09550000  1.0 0.207922636
C  C135  1  0.63210000  0.09550000  0.90450000  1.0 0.207922636
C  C136  1  0.36790000  0.90450000  0.90450000  1.0 0.207922636
C  C137  1  0.09550000  0.36790000  0.09550000  1.0 0.207922636
C  C138  1  0.09550000  0.63210000  0.90450000  1.0 0.207922636
C  C139  1  0.90450000  0.63210000  0.09550000  1.0 0.207922636
C  C140  1  0.90450000  0.36790000  0.90450000  1.0 0.207922636
C  C141  1  0.09550000  0.09550000  0.36790000  1.0 0.207922636
C  C142  1  0.90450000  0.09550000  0.63210000  1.0 0.207922636
C  C143  1  0.09550000  0.90450000  0.63210000  1.0 0.207922636
C  C144  1  0.90450000  0.90450000  0.36790000  1.0 0.207922636
C  C145  1  0.27420000  0.27420000  0.99910000  1.0 0.1468803842
C  C146  1  0.72580000  0.72580000  0.99910000  1.0 0.1468803842
C  C147  1  0.72580000  0.27420000  0.00090000  1.0 0.1468803842
C  C148  1  0.27420000  0.72580000  0.00090000  1.0 0.1468803842
C  C149  1  0.99910000  0.27420000  0.27420000  1.0 0.1468803842
C  C150  1  0.99910000  0.72580000  0.72580000  1.0 0.1468803842
C  C151  1  0.00090000  0.72580000  0.27420000  1.0 0.1468803842
C  C152  1  0.00090000  0.27420000  0.72580000  1.0 0.1468803842
C  C153  1  0.27420000  0.99910000  0.27420000  1.0 0.1468803842
C  C154  1  0.72580000  0.99910000  0.72580000  1.0 0.1468803842
C  C155  1  0.27420000  0.00090000  0.72580000  1.0 0.1468803842
C  C156  1  0.72580000  0.00090000  0.27420000  1.0 0.1468803842
C  C157  1  0.50000000  0.18220000  0.00000000  1.0 0.3292774519
C  C158  1  0.50000000  0.81780000  0.00000000  1.0 0.3292774519
C  C159  1  0.00000000  0.50000000  0.18220000  1.0 0.3292774519
C  C160  1  0.00000000  0.50000000  0.81780000  1.0 0.3292774519
C  C161  1  0.18220000  0.00000000  0.50000000  1.0 0.3292774519
C  C162  1  0.81780000  0.00000000  0.50000000  1.0 0.3292774519
C  C163  1  0.18220000  0.50000000  0.00000000  1.0 0.3292774519
C  C164  1  0.81780000  0.50000000  0.00000000  1.0 0.3292774519
C  C165  1  0.50000000  0.00000000  0.18220000  1.0 0.3292774519
C  C166  1  0.50000000  0.00000000  0.81780000  1.0 0.3292774519
C  C167  1  0.00000000  0.18220000  0.50000000  1.0 0.3292774519
C  C168  1  0.00000000  0.81780000  0.50000000  1.0 0.3292774519
C  C169  1  0.48900000  0.41200000  0.98300000  0.02 -0.0069514965
C  C170  1  0.51100000  0.58800000  0.98300000  0.02 -0.0069514965
C  C171  1  0.51100000  0.41200000  0.01700000  0.02 -0.0069514965
C  C172  1  0.48900000  0.58800000  0.01700000  0.02 -0.0069514965
C  C173  1  0.98300000  0.48900000  0.41200000  0.02 -0.0069514965
C  C174  1  0.98300000  0.51100000  0.58800000  0.02 -0.0069514965
C  C175  1  0.01700000  0.51100000  0.41200000  0.02 -0.0069514965
C  C176  1  0.01700000  0.48900000  0.58800000  0.02 -0.0069514965
C  C177  1  0.41200000  0.98300000  0.48900000  0.02 -0.0069514965
C  C178  1  0.58800000  0.98300000  0.51100000  0.02 -0.0069514965
C  C179  1  0.41200000  0.01700000  0.51100000  0.02 -0.0069514965
C  C180  1  0.58800000  0.01700000  0.48900000  0.02 -0.0069514965
C  C181  1  0.41200000  0.48900000  0.98300000  0.02 -0.0069514965
C  C182  1  0.58800000  0.51100000  0.98300000  0.02 -0.0069514965
C  C183  1  0.41200000  0.51100000  0.01700000  0.02 -0.0069514965
C  C184  1  0.58800000  0.48900000  0.01700000  0.02 -0.0069514965
C  C185  1  0.48900000  0.98300000  0.41200000  0.02 -0.0069514965
C  C186  1  0.51100000  0.98300000  0.58800000  0.02 -0.0069514965
C  C187  1  0.51100000  0.01700000  0.41200000  0.02 -0.0069514965
C  C188  1  0.48900000  0.01700000  0.58800000  0.02 -0.0069514965
C  C189  1  0.98300000  0.41200000  0.48900000  0.02 -0.0069514965
C  C190  1  0.98300000  0.58800000  0.51100000  0.02 -0.0069514965
C  C191  1  0.01700000  0.41200000  0.51100000  0.02 -0.0069514965
C  C192  1  0.01700000  0.58800000  0.48900000  0.02 -0.0069514965
C  C193  1  0.43900000  0.37700000  0.98700000  0.05 -0.0289820869
C  C194  1  0.41900000  0.31900000  0.99550000  0.05 -0.2211877289
C  C195  1  0.56100000  0.62300000  0.98700000  0.05 -0.0289820869
C  C196  1  0.58100000  0.68100000  0.99550000  0.05 -0.2211877289
C  C197  1  0.56100000  0.37700000  0.01300000  0.05 -0.0289820869
C  C198  1  0.58100000  0.31900000  0.00450000  0.05 -0.2211877289
C  C199  1  0.43900000  0.62300000  0.01300000  0.05 -0.0289820869
C  C200  1  0.41900000  0.68100000  0.00450000  0.05 -0.2211877289
C  C201  1  0.98700000  0.43900000  0.37700000  0.05 -0.0289820869
C  C202  1  0.99550000  0.41900000  0.31900000  0.05 -0.2211877289
C  C203  1  0.98700000  0.56100000  0.62300000  0.05 -0.0289820869
C  C204  1  0.99550000  0.58100000  0.68100000  0.05 -0.2211877289
C  C205  1  0.01300000  0.56100000  0.37700000  0.05 -0.0289820869
C  C206  1  0.00450000  0.58100000  0.31900000  0.05 -0.2211877289
C  C207  1  0.01300000  0.43900000  0.62300000  0.05 -0.0289820869
C  C208  1  0.00450000  0.41900000  0.68100000  0.05 -0.2211877289
C  C209  1  0.37700000  0.98700000  0.43900000  0.05 -0.0289820869
C  C210  1  0.31900000  0.99550000  0.41900000  0.05 -0.2211877289
C  C211  1  0.62300000  0.98700000  0.56100000  0.05 -0.0289820869
C  C212  1  0.68100000  0.99550000  0.58100000  0.05 -0.2211877289
C  C213  1  0.37700000  0.01300000  0.56100000  0.05 -0.0289820869
C  C214  1  0.31900000  0.00450000  0.58100000  0.05 -0.2211877289
C  C215  1  0.62300000  0.01300000  0.43900000  0.05 -0.0289820869
C  C216  1  0.68100000  0.00450000  0.41900000  0.05 -0.2211877289
C  C217  1  0.37700000  0.43900000  0.98700000  0.05 -0.0289820869
C  C218  1  0.31900000  0.41900000  0.99550000  0.05 -0.2211877289
C  C219  1  0.62300000  0.56100000  0.98700000  0.05 -0.0289820869
C  C220  1  0.68100000  0.58100000  0.99550000  0.05 -0.2211877289
C  C221  1  0.37700000  0.56100000  0.01300000  0.05 -0.0289820869
C  C222  1  0.31900000  0.58100000  0.00450000  0.05 -0.2211877289
C  C223  1  0.62300000  0.43900000  0.01300000  0.05 -0.0289820869
C  C224  1  0.68100000  0.41900000  0.00450000  0.05 -0.2211877289
C  C225  1  0.43900000  0.98700000  0.37700000  0.05 -0.0289820869
C  C226  1  0.41900000  0.99550000  0.31900000  0.05 -0.2211877289
C  C227  1  0.56100000  0.98700000  0.62300000  0.05 -0.0289820869
C  C228  1  0.58100000  0.99550000  0.68100000  0.05 -0.2211877289
C  C229  1  0.56100000  0.01300000  0.37700000  0.05 -0.0289820869
C  C230  1  0.58100000  0.00450000  0.31900000  0.05 -0.2211877289
C  C231  1  0.43900000  0.01300000  0.62300000  0.05 -0.0289820869
C  C232  1  0.41900000  0.00450000  0.68100000  0.05 -0.2211877289
C  C233  1  0.98700000  0.37700000  0.43900000  0.05 -0.0289820869
C  C234  1  0.99550000  0.31900000  0.41900000  0.05 -0.2211877289
C  C235  1  0.98700000  0.62300000  0.56100000  0.05 -0.0289820869
C  C236  1  0.99550000  0.68100000  0.58100000  0.05 -0.2211877289
C  C237  1  0.01300000  0.37700000  0.56100000  0.05 -0.0289820869
C  C238  1  0.00450000  0.31900000  0.58100000  0.05 -0.2211877289
C  C239  1  0.01300000  0.62300000  0.43900000  0.05 -0.0289820869
C  C240  1  0.00450000  0.68100000  0.41900000  0.05 -0.2211877289
C  C241  1  0.47040000  0.21580000  0.08320000  0.54 -0.0413011279
C  C242  1  0.53010000  0.22500000  0.08800000  0.54 -0.2009032277
C  C243  1  0.52960000  0.78420000  0.08320000  0.54 -0.0413011279
C  C244  1  0.46990000  0.77500000  0.08800000  0.54 -0.2009032277
C  C245  1  0.52960000  0.21580000  0.91680000  0.54 -0.0413011279
C  C246  1  0.46990000  0.22500000  0.91200000  0.54 -0.2009032277
C  C247  1  0.47040000  0.78420000  0.91680000  0.54 -0.0413011279
C  C248  1  0.53010000  0.77500000  0.91200000  0.54 -0.2009032277
C  C249  1  0.08320000  0.47040000  0.21580000  0.54 -0.0413011279
C  C250  1  0.08800000  0.53010000  0.22500000  0.54 -0.2009032277
C  C251  1  0.08320000  0.52960000  0.78420000  0.54 -0.0413011279
C  C252  1  0.08800000  0.46990000  0.77500000  0.54 -0.2009032277
C  C253  1  0.91680000  0.52960000  0.21580000  0.54 -0.0413011279
C  C254  1  0.91200000  0.46990000  0.22500000  0.54 -0.2009032277
C  C255  1  0.91680000  0.47040000  0.78420000  0.54 -0.0413011279
C  C256  1  0.91200000  0.53010000  0.77500000  0.54 -0.2009032277
C  C257  1  0.21580000  0.08320000  0.47040000  0.54 -0.0413011279
C  C258  1  0.22500000  0.08800000  0.53010000  0.54 -0.2009032277
C  C259  1  0.78420000  0.08320000  0.52960000  0.54 -0.0413011279
C  C260  1  0.77500000  0.08800000  0.46990000  0.54 -0.2009032277
C  C261  1  0.21580000  0.91680000  0.52960000  0.54 -0.0413011279
C  C262  1  0.22500000  0.91200000  0.46990000  0.54 -0.2009032277
C  C263  1  0.78420000  0.91680000  0.47040000  0.54 -0.0413011279
C  C264  1  0.77500000  0.91200000  0.53010000  0.54 -0.2009032277
C  C265  1  0.21580000  0.47040000  0.08320000  0.54 -0.0413011279
C  C266  1  0.22500000  0.53010000  0.08800000  0.54 -0.2009032277
C  C267  1  0.78420000  0.52960000  0.08320000  0.54 -0.0413011279
C  C268  1  0.77500000  0.46990000  0.08800000  0.54 -0.2009032277
C  C269  1  0.21580000  0.52960000  0.91680000  0.54 -0.0413011279
C  C270  1  0.22500000  0.46990000  0.91200000  0.54 -0.2009032277
C  C271  1  0.78420000  0.47040000  0.91680000  0.54 -0.0413011279
C  C272  1  0.77500000  0.53010000  0.91200000  0.54 -0.2009032277
C  C273  1  0.47040000  0.08320000  0.21580000  0.54 -0.0413011279
C  C274  1  0.53010000  0.08800000  0.22500000  0.54 -0.2009032277
C  C275  1  0.52960000  0.08320000  0.78420000  0.54 -0.0413011279
C  C276  1  0.46990000  0.08800000  0.77500000  0.54 -0.2009032277
C  C277  1  0.52960000  0.91680000  0.21580000  0.54 -0.0413011279
C  C278  1  0.46990000  0.91200000  0.22500000  0.54 -0.2009032277
C  C279  1  0.47040000  0.91680000  0.78420000  0.54 -0.0413011279
C  C280  1  0.53010000  0.91200000  0.77500000  0.54 -0.2009032277
C  C281  1  0.08320000  0.21580000  0.47040000  0.54 -0.0413011279
C  C282  1  0.08800000  0.22500000  0.53010000  0.54 -0.2009032277
C  C283  1  0.08320000  0.78420000  0.52960000  0.54 -0.0413011279
C  C284  1  0.08800000  0.77500000  0.46990000  0.54 -0.2009032277
C  C285  1  0.91680000  0.21580000  0.52960000  0.54 -0.0413011279
C  C286  1  0.91200000  0.22500000  0.46990000  0.54 -0.2009032277
C  C287  1  0.91680000  0.78420000  0.47040000  0.54 -0.0413011279
C  C288  1  0.91200000  0.77500000  0.53010000  0.54 -0.2009032277
C  C289  1  0.23480000  0.10050000  0.99590000  0.55 -0.2009032277
C  C290  1  0.18770000  0.06660000  0.99200000  0.55 0.0146801874
C  C291  1  0.76520000  0.89950000  0.99590000  0.55 -0.2009032277
C  C292  1  0.81230000  0.93340000  0.99200000  0.55 0.0146801874
C  C293  1  0.76520000  0.10050000  0.00410000  0.55 -0.2009032277
C  C294  1  0.81230000  0.06660000  0.00800000  0.55 0.0146801874
C  C295  1  0.23480000  0.89950000  0.00410000  0.55 -0.2009032277
C  C296  1  0.18770000  0.93340000  0.00800000  0.55 0.0146801874
C  C297  1  0.99590000  0.23480000  0.10050000  0.55 -0.2009032277
C  C298  1  0.99200000  0.18770000  0.06660000  0.55 0.0146801874
C  C299  1  0.99590000  0.76520000  0.89950000  0.55 -0.2009032277
C  C300  1  0.99200000  0.81230000  0.93340000  0.55 0.0146801874
C  C301  1  0.00410000  0.76520000  0.10050000  0.55 -0.2009032277
C  C302  1  0.00800000  0.81230000  0.06660000  0.55 0.0146801874
C  C303  1  0.00410000  0.23480000  0.89950000  0.55 -0.2009032277
C  C304  1  0.00800000  0.18770000  0.93340000  0.55 0.0146801874
C  C305  1  0.10050000  0.99590000  0.23480000  0.55 -0.2009032277
C  C306  1  0.06660000  0.99200000  0.18770000  0.55 0.0146801874
C  C307  1  0.89950000  0.99590000  0.76520000  0.55 -0.2009032277
C  C308  1  0.93340000  0.99200000  0.81230000  0.55 0.0146801874
C  C309  1  0.10050000  0.00410000  0.76520000  0.55 -0.2009032277
C  C310  1  0.06660000  0.00800000  0.81230000  0.55 0.0146801874
C  C311  1  0.89950000  0.00410000  0.23480000  0.55 -0.2009032277
C  C312  1  0.93340000  0.00800000  0.18770000  0.55 0.0146801874
C  C313  1  0.10050000  0.23480000  0.99590000  0.55 -0.2009032277
C  C314  1  0.06660000  0.18770000  0.99200000  0.55 0.0146801874
C  C315  1  0.89950000  0.76520000  0.99590000  0.55 -0.2009032277
C  C316  1  0.93340000  0.81230000  0.99200000  0.55 0.0152322549
C  C317  1  0.10050000  0.76520000  0.00410000  0.55 -0.2009032277
C  C318  1  0.06660000  0.81230000  0.00800000  0.55 0.0146801874
C  C319  1  0.89950000  0.23480000  0.00410000  0.55 -0.2009032277
C  C320  1  0.93340000  0.18770000  0.00800000  0.55 0.0146801874
C  C321  1  0.23480000  0.99590000  0.10050000  0.55 -0.2009032277
C  C322  1  0.18770000  0.99200000  0.06660000  0.55 0.0146801874
C  C323  1  0.76520000  0.99590000  0.89950000  0.55 -0.2009032277
C  C324  1  0.81230000  0.99200000  0.93340000  0.55 0.0146801874
C  C325  1  0.76520000  0.00410000  0.10050000  0.55 -0.2009032277
C  C326  1  0.81230000  0.00800000  0.06660000  0.55 0.0146801874
C  C327  1  0.23480000  0.00410000  0.89950000  0.55 -0.2009032277
C  C328  1  0.18770000  0.00800000  0.93340000  0.55 0.0146801874
C  C329  1  0.99590000  0.10050000  0.23480000  0.55 -0.2009032277
C  C330  1  0.99200000  0.06660000  0.18770000  0.55 0.0146801874
C  C331  1  0.99590000  0.89950000  0.76520000  0.55 -0.2009032277
C  C332  1  0.99200000  0.93340000  0.81230000  0.55 0.0146801874
C  C333  1  0.00410000  0.10050000  0.76520000  0.55 -0.2009032277
C  C334  1  0.00800000  0.06660000  0.81230000  0.55 0.0146801874
C  C335  1  0.00410000  0.89950000  0.23480000  0.55 -0.2009032277
C  C336  1  0.00800000  0.93340000  0.18770000  0.55 0.0146801874
C  C337  1  0.16200000  0.04500000  0.04500000  0.55 -0.055861391
C  C338  1  0.83800000  0.95500000  0.04500000  0.55 -0.0535760059
C  C339  1  0.83800000  0.04500000  0.95500000  0.55 -0.0535760059
C  C340  1  0.16200000  0.95500000  0.95500000  0.55 -0.055861391
C  C341  1  0.04500000  0.16200000  0.04500000  0.55 -0.0535760059
C  C342  1  0.04500000  0.83800000  0.95500000  0.55 -0.055861391
C  C343  1  0.95500000  0.83800000  0.04500000  0.55 -0.0535760059
C  C344  1  0.95500000  0.16200000  0.95500000  0.55 -0.0535760059
C  C345  1  0.04500000  0.04500000  0.16200000  0.55 -0.0535760059
C  C346  1  0.95500000  0.04500000  0.83800000  0.55 -0.0535760059
C  C347  1  0.04500000  0.95500000  0.83800000  0.55 -0.055861391
C  C348  1  0.95500000  0.95500000  0.16200000  0.55 -0.0535760059
N  N1  1  0.33310000  0.11850000  0.94970000  1.0 -0.3196781279
N  N2  1  0.36880000  0.14760000  0.07800000  1.0 -0.3551734228
N  N3  1  0.32980000  0.26090000  0.00240000  1.0 -0.3196781279
N  N4  1  0.66690000  0.88150000  0.94970000  1.0 -0.3196781279
N  N5  1  0.63120000  0.85240000  0.07800000  1.0 -0.3547468621
N  N6  1  0.67020000  0.73910000  0.00240000  1.0 -0.3196781279
N  N7  1  0.66690000  0.11850000  0.05030000  1.0 -0.3196781279
N  N8  1  0.63120000  0.14760000  0.92200000  1.0 -0.3551734228
N  N9  1  0.67020000  0.26090000  0.99760000  1.0 -0.3196781279
N  N10  1  0.33310000  0.88150000  0.05030000  1.0 -0.3196781279
N  N11  1  0.36880000  0.85240000  0.92200000  1.0 -0.3551734228
N  N12  1  0.32980000  0.73910000  0.99760000  1.0 -0.3196781279
N  N13  1  0.94970000  0.33310000  0.11850000  1.0 -0.3196781279
N  N14  1  0.07800000  0.36880000  0.14760000  1.0 -0.3551734228
N  N15  1  0.00240000  0.32980000  0.26090000  1.0 -0.3196781279
N  N16  1  0.94970000  0.66690000  0.88150000  1.0 -0.3196781279
N  N17  1  0.07800000  0.63120000  0.85240000  1.0 -0.3551734228
N  N18  1  0.00240000  0.67020000  0.73910000  1.0 -0.3196781279
N  N19  1  0.05030000  0.66690000  0.11850000  1.0 -0.3196781279
N  N20  1  0.92200000  0.63120000  0.14760000  1.0 -0.3547468621
N  N21  1  0.99760000  0.67020000  0.26090000  1.0 -0.3196781279
N  N22  1  0.05030000  0.33310000  0.88150000  1.0 -0.3196781279
N  N23  1  0.92200000  0.36880000  0.85240000  1.0 -0.3551734228
N  N24  1  0.99760000  0.32980000  0.73910000  1.0 -0.3196781279
N  N25  1  0.11850000  0.94970000  0.33310000  1.0 -0.3196781279
N  N26  1  0.14760000  0.07800000  0.36880000  1.0 -0.3551734228
N  N27  1  0.26090000  0.00240000  0.32980000  1.0 -0.3196781279
N  N28  1  0.88150000  0.94970000  0.66690000  1.0 -0.3196781279
N  N29  1  0.85240000  0.07800000  0.63120000  1.0 -0.3551734228
N  N30  1  0.73910000  0.00240000  0.67020000  1.0 -0.3196781279
N  N31  1  0.11850000  0.05030000  0.66690000  1.0 -0.3196781279
N  N32  1  0.14760000  0.92200000  0.63120000  1.0 -0.3551734228
N  N33  1  0.26090000  0.99760000  0.67020000  1.0 -0.3196781279
N  N34  1  0.88150000  0.05030000  0.33310000  1.0 -0.3196781279
N  N35  1  0.85240000  0.92200000  0.36880000  1.0 -0.3547468621
N  N36  1  0.73910000  0.99760000  0.32980000  1.0 -0.3196781279
N  N37  1  0.11850000  0.33310000  0.94970000  1.0 -0.3196781279
N  N38  1  0.14760000  0.36880000  0.07800000  1.0 -0.3551734228
N  N39  1  0.26090000  0.32980000  0.00240000  1.0 -0.3196781279
N  N40  1  0.88150000  0.66690000  0.94970000  1.0 -0.3196781279
N  N41  1  0.85240000  0.63120000  0.07800000  1.0 -0.3547468621
N  N42  1  0.73910000  0.67020000  0.00240000  1.0 -0.3196781279
N  N43  1  0.11850000  0.66690000  0.05030000  1.0 -0.3196781279
N  N44  1  0.14760000  0.63120000  0.92200000  1.0 -0.3551734228
N  N45  1  0.26090000  0.67020000  0.99760000  1.0 -0.3196781279
N  N46  1  0.88150000  0.33310000  0.05030000  1.0 -0.3196781279
N  N47  1  0.85240000  0.36880000  0.92200000  1.0 -0.3551734228
N  N48  1  0.73910000  0.32980000  0.99760000  1.0 -0.3196781279
N  N49  1  0.33310000  0.94970000  0.11850000  1.0 -0.3196781279
N  N50  1  0.36880000  0.07800000  0.14760000  1.0 -0.3551734228
N  N51  1  0.32980000  0.00240000  0.26090000  1.0 -0.3196781279
N  N52  1  0.66690000  0.94970000  0.88150000  1.0 -0.3196781279
N  N53  1  0.63120000  0.07800000  0.85240000  1.0 -0.3551734228
N  N54  1  0.67020000  0.00240000  0.73910000  1.0 -0.3196781279
N  N55  1  0.66690000  0.05030000  0.11850000  1.0 -0.3196781279
N  N56  1  0.63120000  0.92200000  0.14760000  1.0 -0.3547468621
N  N57  1  0.67020000  0.99760000  0.26090000  1.0 -0.3196781279
N  N58  1  0.33310000  0.05030000  0.88150000  1.0 -0.3196781279
N  N59  1  0.36880000  0.92200000  0.85240000  1.0 -0.3551734228
N  N60  1  0.32980000  0.99760000  0.73910000  1.0 -0.3196781279
N  N61  1  0.94970000  0.11850000  0.33310000  1.0 -0.3196781279
N  N62  1  0.07800000  0.14760000  0.36880000  1.0 -0.3551734228
N  N63  1  0.00240000  0.26090000  0.32980000  1.0 -0.3196781279
N  N64  1  0.94970000  0.88150000  0.66690000  1.0 -0.3196781279
N  N65  1  0.07800000  0.85240000  0.63120000  1.0 -0.3551734228
N  N66  1  0.00240000  0.73910000  0.67020000  1.0 -0.3196781279
N  N67  1  0.05030000  0.11850000  0.66690000  1.0 -0.3196781279
N  N68  1  0.92200000  0.14760000  0.63120000  1.0 -0.3551734228
N  N69  1  0.99760000  0.26090000  0.67020000  1.0 -0.3196781279
N  N70  1  0.05030000  0.88150000  0.33310000  1.0 -0.3196781279
N  N71  1  0.92200000  0.85240000  0.36880000  1.0 -0.3551734228
N  N72  1  0.99760000  0.73910000  0.32980000  1.0 -0.3196781279
N  N73  1  0.45030000  0.19640000  0.97240000  0.46 -0.1727295352
N  N74  1  0.54970000  0.80360000  0.97240000  0.46 -0.1727295352
N  N75  1  0.54970000  0.19640000  0.02760000  0.46 -0.1727295352
N  N76  1  0.45030000  0.80360000  0.02760000  0.46 -0.1727295352
N  N77  1  0.97240000  0.45030000  0.19640000  0.46 -0.1727295352
N  N78  1  0.97240000  0.54970000  0.80360000  0.46 -0.1727295352
N  N79  1  0.02760000  0.54970000  0.19640000  0.46 -0.1727295352
N  N80  1  0.02760000  0.45030000  0.80360000  0.46 -0.1727295352
N  N81  1  0.19640000  0.97240000  0.45030000  0.46 -0.1727295352
N  N82  1  0.80360000  0.97240000  0.54970000  0.46 -0.1727295352
N  N83  1  0.19640000  0.02760000  0.54970000  0.46 -0.1727295352
N  N84  1  0.80360000  0.02760000  0.45030000  0.46 -0.1727295352
N  N85  1  0.19640000  0.45030000  0.97240000  0.46 -0.1727295352
N  N86  1  0.80360000  0.54970000  0.97240000  0.46 -0.1727295352
N  N87  1  0.19640000  0.54970000  0.02760000  0.46 -0.1727295352
N  N88  1  0.80360000  0.45030000  0.02760000  0.46 -0.1727295352
N  N89  1  0.45030000  0.97240000  0.19640000  0.46 -0.1727295352
N  N90  1  0.54970000  0.97240000  0.80360000  0.46 -0.1727295352
N  N91  1  0.54970000  0.02760000  0.19640000  0.46 -0.1727295352
N  N92  1  0.45030000  0.02760000  0.80360000  0.46 -0.1727295352
N  N93  1  0.97240000  0.19640000  0.45030000  0.46 -0.1727295352
N  N94  1  0.97240000  0.80360000  0.54970000  0.46 -0.1727295352
N  N95  1  0.02760000  0.19640000  0.54970000  0.46 -0.1727295352
N  N96  1  0.02760000  0.80360000  0.45030000  0.46 -0.1727295352
N  N97  1  0.45250000  0.19530000  0.03400000  0.54 -0.10511881
N  N98  1  0.54750000  0.80470000  0.03400000  0.54 -0.1045245219
N  N99  1  0.54750000  0.19530000  0.96600000  0.54 -0.10511881
N  N100  1  0.45250000  0.80470000  0.96600000  0.54 -0.10511881
N  N101  1  0.03400000  0.45250000  0.19530000  0.54 -0.10511881
N  N102  1  0.03400000  0.54750000  0.80470000  0.54 -0.10511881
N  N103  1  0.96600000  0.54750000  0.19530000  0.54 -0.10511881
N  N104  1  0.96600000  0.45250000  0.80470000  0.54 -0.10511881
N  N105  1  0.19530000  0.03400000  0.45250000  0.54 -0.10511881
N  N106  1  0.80470000  0.03400000  0.54750000  0.54 -0.1045245219
N  N107  1  0.19530000  0.96600000  0.54750000  0.54 -0.10511881
N  N108  1  0.80470000  0.96600000  0.45250000  0.54 -0.1045245219
N  N109  1  0.19530000  0.45250000  0.03400000  0.54 -0.10511881
N  N110  1  0.80470000  0.54750000  0.03400000  0.54 -0.1045245219
N  N111  1  0.19530000  0.54750000  0.96600000  0.54 -0.10511881
N  N112  1  0.80470000  0.45250000  0.96600000  0.54 -0.1045245219
N  N113  1  0.45250000  0.03400000  0.19530000  0.54 -0.10511881
N  N114  1  0.54750000  0.03400000  0.80470000  0.54 -0.10511881
N  N115  1  0.54750000  0.96600000  0.19530000  0.54 -0.1045245219
N  N116  1  0.45250000  0.96600000  0.80470000  0.54 -0.1045245219
N  N117  1  0.03400000  0.19530000  0.45250000  0.54 -0.10511881
N  N118  1  0.03400000  0.80470000  0.54750000  0.54 -0.10511881
N  N119  1  0.96600000  0.19530000  0.54750000  0.54 -0.10511881
N  N120  1  0.96600000  0.80470000  0.45250000  0.54 -0.1045245219
