# DDEC6 charges by PACMAN v1.1 (https://github.com/mtap-research/PACMAN-charge/)
data_0000[Zn][ith]3[ASR]1
_chemical_formula_sum              "Zn24 H444 C450 O78"
_cell_length_a       29.8062
_cell_length_b       29.8062
_cell_length_c       29.8062
_cell_angle_alpha    90
_cell_angle_beta     90
_cell_angle_gamma    90

_symmetry_space_group_name_H-M    "P 1"
_symmetry_Int_Tables_number       1

loop_
  _symmetry_equiv_pos_as_xyz
  'x, y, z'

loop_
  _atom_site_type_symbol
  _atom_site_label
  _atom_site_symmetry_multiplicity
  _atom_site_fract_x
  _atom_site_fract_y
  _atom_site_fract_z
  _atom_site_occupancy
  _atom_site_charge
Zn  Zn1       1.0  0.00000  0.32278  0.44645  1.0000 0.9371394094
Zn  Zn2       1.0  0.00000  0.67722  0.44645  1.0000 0.9371394094
Zn  Zn3       1.0  0.00000  0.32278  0.55355  1.0000 0.9371394094
Zn  Zn4       1.0  0.00000  0.67722  0.55355  1.0000 0.9371394094
Zn  Zn5       1.0  0.44645  0.00000  0.32278  1.0000 0.9371394094
Zn  Zn6       1.0  0.44645  0.00000  0.67722  1.0000 0.9371394094
Zn  Zn7       1.0  0.55355  0.00000  0.32278  1.0000 0.9371394094
Zn  Zn8       1.0  0.55355  0.00000  0.67722  1.0000 0.9371394094
Zn  Zn9       1.0  0.32278  0.44645  0.00000  1.0000 0.9371394094
Zn  Zn10      1.0  0.67722  0.44645  0.00000  1.0000 0.9371394094
Zn  Zn11      1.0  0.32278  0.55355  0.00000  1.0000 0.9371394094
Zn  Zn12      1.0  0.67722  0.55355  0.00000  1.0000 0.9371394094
Zn  Zn13      1.0  0.05300  0.24849  0.50000  1.0000 0.9371394094
Zn  Zn14      1.0  0.94700  0.75151  0.50000  1.0000 0.9371394094
Zn  Zn15      1.0  0.94700  0.24849  0.50000  1.0000 0.9371394094
Zn  Zn16      1.0  0.05300  0.75151  0.50000  1.0000 0.9371394094
Zn  Zn17      1.0  0.50000  0.05300  0.24849  1.0000 0.9371394094
Zn  Zn18      1.0  0.50000  0.94700  0.75151  1.0000 0.9371394094
Zn  Zn19      1.0  0.50000  0.94700  0.24849  1.0000 0.9371394094
Zn  Zn20      1.0  0.50000  0.05300  0.75151  1.0000 0.9371394094
Zn  Zn21      1.0  0.24849  0.50000  0.05300  1.0000 0.9371394094
Zn  Zn22      1.0  0.75151  0.50000  0.94700  1.0000 0.9371394094
Zn  Zn23      1.0  0.24849  0.50000  0.94700  1.0000 0.9371394094
Zn  Zn24      1.0  0.75151  0.50000  0.05300  1.0000 0.9371394094
H   H1        1.0  0.09330  0.33690  0.34340  1.0000 0.127614067
H   H2        1.0  0.90670  0.66310  0.34340  1.0000 0.127614067
H   H3        1.0  0.90670  0.33690  0.65660  1.0000 0.127614067
H   H4        1.0  0.09330  0.66310  0.65660  1.0000 0.127614067
H   H5        1.0  0.34340  0.09330  0.33690  1.0000 0.127614067
H   H6        1.0  0.34340  0.90670  0.66310  1.0000 0.127614067
H   H7        1.0  0.65660  0.90670  0.33690  1.0000 0.127614067
H   H8        1.0  0.65660  0.09330  0.66310  1.0000 0.127614067
H   H9        1.0  0.33690  0.34340  0.09330  1.0000 0.127614067
H   H10       1.0  0.66310  0.34340  0.90670  1.0000 0.127614067
H   H11       1.0  0.33690  0.65660  0.90670  1.0000 0.127614067
H   H12       1.0  0.66310  0.65660  0.09330  1.0000 0.127614067
H   H13       1.0  0.90670  0.66310  0.65660  1.0000 0.127614067
H   H14       1.0  0.09330  0.33690  0.65660  1.0000 0.127614067
H   H15       1.0  0.09330  0.66310  0.34340  1.0000 0.127614067
H   H16       1.0  0.90670  0.33690  0.34340  1.0000 0.127614067
H   H17       1.0  0.65660  0.90670  0.66310  1.0000 0.127614067
H   H18       1.0  0.65660  0.09330  0.33690  1.0000 0.127614067
H   H19       1.0  0.34340  0.09330  0.66310  1.0000 0.127614067
H   H20       1.0  0.34340  0.90670  0.33690  1.0000 0.127614067
H   H21       1.0  0.66310  0.65660  0.90670  1.0000 0.127614067
H   H22       1.0  0.33690  0.65660  0.09330  1.0000 0.127614067
H   H23       1.0  0.66310  0.34340  0.09330  1.0000 0.127614067
H   H24       1.0  0.33690  0.34340  0.90670  1.0000 0.127614067
H   H25       1.0  0.15040  0.23110  0.40130  1.0000 0.1379168594
H   H26       1.0  0.84960  0.76890  0.40130  1.0000 0.1379168594
H   H27       1.0  0.84960  0.23110  0.59870  1.0000 0.1379168594
H   H28       1.0  0.15040  0.76890  0.59870  1.0000 0.1379168594
H   H29       1.0  0.40130  0.15040  0.23110  1.0000 0.1379168594
H   H30       1.0  0.40130  0.84960  0.76890  1.0000 0.1379168594
H   H31       1.0  0.59870  0.84960  0.23110  1.0000 0.1379168594
H   H32       1.0  0.59870  0.15040  0.76890  1.0000 0.1379168594
H   H33       1.0  0.23110  0.40130  0.15040  1.0000 0.1379168594
H   H34       1.0  0.76890  0.40130  0.84960  1.0000 0.1379168594
H   H35       1.0  0.23110  0.59870  0.84960  1.0000 0.1379168594
H   H36       1.0  0.76890  0.59870  0.15040  1.0000 0.1379168594
H   H37       1.0  0.84960  0.76890  0.59870  1.0000 0.1379168594
H   H38       1.0  0.15040  0.23110  0.59870  1.0000 0.1379168594
H   H39       1.0  0.15040  0.76890  0.40130  1.0000 0.1379168594
H   H40       1.0  0.84960  0.23110  0.40130  1.0000 0.1379168594
H   H41       1.0  0.59870  0.84960  0.76890  1.0000 0.1379168594
H   H42       1.0  0.59870  0.15040  0.23110  1.0000 0.1379168594
H   H43       1.0  0.40130  0.15040  0.76890  1.0000 0.1379168594
H   H44       1.0  0.40130  0.84960  0.23110  1.0000 0.1379168594
H   H45       1.0  0.76890  0.59870  0.84960  1.0000 0.1379168594
H   H46       1.0  0.23110  0.59870  0.15040  1.0000 0.1379168594
H   H47       1.0  0.76890  0.40130  0.15040  1.0000 0.1379168594
H   H48       1.0  0.23110  0.40130  0.84960  1.0000 0.1379168594
H   H49       1.0  0.00000  0.46170  0.43280  1.0000 0.1205712583
H   H50       1.0  0.00000  0.53830  0.43280  1.0000 0.1205712583
H   H51       1.0  0.00000  0.46170  0.56720  1.0000 0.1205712583
H   H52       1.0  0.00000  0.53830  0.56720  1.0000 0.1205712583
H   H53       1.0  0.43280  0.00000  0.46170  1.0000 0.1205712583
H   H54       1.0  0.43280  0.00000  0.53830  1.0000 0.1205712583
H   H55       1.0  0.56720  0.00000  0.46170  1.0000 0.1205712583
H   H56       1.0  0.56720  0.00000  0.53830  1.0000 0.1205712583
H   H57       1.0  0.46170  0.43280  0.00000  1.0000 0.1205712583
H   H58       1.0  0.53830  0.43280  0.00000  1.0000 0.1205712583
H   H59       1.0  0.46170  0.56720  0.00000  1.0000 0.1205712583
H   H60       1.0  0.53830  0.56720  0.00000  1.0000 0.1205712583
H   H61       1.0  0.14690  0.33800  0.28830  1.0000 0.1205712583
H   H62       1.0  0.85310  0.66200  0.28830  1.0000 0.1205712583
H   H63       1.0  0.85310  0.33800  0.71170  1.0000 0.1205712583
H   H64       1.0  0.14690  0.66200  0.71170  1.0000 0.1205712583
H   H65       1.0  0.28830  0.14690  0.33800  1.0000 0.1205712583
H   H66       1.0  0.28830  0.85310  0.66200  1.0000 0.1205712583
H   H67       1.0  0.71170  0.85310  0.33800  1.0000 0.1205712583
H   H68       1.0  0.71170  0.14690  0.66200  1.0000 0.1205712583
H   H69       1.0  0.33800  0.28830  0.14690  1.0000 0.1205712583
H   H70       1.0  0.66200  0.28830  0.85310  1.0000 0.1205712583
H   H71       1.0  0.33800  0.71170  0.85310  1.0000 0.1205712583
H   H72       1.0  0.66200  0.71170  0.14690  1.0000 0.1205712583
H   H73       1.0  0.85310  0.66200  0.71170  1.0000 0.1205712583
H   H74       1.0  0.14690  0.33800  0.71170  1.0000 0.1205712583
H   H75       1.0  0.14690  0.66200  0.28830  1.0000 0.1205712583
H   H76       1.0  0.85310  0.33800  0.28830  1.0000 0.1205712583
H   H77       1.0  0.71170  0.85310  0.66200  1.0000 0.1205712583
H   H78       1.0  0.71170  0.14690  0.33800  1.0000 0.1205712583
H   H79       1.0  0.28830  0.14690  0.66200  1.0000 0.1205712583
H   H80       1.0  0.28830  0.85310  0.33800  1.0000 0.1205712583
H   H81       1.0  0.66200  0.71170  0.85310  1.0000 0.1205712583
H   H82       1.0  0.33800  0.71170  0.14690  1.0000 0.1205712583
H   H83       1.0  0.66200  0.28830  0.14690  1.0000 0.1205712583
H   H84       1.0  0.33800  0.28830  0.85310  1.0000 0.1205712583
H   H85       1.0  0.06350  0.03150  0.50000  1.0000 0.1095847367
H   H86       1.0  0.93650  0.96850  0.50000  1.0000 0.1095847367
H   H87       1.0  0.93650  0.03150  0.50000  1.0000 0.1095847367
H   H88       1.0  0.06350  0.96850  0.50000  1.0000 0.1095847367
H   H89       1.0  0.50000  0.06350  0.03150  1.0000 0.1095847367
H   H90       1.0  0.50000  0.93650  0.96850  1.0000 0.1095847367
H   H91       1.0  0.50000  0.93650  0.03150  1.0000 0.1095847367
H   H92       1.0  0.50000  0.06350  0.96850  1.0000 0.1095847367
H   H93       1.0  0.03150  0.50000  0.06350  1.0000 0.1095847367
H   H94       1.0  0.96850  0.50000  0.93650  1.0000 0.1095847367
H   H95       1.0  0.03150  0.50000  0.93650  1.0000 0.1095847367
H   H96       1.0  0.96850  0.50000  0.06350  1.0000 0.1095847367
H   H97       1.0  0.06760  0.11070  0.50000  1.0000 0.127614067
H   H98       1.0  0.93240  0.88930  0.50000  1.0000 0.127614067
H   H99       1.0  0.93240  0.11070  0.50000  1.0000 0.127614067
H   H100      1.0  0.06760  0.88930  0.50000  1.0000 0.127614067
H   H101      1.0  0.50000  0.06760  0.11070  1.0000 0.127614067
H   H102      1.0  0.50000  0.93240  0.88930  1.0000 0.127614067
H   H103      1.0  0.50000  0.93240  0.11070  1.0000 0.127614067
H   H104      1.0  0.50000  0.06760  0.88930  1.0000 0.127614067
H   H105      1.0  0.11070  0.50000  0.06760  1.0000 0.127614067
H   H106      1.0  0.88930  0.50000  0.93240  1.0000 0.127614067
H   H107      1.0  0.11070  0.50000  0.93240  1.0000 0.127614067
H   H108      1.0  0.88930  0.50000  0.06760  1.0000 0.127614067
H   H109      1.0  0.18570  0.16140  0.36050  1.0000 0.0999543722
H   H110      1.0  0.81430  0.83860  0.36050  1.0000 0.0999543722
H   H111      1.0  0.81430  0.16140  0.63950  1.0000 0.0999543722
H   H112      1.0  0.18570  0.83860  0.63950  1.0000 0.0999543722
H   H113      1.0  0.36050  0.18570  0.16140  1.0000 0.0999543722
H   H114      1.0  0.36050  0.81430  0.83860  1.0000 0.0999543722
H   H115      1.0  0.63950  0.81430  0.16140  1.0000 0.0999543722
H   H116      1.0  0.63950  0.18570  0.83860  1.0000 0.0999543722
H   H117      1.0  0.16140  0.36050  0.18570  1.0000 0.0999543722
H   H118      1.0  0.83860  0.36050  0.81430  1.0000 0.0999543722
H   H119      1.0  0.16140  0.63950  0.81430  1.0000 0.0999543722
H   H120      1.0  0.83860  0.63950  0.18570  1.0000 0.0999543722
H   H121      1.0  0.81430  0.83860  0.63950  1.0000 0.0999543722
H   H122      1.0  0.18570  0.16140  0.63950  1.0000 0.0999543722
H   H123      1.0  0.18570  0.83860  0.36050  1.0000 0.0999543722
H   H124      1.0  0.81430  0.16140  0.36050  1.0000 0.0999543722
H   H125      1.0  0.63950  0.81430  0.83860  1.0000 0.0999543722
H   H126      1.0  0.63950  0.18570  0.16140  1.0000 0.0999543722
H   H127      1.0  0.36050  0.18570  0.83860  1.0000 0.0999543722
H   H128      1.0  0.36050  0.81430  0.16140  1.0000 0.0999543722
H   H129      1.0  0.83860  0.63950  0.81430  1.0000 0.0999543722
H   H130      1.0  0.16140  0.63950  0.18570  1.0000 0.0999543722
H   H131      1.0  0.83860  0.36050  0.18570  1.0000 0.0999543722
H   H132      1.0  0.16140  0.36050  0.81430  1.0000 0.0999543722
H   H133      1.0  0.22360  0.15020  0.32580  1.0000 0.089315176
H   H134      1.0  0.77640  0.84980  0.32580  1.0000 0.089315176
H   H135      1.0  0.77640  0.15020  0.67420  1.0000 0.089315176
H   H136      1.0  0.22360  0.84980  0.67420  1.0000 0.089315176
H   H137      1.0  0.32580  0.22360  0.15020  1.0000 0.089315176
H   H138      1.0  0.32580  0.77640  0.84980  1.0000 0.089315176
H   H139      1.0  0.67420  0.77640  0.15020  1.0000 0.089315176
H   H140      1.0  0.67420  0.22360  0.84980  1.0000 0.089315176
H   H141      1.0  0.15020  0.32580  0.22360  1.0000 0.089315176
H   H142      1.0  0.84980  0.32580  0.77640  1.0000 0.089315176
H   H143      1.0  0.15020  0.67420  0.77640  1.0000 0.089315176
H   H144      1.0  0.84980  0.67420  0.22360  1.0000 0.089315176
H   H145      1.0  0.77640  0.84980  0.67420  1.0000 0.089315176
H   H146      1.0  0.22360  0.15020  0.67420  1.0000 0.089315176
H   H147      1.0  0.22360  0.84980  0.32580  1.0000 0.089315176
H   H148      1.0  0.77640  0.15020  0.32580  1.0000 0.089315176
H   H149      1.0  0.67420  0.77640  0.84980  1.0000 0.089315176
H   H150      1.0  0.67420  0.22360  0.15020  1.0000 0.089315176
H   H151      1.0  0.32580  0.22360  0.84980  1.0000 0.089315176
H   H152      1.0  0.32580  0.77640  0.15020  1.0000 0.089315176
H   H153      1.0  0.84980  0.67420  0.77640  1.0000 0.089315176
H   H154      1.0  0.15020  0.67420  0.22360  1.0000 0.089315176
H   H155      1.0  0.84980  0.32580  0.22360  1.0000 0.089315176
H   H156      1.0  0.15020  0.32580  0.77640  1.0000 0.089315176
H   H157      1.0  0.27460  0.19910  0.37430  1.0000 0.0999543722
H   H158      1.0  0.72540  0.80090  0.37430  1.0000 0.0999543722
H   H159      1.0  0.72540  0.19910  0.62570  1.0000 0.0999543722
H   H160      1.0  0.27460  0.80090  0.62570  1.0000 0.0999543722
H   H161      1.0  0.37430  0.27460  0.19910  1.0000 0.0999543722
H   H162      1.0  0.37430  0.72540  0.80090  1.0000 0.0999543722
H   H163      1.0  0.62570  0.72540  0.19910  1.0000 0.0999543722
H   H164      1.0  0.62570  0.27460  0.80090  1.0000 0.0999543722
H   H165      1.0  0.19910  0.37430  0.27460  1.0000 0.0999543722
H   H166      1.0  0.80090  0.37430  0.72540  1.0000 0.0999543722
H   H167      1.0  0.19910  0.62570  0.72540  1.0000 0.0999543722
H   H168      1.0  0.80090  0.62570  0.27460  1.0000 0.0999543722
H   H169      1.0  0.72540  0.80090  0.62570  1.0000 0.0999543722
H   H170      1.0  0.27460  0.19910  0.62570  1.0000 0.0999543722
H   H171      1.0  0.27460  0.80090  0.37430  1.0000 0.0999543722
H   H172      1.0  0.72540  0.19910  0.37430  1.0000 0.0999543722
H   H173      1.0  0.62570  0.72540  0.80090  1.0000 0.0999543722
H   H174      1.0  0.62570  0.27460  0.19910  1.0000 0.0999543722
H   H175      1.0  0.37430  0.27460  0.80090  1.0000 0.0999543722
H   H176      1.0  0.37430  0.72540  0.19910  1.0000 0.0999543722
H   H177      1.0  0.80090  0.62570  0.72540  1.0000 0.0999543722
H   H178      1.0  0.19910  0.62570  0.27460  1.0000 0.0999543722
H   H179      1.0  0.80090  0.37430  0.27460  1.0000 0.0999543722
H   H180      1.0  0.19910  0.37430  0.72540  1.0000 0.0999543722
H   H181      1.0  0.23410  0.21130  0.40540  1.0000 0.0999543722
H   H182      1.0  0.76590  0.78870  0.40540  1.0000 0.0999543722
H   H183      1.0  0.76590  0.21130  0.59460  1.0000 0.0999543722
H   H184      1.0  0.23410  0.78870  0.59460  1.0000 0.0999543722
H   H185      1.0  0.40540  0.23410  0.21130  1.0000 0.0999543722
H   H186      1.0  0.40540  0.76590  0.78870  1.0000 0.0999543722
H   H187      1.0  0.59460  0.76590  0.21130  1.0000 0.0999543722
H   H188      1.0  0.59460  0.23410  0.78870  1.0000 0.0999543722
H   H189      1.0  0.21130  0.40540  0.23410  1.0000 0.0999543722
H   H190      1.0  0.78870  0.40540  0.76590  1.0000 0.0999543722
H   H191      1.0  0.21130  0.59460  0.76590  1.0000 0.0999543722
H   H192      1.0  0.78870  0.59460  0.23410  1.0000 0.0999543722
H   H193      1.0  0.76590  0.78870  0.59460  1.0000 0.0999543722
H   H194      1.0  0.23410  0.21130  0.59460  1.0000 0.0999543722
H   H195      1.0  0.23410  0.78870  0.40540  1.0000 0.0999543722
H   H196      1.0  0.76590  0.21130  0.40540  1.0000 0.0999543722
H   H197      1.0  0.59460  0.76590  0.78870  1.0000 0.0999543722
H   H198      1.0  0.59460  0.23410  0.21130  1.0000 0.0999543722
H   H199      1.0  0.40540  0.23410  0.78870  1.0000 0.0999543722
H   H200      1.0  0.40540  0.76590  0.21130  1.0000 0.0999543722
H   H201      1.0  0.78870  0.59460  0.76590  1.0000 0.0999543722
H   H202      1.0  0.21130  0.59460  0.23410  1.0000 0.0999543722
H   H203      1.0  0.78870  0.40540  0.23410  1.0000 0.0999543722
H   H204      1.0  0.21130  0.40540  0.76590  1.0000 0.0999543722
H   H205      1.0  0.28600  0.27910  0.36040  1.0000 0.089315176
H   H206      1.0  0.71400  0.72090  0.36040  1.0000 0.089315176
H   H207      1.0  0.71400  0.27910  0.63960  1.0000 0.089315176
H   H208      1.0  0.28600  0.72090  0.63960  1.0000 0.089315176
H   H209      1.0  0.36040  0.28600  0.27910  1.0000 0.089315176
H   H210      1.0  0.36040  0.71400  0.72090  1.0000 0.089315176
H   H211      1.0  0.63960  0.71400  0.27910  1.0000 0.089315176
H   H212      1.0  0.63960  0.28600  0.72090  1.0000 0.089315176
H   H213      1.0  0.27910  0.36040  0.28600  1.0000 0.089315176
H   H214      1.0  0.72090  0.36040  0.71400  1.0000 0.089315176
H   H215      1.0  0.27910  0.63960  0.71400  1.0000 0.089315176
H   H216      1.0  0.72090  0.63960  0.28600  1.0000 0.089315176
H   H217      1.0  0.71400  0.72090  0.63960  1.0000 0.089315176
H   H218      1.0  0.28600  0.27910  0.63960  1.0000 0.089315176
H   H219      1.0  0.28600  0.72090  0.36040  1.0000 0.089315176
H   H220      1.0  0.71400  0.27910  0.36040  1.0000 0.089315176
H   H221      1.0  0.63960  0.71400  0.72090  1.0000 0.089315176
H   H222      1.0  0.63960  0.28600  0.27910  1.0000 0.089315176
H   H223      1.0  0.36040  0.28600  0.72090  1.0000 0.089315176
H   H224      1.0  0.36040  0.71400  0.27910  1.0000 0.089315176
H   H225      1.0  0.72090  0.63960  0.71400  1.0000 0.089315176
H   H226      1.0  0.27910  0.63960  0.28600  1.0000 0.089315176
H   H227      1.0  0.72090  0.36040  0.28600  1.0000 0.089315176
H   H228      1.0  0.27910  0.36040  0.71400  1.0000 0.089315176
H   H229      1.0  0.24790  0.28960  0.39480  1.0000 0.089315176
H   H230      1.0  0.75210  0.71040  0.39480  1.0000 0.089315176
H   H231      1.0  0.75210  0.28960  0.60520  1.0000 0.089315176
H   H232      1.0  0.24790  0.71040  0.60520  1.0000 0.089315176
H   H233      1.0  0.39480  0.24790  0.28960  1.0000 0.089315176
H   H234      1.0  0.39480  0.75210  0.71040  1.0000 0.089315176
H   H235      1.0  0.60520  0.75210  0.28960  1.0000 0.089315176
H   H236      1.0  0.60520  0.24790  0.71040  1.0000 0.089315176
H   H237      1.0  0.28960  0.39480  0.24790  1.0000 0.089315176
H   H238      1.0  0.71040  0.39480  0.75210  1.0000 0.089315176
H   H239      1.0  0.28960  0.60520  0.75210  1.0000 0.089315176
H   H240      1.0  0.71040  0.60520  0.24790  1.0000 0.089315176
H   H241      1.0  0.75210  0.71040  0.60520  1.0000 0.089315176
H   H242      1.0  0.24790  0.28960  0.60520  1.0000 0.089315176
H   H243      1.0  0.24790  0.71040  0.39480  1.0000 0.089315176
H   H244      1.0  0.75210  0.28960  0.39480  1.0000 0.089315176
H   H245      1.0  0.60520  0.75210  0.71040  1.0000 0.089315176
H   H246      1.0  0.60520  0.24790  0.28960  1.0000 0.089315176
H   H247      1.0  0.39480  0.24790  0.71040  1.0000 0.089315176
H   H248      1.0  0.39480  0.75210  0.28960  1.0000 0.089315176
H   H249      1.0  0.71040  0.60520  0.75210  1.0000 0.089315176
H   H250      1.0  0.28960  0.60520  0.24790  1.0000 0.089315176
H   H251      1.0  0.71040  0.39480  0.24790  1.0000 0.089315176
H   H252      1.0  0.28960  0.39480  0.75210  1.0000 0.089315176
H   H253      1.0  0.31860  0.30330  0.42810  1.0000 0.1095847367
H   H254      1.0  0.68140  0.69670  0.42810  1.0000 0.1095847367
H   H255      1.0  0.68140  0.30330  0.57190  1.0000 0.1095847367
H   H256      1.0  0.31860  0.69670  0.57190  1.0000 0.1095847367
H   H257      1.0  0.42810  0.31860  0.30330  1.0000 0.1095847367
H   H258      1.0  0.42810  0.68140  0.69670  1.0000 0.1095847367
H   H259      1.0  0.57190  0.68140  0.30330  1.0000 0.1095847367
H   H260      1.0  0.57190  0.31860  0.69670  1.0000 0.1095847367
H   H261      1.0  0.30330  0.42810  0.31860  1.0000 0.1095847367
H   H262      1.0  0.69670  0.42810  0.68140  1.0000 0.1095847367
H   H263      1.0  0.30330  0.57190  0.68140  1.0000 0.1095847367
H   H264      1.0  0.69670  0.57190  0.31860  1.0000 0.1095847367
H   H265      1.0  0.68140  0.69670  0.57190  1.0000 0.1095847367
H   H266      1.0  0.31860  0.30330  0.57190  1.0000 0.1095847367
H   H267      1.0  0.31860  0.69670  0.42810  1.0000 0.1095847367
H   H268      1.0  0.68140  0.30330  0.42810  1.0000 0.1095847367
H   H269      1.0  0.57190  0.68140  0.69670  1.0000 0.1095847367
H   H270      1.0  0.57190  0.31860  0.30330  1.0000 0.1095847367
H   H271      1.0  0.42810  0.31860  0.69670  1.0000 0.1095847367
H   H272      1.0  0.42810  0.68140  0.30330  1.0000 0.1095847367
H   H273      1.0  0.69670  0.57190  0.68140  1.0000 0.1095847367
H   H274      1.0  0.30330  0.57190  0.31860  1.0000 0.1095847367
H   H275      1.0  0.69670  0.42810  0.31860  1.0000 0.1095847367
H   H276      1.0  0.30330  0.42810  0.68140  1.0000 0.1095847367
H   H277      1.0  0.33260  0.25320  0.42030  1.0000 0.1095847367
H   H278      1.0  0.66740  0.74680  0.42030  1.0000 0.1095847367
H   H279      1.0  0.66740  0.25320  0.57970  1.0000 0.1095847367
H   H280      1.0  0.33260  0.74680  0.57970  1.0000 0.1095847367
H   H281      1.0  0.42030  0.33260  0.25320  1.0000 0.1095847367
H   H282      1.0  0.42030  0.66740  0.74680  1.0000 0.1095847367
H   H283      1.0  0.57970  0.66740  0.25320  1.0000 0.1095847367
H   H284      1.0  0.57970  0.33260  0.74680  1.0000 0.1095847367
H   H285      1.0  0.25320  0.42030  0.33260  1.0000 0.1095847367
H   H286      1.0  0.74680  0.42030  0.66740  1.0000 0.1095847367
H   H287      1.0  0.25320  0.57970  0.66740  1.0000 0.1095847367
H   H288      1.0  0.74680  0.57970  0.33260  1.0000 0.1095847367
H   H289      1.0  0.66740  0.74680  0.57970  1.0000 0.1095847367
H   H290      1.0  0.33260  0.25320  0.57970  1.0000 0.1095847367
H   H291      1.0  0.33260  0.74680  0.42030  1.0000 0.1095847367
H   H292      1.0  0.66740  0.25320  0.42030  1.0000 0.1095847367
H   H293      1.0  0.57970  0.66740  0.74680  1.0000 0.1095847367
H   H294      1.0  0.57970  0.33260  0.25320  1.0000 0.1095847367
H   H295      1.0  0.42030  0.33260  0.74680  1.0000 0.1095847367
H   H296      1.0  0.42030  0.66740  0.25320  1.0000 0.1095847367
H   H297      1.0  0.74680  0.57970  0.66740  1.0000 0.1095847367
H   H298      1.0  0.25320  0.57970  0.33260  1.0000 0.1095847367
H   H299      1.0  0.74680  0.42030  0.33260  1.0000 0.1095847367
H   H300      1.0  0.25320  0.42030  0.66740  1.0000 0.1095847367
H   H301      1.0  0.29450  0.26480  0.45460  1.0000 0.0999543722
H   H302      1.0  0.70550  0.73520  0.45460  1.0000 0.0999543722
H   H303      1.0  0.70550  0.26480  0.54540  1.0000 0.0999543722
H   H304      1.0  0.29450  0.73520  0.54540  1.0000 0.0999543722
H   H305      1.0  0.45460  0.29450  0.26480  1.0000 0.0999543722
H   H306      1.0  0.45460  0.70550  0.73520  1.0000 0.0999543722
H   H307      1.0  0.54540  0.70550  0.26480  1.0000 0.0999543722
H   H308      1.0  0.54540  0.29450  0.73520  1.0000 0.0999543722
H   H309      1.0  0.26480  0.45460  0.29450  1.0000 0.0999543722
H   H310      1.0  0.73520  0.45460  0.70550  1.0000 0.0999543722
H   H311      1.0  0.26480  0.54540  0.70550  1.0000 0.0999543722
H   H312      1.0  0.73520  0.54540  0.29450  1.0000 0.0999543722
H   H313      1.0  0.70550  0.73520  0.54540  1.0000 0.0999543722
H   H314      1.0  0.29450  0.26480  0.54540  1.0000 0.0999543722
H   H315      1.0  0.29450  0.73520  0.45460  1.0000 0.0999543722
H   H316      1.0  0.70550  0.26480  0.45460  1.0000 0.0999543722
H   H317      1.0  0.54540  0.70550  0.73520  1.0000 0.0999543722
H   H318      1.0  0.54540  0.29450  0.26480  1.0000 0.0999543722
H   H319      1.0  0.45460  0.29450  0.73520  1.0000 0.0999543722
H   H320      1.0  0.45460  0.70550  0.26480  1.0000 0.0999543722
H   H321      1.0  0.73520  0.54540  0.70550  1.0000 0.0999543722
H   H322      1.0  0.26480  0.54540  0.29450  1.0000 0.0999543722
H   H323      1.0  0.73520  0.45460  0.29450  1.0000 0.0999543722
H   H324      1.0  0.26480  0.45460  0.70550  1.0000 0.0999543722
H   H325      1.0  0.17440  0.18360  0.26870  1.0000 0.089315176
H   H326      1.0  0.82560  0.81640  0.26870  1.0000 0.089315176
H   H327      1.0  0.82560  0.18360  0.73130  1.0000 0.089315176
H   H328      1.0  0.17440  0.81640  0.73130  1.0000 0.089315176
H   H329      1.0  0.26870  0.17440  0.18360  1.0000 0.089315176
H   H330      1.0  0.26870  0.82560  0.81640  1.0000 0.089315176
H   H331      1.0  0.73130  0.82560  0.18360  1.0000 0.089315176
H   H332      1.0  0.73130  0.17440  0.81640  1.0000 0.089315176
H   H333      1.0  0.18360  0.26870  0.17440  1.0000 0.089315176
H   H334      1.0  0.81640  0.26870  0.82560  1.0000 0.089315176
H   H335      1.0  0.18360  0.73130  0.82560  1.0000 0.089315176
H   H336      1.0  0.81640  0.73130  0.17440  1.0000 0.089315176
H   H337      1.0  0.82560  0.81640  0.73130  1.0000 0.089315176
H   H338      1.0  0.17440  0.18360  0.73130  1.0000 0.089315176
H   H339      1.0  0.17440  0.81640  0.26870  1.0000 0.089315176
H   H340      1.0  0.82560  0.18360  0.26870  1.0000 0.089315176
H   H341      1.0  0.73130  0.82560  0.81640  1.0000 0.089315176
H   H342      1.0  0.73130  0.17440  0.18360  1.0000 0.089315176
H   H343      1.0  0.26870  0.17440  0.81640  1.0000 0.089315176
H   H344      1.0  0.26870  0.82560  0.18360  1.0000 0.089315176
H   H345      1.0  0.81640  0.73130  0.82560  1.0000 0.089315176
H   H346      1.0  0.18360  0.73130  0.17440  1.0000 0.089315176
H   H347      1.0  0.81640  0.26870  0.17440  1.0000 0.089315176
H   H348      1.0  0.18360  0.26870  0.82560  1.0000 0.089315176
H   H349      1.0  0.13650  0.18240  0.30480  1.0000 0.089315176
H   H350      1.0  0.86350  0.81760  0.30480  1.0000 0.089315176
H   H351      1.0  0.86350  0.18240  0.69520  1.0000 0.089315176
H   H352      1.0  0.13650  0.81760  0.69520  1.0000 0.089315176
H   H353      1.0  0.30480  0.13650  0.18240  1.0000 0.089315176
H   H354      1.0  0.30480  0.86350  0.81760  1.0000 0.089315176
H   H355      1.0  0.69520  0.86350  0.18240  1.0000 0.089315176
H   H356      1.0  0.69520  0.13650  0.81760  1.0000 0.089315176
H   H357      1.0  0.18240  0.30480  0.13650  1.0000 0.089315176
H   H358      1.0  0.81760  0.30480  0.86350  1.0000 0.089315176
H   H359      1.0  0.18240  0.69520  0.86350  1.0000 0.089315176
H   H360      1.0  0.81760  0.69520  0.13650  1.0000 0.089315176
H   H361      1.0  0.86350  0.81760  0.69520  1.0000 0.089315176
H   H362      1.0  0.13650  0.18240  0.69520  1.0000 0.089315176
H   H363      1.0  0.13650  0.81760  0.30480  1.0000 0.089315176
H   H364      1.0  0.86350  0.18240  0.30480  1.0000 0.089315176
H   H365      1.0  0.69520  0.86350  0.81760  1.0000 0.089315176
H   H366      1.0  0.69520  0.13650  0.18240  1.0000 0.089315176
H   H367      1.0  0.30480  0.13650  0.81760  1.0000 0.089315176
H   H368      1.0  0.30480  0.86350  0.18240  1.0000 0.089315176
H   H369      1.0  0.81760  0.69520  0.86350  1.0000 0.089315176
H   H370      1.0  0.18240  0.69520  0.13650  1.0000 0.089315176
H   H371      1.0  0.81760  0.30480  0.13650  1.0000 0.089315176
H   H372      1.0  0.18240  0.30480  0.86350  1.0000 0.089315176
H   H373      1.0  0.12700  0.12080  0.25480  1.0000 0.089315176
H   H374      1.0  0.87300  0.87920  0.25480  1.0000 0.089315176
H   H375      1.0  0.87300  0.12080  0.74520  1.0000 0.089315176
H   H376      1.0  0.12700  0.87920  0.74520  1.0000 0.089315176
H   H377      1.0  0.25480  0.12700  0.12080  1.0000 0.089315176
H   H378      1.0  0.25480  0.87300  0.87920  1.0000 0.089315176
H   H379      1.0  0.74520  0.87300  0.12080  1.0000 0.089315176
H   H380      1.0  0.74520  0.12700  0.87920  1.0000 0.089315176
H   H381      1.0  0.12080  0.25480  0.12700  1.0000 0.089315176
H   H382      1.0  0.87920  0.25480  0.87300  1.0000 0.089315176
H   H383      1.0  0.12080  0.74520  0.87300  1.0000 0.089315176
H   H384      1.0  0.87920  0.74520  0.12700  1.0000 0.089315176
H   H385      1.0  0.87300  0.87920  0.74520  1.0000 0.089315176
H   H386      1.0  0.12700  0.12080  0.74520  1.0000 0.089315176
H   H387      1.0  0.12700  0.87920  0.25480  1.0000 0.089315176
H   H388      1.0  0.87300  0.12080  0.25480  1.0000 0.089315176
H   H389      1.0  0.74520  0.87300  0.87920  1.0000 0.089315176
H   H390      1.0  0.74520  0.12700  0.12080  1.0000 0.089315176
H   H391      1.0  0.25480  0.12700  0.87920  1.0000 0.089315176
H   H392      1.0  0.25480  0.87300  0.12080  1.0000 0.089315176
H   H393      1.0  0.87920  0.74520  0.87300  1.0000 0.089315176
H   H394      1.0  0.12080  0.74520  0.12700  1.0000 0.089315176
H   H395      1.0  0.87920  0.25480  0.12700  1.0000 0.089315176
H   H396      1.0  0.12080  0.25480  0.87300  1.0000 0.089315176
H   H397      1.0  0.13720  0.10160  0.30270  1.0000 0.0707604015
H   H398      1.0  0.86280  0.89840  0.30270  1.0000 0.0707604015
H   H399      1.0  0.86280  0.10160  0.69730  1.0000 0.0707604015
H   H400      1.0  0.13720  0.89840  0.69730  1.0000 0.0707604015
H   H401      1.0  0.30270  0.13720  0.10160  1.0000 0.0707604015
H   H402      1.0  0.30270  0.86280  0.89840  1.0000 0.0707604015
H   H403      1.0  0.69730  0.86280  0.10160  1.0000 0.0707604015
H   H404      1.0  0.69730  0.13720  0.89840  1.0000 0.0707604015
H   H405      1.0  0.10160  0.30270  0.13720  1.0000 0.0707604015
H   H406      1.0  0.89840  0.30270  0.86280  1.0000 0.0707604015
H   H407      1.0  0.10160  0.69730  0.86280  1.0000 0.0707604015
H   H408      1.0  0.89840  0.69730  0.13720  1.0000 0.0707604015
H   H409      1.0  0.86280  0.89840  0.69730  1.0000 0.0707604015
H   H410      1.0  0.13720  0.10160  0.69730  1.0000 0.0707604015
H   H411      1.0  0.13720  0.89840  0.30270  1.0000 0.0707604015
H   H412      1.0  0.86280  0.10160  0.30270  1.0000 0.0707604015
H   H413      1.0  0.69730  0.86280  0.89840  1.0000 0.0707604015
H   H414      1.0  0.69730  0.13720  0.10160  1.0000 0.0707604015
H   H415      1.0  0.30270  0.13720  0.89840  1.0000 0.0707604015
H   H416      1.0  0.30270  0.86280  0.10160  1.0000 0.0707604015
H   H417      1.0  0.89840  0.69730  0.86280  1.0000 0.0707604015
H   H418      1.0  0.10160  0.69730  0.13720  1.0000 0.0707604015
H   H419      1.0  0.89840  0.30270  0.13720  1.0000 0.0707604015
H   H420      1.0  0.10160  0.30270  0.86280  1.0000 0.0707604015
H   H421      1.0  0.17520  0.10310  0.26630  1.0000 0.089315176
H   H422      1.0  0.82480  0.89690  0.26630  1.0000 0.089315176
H   H423      1.0  0.82480  0.10310  0.73370  1.0000 0.089315176
H   H424      1.0  0.17520  0.89690  0.73370  1.0000 0.089315176
H   H425      1.0  0.26630  0.17520  0.10310  1.0000 0.089315176
H   H426      1.0  0.26630  0.82480  0.89690  1.0000 0.089315176
H   H427      1.0  0.73370  0.82480  0.10310  1.0000 0.089315176
H   H428      1.0  0.73370  0.17520  0.89690  1.0000 0.089315176
H   H429      1.0  0.10310  0.26630  0.17520  1.0000 0.089315176
H   H430      1.0  0.89690  0.26630  0.82480  1.0000 0.089315176
H   H431      1.0  0.10310  0.73370  0.82480  1.0000 0.089315176
H   H432      1.0  0.89690  0.73370  0.17520  1.0000 0.089315176
H   H433      1.0  0.82480  0.89690  0.73370  1.0000 0.089315176
H   H434      1.0  0.17520  0.10310  0.73370  1.0000 0.089315176
H   H435      1.0  0.17520  0.89690  0.26630  1.0000 0.089315176
H   H436      1.0  0.82480  0.10310  0.26630  1.0000 0.089315176
H   H437      1.0  0.73370  0.82480  0.89690  1.0000 0.089315176
H   H438      1.0  0.73370  0.17520  0.10310  1.0000 0.089315176
H   H439      1.0  0.26630  0.17520  0.89690  1.0000 0.089315176
H   H440      1.0  0.26630  0.82480  0.10310  1.0000 0.089315176
H   H441      1.0  0.89690  0.73370  0.82480  1.0000 0.089315176
H   H442      1.0  0.10310  0.73370  0.17520  1.0000 0.089315176
H   H443      1.0  0.89690  0.26630  0.17520  1.0000 0.089315176
H   H444      1.0  0.10310  0.26630  0.82480  1.0000 0.089315176
C   C1        1.0  0.00000  0.40420  0.50000  1.0000 0.5916833208
C   C2        1.0  0.00000  0.59580  0.50000  1.0000 0.5916833208
C   C3        1.0  0.50000  0.00000  0.40420  1.0000 0.5916833208
C   C4        1.0  0.50000  0.00000  0.59580  1.0000 0.5916833208
C   C5        1.0  0.40420  0.50000  0.00000  1.0000 0.5916833208
C   C6        1.0  0.59580  0.50000  0.00000  1.0000 0.5916833208
C   C7        1.0  0.00000  0.16670  0.50000  1.0000 0.5916833208
C   C8        1.0  0.00000  0.83330  0.50000  1.0000 0.5916833208
C   C9        1.0  0.50000  0.00000  0.16670  1.0000 0.5916833208
C   C10       1.0  0.50000  0.00000  0.83330  1.0000 0.5916833208
C   C11       1.0  0.16670  0.50000  0.00000  1.0000 0.5916833208
C   C12       1.0  0.83330  0.50000  0.00000  1.0000 0.5916833208
C   C13       1.0  0.08270  0.28550  0.41530  1.0000 0.596088864
C   C14       1.0  0.91730  0.71450  0.41530  1.0000 0.596088864
C   C15       1.0  0.91730  0.28550  0.58470  1.0000 0.596088864
C   C16       1.0  0.08270  0.71450  0.58470  1.0000 0.596088864
C   C17       1.0  0.41530  0.08270  0.28550  1.0000 0.596088864
C   C18       1.0  0.41530  0.91730  0.71450  1.0000 0.596088864
C   C19       1.0  0.58470  0.91730  0.28550  1.0000 0.596088864
C   C20       1.0  0.58470  0.08270  0.71450  1.0000 0.596088864
C   C21       1.0  0.28550  0.41530  0.08270  1.0000 0.596088864
C   C22       1.0  0.71450  0.41530  0.91730  1.0000 0.596088864
C   C23       1.0  0.28550  0.58470  0.91730  1.0000 0.596088864
C   C24       1.0  0.71450  0.58470  0.08270  1.0000 0.596088864
C   C25       1.0  0.91730  0.71450  0.58470  1.0000 0.596088864
C   C26       1.0  0.08270  0.28550  0.58470  1.0000 0.596088864
C   C27       1.0  0.08270  0.71450  0.41530  1.0000 0.596088864
C   C28       1.0  0.91730  0.28550  0.41530  1.0000 0.596088864
C   C29       1.0  0.58470  0.91730  0.71450  1.0000 0.596088864
C   C30       1.0  0.58470  0.08270  0.28550  1.0000 0.596088864
C   C31       1.0  0.41530  0.08270  0.71450  1.0000 0.596088864
C   C32       1.0  0.41530  0.91730  0.28550  1.0000 0.596088864
C   C33       1.0  0.71450  0.58470  0.91730  1.0000 0.596088864
C   C34       1.0  0.28550  0.58470  0.08270  1.0000 0.596088864
C   C35       1.0  0.71450  0.41530  0.08270  1.0000 0.596088864
C   C36       1.0  0.28550  0.41530  0.91730  1.0000 0.596088864
C   C37       1.0  0.00000  0.45300  0.50000  1.0000 -0.0800039199
C   C38       1.0  0.00000  0.54700  0.50000  1.0000 -0.0800039199
C   C39       1.0  0.50000  0.00000  0.45300  1.0000 -0.0800039199
C   C40       1.0  0.50000  0.00000  0.54700  1.0000 -0.0800039199
C   C41       1.0  0.45300  0.50000  0.00000  1.0000 -0.0800039199
C   C42       1.0  0.54700  0.50000  0.00000  1.0000 -0.0800039199
C   C43       1.0  0.18020  0.28340  0.31100  1.0000 0.0507373348
C   C44       1.0  0.81980  0.71660  0.31100  1.0000 0.0507373348
C   C45       1.0  0.81980  0.28340  0.68900  1.0000 0.0507373348
C   C46       1.0  0.18020  0.71660  0.68900  1.0000 0.0507373348
C   C47       1.0  0.31100  0.18020  0.28340  1.0000 0.0507373348
C   C48       1.0  0.31100  0.81980  0.71660  1.0000 0.0507373348
C   C49       1.0  0.68900  0.81980  0.28340  1.0000 0.0507373348
C   C50       1.0  0.68900  0.18020  0.71660  1.0000 0.0507373348
C   C51       1.0  0.28340  0.31100  0.18020  1.0000 0.0507373348
C   C52       1.0  0.71660  0.31100  0.81980  1.0000 0.0507373348
C   C53       1.0  0.28340  0.68900  0.81980  1.0000 0.0507373348
C   C54       1.0  0.71660  0.68900  0.18020  1.0000 0.0507373348
C   C55       1.0  0.81980  0.71660  0.68900  1.0000 0.0507373348
C   C56       1.0  0.18020  0.28340  0.68900  1.0000 0.0507373348
C   C57       1.0  0.18020  0.71660  0.31100  1.0000 0.0507373348
C   C58       1.0  0.81980  0.28340  0.31100  1.0000 0.0507373348
C   C59       1.0  0.68900  0.81980  0.71660  1.0000 0.0507373348
C   C60       1.0  0.68900  0.18020  0.28340  1.0000 0.0507373348
C   C61       1.0  0.31100  0.18020  0.71660  1.0000 0.0507373348
C   C62       1.0  0.31100  0.81980  0.28340  1.0000 0.0507373348
C   C63       1.0  0.71660  0.68900  0.81980  1.0000 0.0507373348
C   C64       1.0  0.28340  0.68900  0.18020  1.0000 0.0507373348
C   C65       1.0  0.71660  0.31100  0.18020  1.0000 0.0507373348
C   C66       1.0  0.28340  0.31100  0.81980  1.0000 0.0507373348
C   C67       1.0  0.11610  0.31560  0.34370  1.0000 -0.0954232811
C   C68       1.0  0.88390  0.68440  0.34370  1.0000 -0.0954232811
C   C69       1.0  0.88390  0.31560  0.65630  1.0000 -0.0954232811
C   C70       1.0  0.11610  0.68440  0.65630  1.0000 -0.0954232811
C   C71       1.0  0.34370  0.11610  0.31560  1.0000 -0.0954232811
C   C72       1.0  0.34370  0.88390  0.68440  1.0000 -0.0954232811
C   C73       1.0  0.65630  0.88390  0.31560  1.0000 -0.0954232811
C   C74       1.0  0.65630  0.11610  0.68440  1.0000 -0.0954232811
C   C75       1.0  0.31560  0.34370  0.11610  1.0000 -0.0954232811
C   C76       1.0  0.68440  0.34370  0.88390  1.0000 -0.0954232811
C   C77       1.0  0.31560  0.65630  0.88390  1.0000 -0.0954232811
C   C78       1.0  0.68440  0.65630  0.11610  1.0000 -0.0954232811
C   C79       1.0  0.88390  0.68440  0.65630  1.0000 -0.0954232811
C   C80       1.0  0.11610  0.31560  0.65630  1.0000 -0.0954232811
C   C81       1.0  0.11610  0.68440  0.34370  1.0000 -0.0954232811
C   C82       1.0  0.88390  0.31560  0.34370  1.0000 -0.0954232811
C   C83       1.0  0.65630  0.88390  0.68440  1.0000 -0.0954232811
C   C84       1.0  0.65630  0.11610  0.31560  1.0000 -0.0954232811
C   C85       1.0  0.34370  0.11610  0.68440  1.0000 -0.0954232811
C   C86       1.0  0.34370  0.88390  0.31560  1.0000 -0.0954232811
C   C87       1.0  0.68440  0.65630  0.88390  1.0000 -0.0954232811
C   C88       1.0  0.31560  0.65630  0.11610  1.0000 -0.0954232811
C   C89       1.0  0.68440  0.34370  0.11610  1.0000 -0.0954232811
C   C90       1.0  0.31560  0.34370  0.88390  1.0000 -0.0954232811
C   C91       1.0  0.18280  0.25090  0.34300  1.0000 -0.0104471731
C   C92       1.0  0.81720  0.74910  0.34300  1.0000 -0.0104471731
C   C93       1.0  0.81720  0.25090  0.65700  1.0000 -0.0104471731
C   C94       1.0  0.18280  0.74910  0.65700  1.0000 -0.0104471731
C   C95       1.0  0.34300  0.18280  0.25090  1.0000 -0.0104471731
C   C96       1.0  0.34300  0.81720  0.74910  1.0000 -0.0104471731
C   C97       1.0  0.65700  0.81720  0.25090  1.0000 -0.0104471731
C   C98       1.0  0.65700  0.18280  0.74910  1.0000 -0.0104471731
C   C99       1.0  0.25090  0.34300  0.18280  1.0000 -0.0104471731
C   C100      1.0  0.74910  0.34300  0.81720  1.0000 -0.0104471731
C   C101      1.0  0.25090  0.65700  0.81720  1.0000 -0.0104471731
C   C102      1.0  0.74910  0.65700  0.18280  1.0000 -0.0104471731
C   C103      1.0  0.81720  0.74910  0.65700  1.0000 -0.0104471731
C   C104      1.0  0.18280  0.25090  0.65700  1.0000 -0.0104471731
C   C105      1.0  0.18280  0.74910  0.34300  1.0000 -0.0104471731
C   C106      1.0  0.81720  0.25090  0.34300  1.0000 -0.0104471731
C   C107      1.0  0.65700  0.81720  0.74910  1.0000 -0.0104471731
C   C108      1.0  0.65700  0.18280  0.25090  1.0000 -0.0104471731
C   C109      1.0  0.34300  0.18280  0.74910  1.0000 -0.0104471731
C   C110      1.0  0.34300  0.81720  0.25090  1.0000 -0.0104471731
C   C111      1.0  0.74910  0.65700  0.81720  1.0000 -0.0104471731
C   C112      1.0  0.25090  0.65700  0.18280  1.0000 -0.0104471731
C   C113      1.0  0.74910  0.34300  0.18280  1.0000 -0.0104471731
C   C114      1.0  0.25090  0.34300  0.81720  1.0000 -0.0104471731
C   C115      1.0  0.14960  0.25210  0.37830  1.0000 -0.1508982706
C   C116      1.0  0.85040  0.74790  0.37830  1.0000 -0.1508982706
C   C117      1.0  0.85040  0.25210  0.62170  1.0000 -0.1508982706
C   C118      1.0  0.14960  0.74790  0.62170  1.0000 -0.1508982706
C   C119      1.0  0.37830  0.14960  0.25210  1.0000 -0.1508982706
C   C120      1.0  0.37830  0.85040  0.74790  1.0000 -0.1508982706
C   C121      1.0  0.62170  0.85040  0.25210  1.0000 -0.1508982706
C   C122      1.0  0.62170  0.14960  0.74790  1.0000 -0.1508982706
C   C123      1.0  0.25210  0.37830  0.14960  1.0000 -0.1508982706
C   C124      1.0  0.74790  0.37830  0.85040  1.0000 -0.1508982706
C   C125      1.0  0.25210  0.62170  0.85040  1.0000 -0.1508982706
C   C126      1.0  0.74790  0.62170  0.14960  1.0000 -0.1508982706
C   C127      1.0  0.85040  0.74790  0.62170  1.0000 -0.1508982706
C   C128      1.0  0.14960  0.25210  0.62170  1.0000 -0.1508982706
C   C129      1.0  0.14960  0.74790  0.37830  1.0000 -0.1508982706
C   C130      1.0  0.85040  0.25210  0.37830  1.0000 -0.1508982706
C   C131      1.0  0.62170  0.85040  0.74790  1.0000 -0.1508982706
C   C132      1.0  0.62170  0.14960  0.25210  1.0000 -0.1508982706
C   C133      1.0  0.37830  0.14960  0.74790  1.0000 -0.1508982706
C   C134      1.0  0.37830  0.85040  0.25210  1.0000 -0.1508982706
C   C135      1.0  0.74790  0.62170  0.85040  1.0000 -0.1508982706
C   C136      1.0  0.25210  0.62170  0.14960  1.0000 -0.1508982706
C   C137      1.0  0.74790  0.37830  0.14960  1.0000 -0.1508982706
C   C138      1.0  0.25210  0.37830  0.85040  1.0000 -0.1508982706
C   C139      1.0  0.11730  0.28430  0.37760  1.0000 -0.0104471731
C   C140      1.0  0.88270  0.71570  0.37760  1.0000 -0.0104471731
C   C141      1.0  0.88270  0.28430  0.62240  1.0000 -0.0104471731
C   C142      1.0  0.11730  0.71570  0.62240  1.0000 -0.0104471731
C   C143      1.0  0.37760  0.11730  0.28430  1.0000 -0.0104471731
C   C144      1.0  0.37760  0.88270  0.71570  1.0000 -0.0104471731
C   C145      1.0  0.62240  0.88270  0.28430  1.0000 -0.0104471731
C   C146      1.0  0.62240  0.11730  0.71570  1.0000 -0.0104471731
C   C147      1.0  0.28430  0.37760  0.11730  1.0000 -0.0104471731
C   C148      1.0  0.71570  0.37760  0.88270  1.0000 -0.0104471731
C   C149      1.0  0.28430  0.62240  0.88270  1.0000 -0.0104471731
C   C150      1.0  0.71570  0.62240  0.11730  1.0000 -0.0104471731
C   C151      1.0  0.88270  0.71570  0.62240  1.0000 -0.0104471731
C   C152      1.0  0.11730  0.28430  0.62240  1.0000 -0.0104471731
C   C153      1.0  0.11730  0.71570  0.37760  1.0000 -0.0104471731
C   C154      1.0  0.88270  0.28430  0.37760  1.0000 -0.0104471731
C   C155      1.0  0.62240  0.88270  0.71570  1.0000 -0.0104471731
C   C156      1.0  0.62240  0.11730  0.28430  1.0000 -0.0104471731
C   C157      1.0  0.37760  0.11730  0.71570  1.0000 -0.0104471731
C   C158      1.0  0.37760  0.88270  0.28430  1.0000 -0.0104471731
C   C159      1.0  0.71570  0.62240  0.88270  1.0000 -0.0104471731
C   C160      1.0  0.28430  0.62240  0.11730  1.0000 -0.0104471731
C   C161      1.0  0.71570  0.37760  0.11730  1.0000 -0.0104471731
C   C162      1.0  0.28430  0.37760  0.88270  1.0000 -0.0104471731
C   C163      1.0  0.00000  0.11830  0.50000  1.0000 -0.0800039199
C   C164      1.0  0.00000  0.88170  0.50000  1.0000 -0.0800039199
C   C165      1.0  0.50000  0.00000  0.11830  1.0000 -0.0800039199
C   C166      1.0  0.50000  0.00000  0.88170  1.0000 -0.0800039199
C   C167      1.0  0.11830  0.50000  0.00000  1.0000 -0.0800039199
C   C168      1.0  0.88170  0.50000  0.00000  1.0000 -0.0800039199
C   C169      1.0  0.00000  0.47710  0.45990  1.0000 -0.0800039199
C   C170      1.0  0.00000  0.52290  0.45990  1.0000 -0.0800039199
C   C171      1.0  0.00000  0.47710  0.54010  1.0000 -0.0800039199
C   C172      1.0  0.00000  0.52290  0.54010  1.0000 -0.0800039199
C   C173      1.0  0.45990  0.00000  0.47710  1.0000 -0.0800039199
C   C174      1.0  0.45990  0.00000  0.52290  1.0000 -0.0800039199
C   C175      1.0  0.54010  0.00000  0.47710  1.0000 -0.0800039199
C   C176      1.0  0.54010  0.00000  0.52290  1.0000 -0.0800039199
C   C177      1.0  0.47710  0.45990  0.00000  1.0000 -0.0800039199
C   C178      1.0  0.52290  0.45990  0.00000  1.0000 -0.0800039199
C   C179      1.0  0.47710  0.54010  0.00000  1.0000 -0.0800039199
C   C180      1.0  0.52290  0.54010  0.00000  1.0000 -0.0800039199
C   C181      1.0  0.21860  0.21820  0.33830  1.0000 0.0999543722
C   C182      1.0  0.78140  0.78180  0.33830  1.0000 0.0999543722
C   C183      1.0  0.78140  0.21820  0.66170  1.0000 0.0999543722
C   C184      1.0  0.21860  0.78180  0.66170  1.0000 0.0999543722
C   C185      1.0  0.33830  0.21860  0.21820  1.0000 0.0999543722
C   C186      1.0  0.33830  0.78140  0.78180  1.0000 0.0999543722
C   C187      1.0  0.66170  0.78140  0.21820  1.0000 0.0999543722
C   C188      1.0  0.66170  0.21860  0.78180  1.0000 0.0999543722
C   C189      1.0  0.21820  0.33830  0.21860  1.0000 0.0999543722
C   C190      1.0  0.78180  0.33830  0.78140  1.0000 0.0999543722
C   C191      1.0  0.21820  0.66170  0.78140  1.0000 0.0999543722
C   C192      1.0  0.78180  0.66170  0.21860  1.0000 0.0999543722
C   C193      1.0  0.78140  0.78180  0.66170  1.0000 0.0999543722
C   C194      1.0  0.21860  0.21820  0.66170  1.0000 0.0999543722
C   C195      1.0  0.21860  0.78180  0.33830  1.0000 0.0999543722
C   C196      1.0  0.78140  0.21820  0.33830  1.0000 0.0999543722
C   C197      1.0  0.66170  0.78140  0.78180  1.0000 0.0999543722
C   C198      1.0  0.66170  0.21860  0.21820  1.0000 0.0999543722
C   C199      1.0  0.33830  0.21860  0.78180  1.0000 0.0999543722
C   C200      1.0  0.33830  0.78140  0.21820  1.0000 0.0999543722
C   C201      1.0  0.78180  0.66170  0.78140  1.0000 0.0999543722
C   C202      1.0  0.21820  0.66170  0.21860  1.0000 0.0999543722
C   C203      1.0  0.78180  0.33830  0.21860  1.0000 0.0999543722
C   C204      1.0  0.21820  0.33830  0.78140  1.0000 0.0999543722
C   C205      1.0  0.21930  0.27450  0.27870  1.0000 -0.0314096797
C   C206      1.0  0.78070  0.72550  0.27870  1.0000 -0.0314096797
C   C207      1.0  0.78070  0.27450  0.72130  1.0000 -0.0314096797
C   C208      1.0  0.21930  0.72550  0.72130  1.0000 -0.0314096797
C   C209      1.0  0.27870  0.21930  0.27450  1.0000 -0.0314096797
C   C210      1.0  0.27870  0.78070  0.72550  1.0000 -0.0314096797
C   C211      1.0  0.72130  0.78070  0.27450  1.0000 -0.0314096797
C   C212      1.0  0.72130  0.21930  0.72550  1.0000 -0.0314096797
C   C213      1.0  0.27450  0.27870  0.21930  1.0000 -0.0314096797
C   C214      1.0  0.72550  0.27870  0.78070  1.0000 -0.0314096797
C   C215      1.0  0.27450  0.72130  0.78070  1.0000 -0.0314096797
C   C216      1.0  0.72550  0.72130  0.21930  1.0000 -0.0314096797
C   C217      1.0  0.78070  0.72550  0.72130  1.0000 -0.0314096797
C   C218      1.0  0.21930  0.27450  0.72130  1.0000 -0.0314096797
C   C219      1.0  0.21930  0.72550  0.27870  1.0000 -0.0314096797
C   C220      1.0  0.78070  0.27450  0.27870  1.0000 -0.0314096797
C   C221      1.0  0.72130  0.78070  0.72550  1.0000 -0.0314096797
C   C222      1.0  0.72130  0.21930  0.27450  1.0000 -0.0314096797
C   C223      1.0  0.27870  0.21930  0.72550  1.0000 -0.0314096797
C   C224      1.0  0.27870  0.78070  0.27450  1.0000 -0.0314096797
C   C225      1.0  0.72550  0.72130  0.78070  1.0000 -0.0314096797
C   C226      1.0  0.27450  0.72130  0.21930  1.0000 -0.0314096797
C   C227      1.0  0.72550  0.27870  0.21930  1.0000 -0.0314096797
C   C228      1.0  0.27450  0.27870  0.78070  1.0000 -0.0314096797
C   C229      1.0  0.24130  0.23610  0.29560  1.0000 -0.0248190592
C   C230      1.0  0.75870  0.76390  0.29560  1.0000 -0.0248190592
C   C231      1.0  0.75870  0.23610  0.70440  1.0000 -0.0248190592
C   C232      1.0  0.24130  0.76390  0.70440  1.0000 -0.0314096797
C   C233      1.0  0.29560  0.24130  0.23610  1.0000 -0.0248190592
C   C234      1.0  0.29560  0.75870  0.76390  1.0000 -0.0314096797
C   C235      1.0  0.70440  0.75870  0.23610  1.0000 -0.0248190592
C   C236      1.0  0.70440  0.24130  0.76390  1.0000 -0.0248190592
C   C237      1.0  0.23610  0.29560  0.24130  1.0000 -0.0248190592
C   C238      1.0  0.76390  0.29560  0.75870  1.0000 -0.0248190592
C   C239      1.0  0.23610  0.70440  0.75870  1.0000 -0.0314096797
C   C240      1.0  0.76390  0.70440  0.24130  1.0000 -0.0248190592
C   C241      1.0  0.75870  0.76390  0.70440  1.0000 -0.0248190592
C   C242      1.0  0.24130  0.23610  0.70440  1.0000 -0.0314096797
C   C243      1.0  0.24130  0.76390  0.29560  1.0000 -0.0314096797
C   C244      1.0  0.75870  0.23610  0.29560  1.0000 -0.0248190592
C   C245      1.0  0.70440  0.75870  0.76390  1.0000 -0.0248190592
C   C246      1.0  0.70440  0.24130  0.23610  1.0000 -0.0248190592
C   C247      1.0  0.29560  0.24130  0.76390  1.0000 -0.0314096797
C   C248      1.0  0.29560  0.75870  0.23610  1.0000 -0.0248190592
C   C249      1.0  0.76390  0.70440  0.75870  1.0000 -0.0248190592
C   C250      1.0  0.23610  0.70440  0.24130  1.0000 -0.0248190592
C   C251      1.0  0.76390  0.29560  0.24130  1.0000 -0.0248190592
C   C252      1.0  0.23610  0.29560  0.75870  1.0000 -0.0314096797
C   C253      1.0  0.14750  0.31620  0.31060  1.0000 -0.1508982706
C   C254      1.0  0.85250  0.68380  0.31060  1.0000 -0.1508982706
C   C255      1.0  0.85250  0.31620  0.68940  1.0000 -0.1508982706
C   C256      1.0  0.14750  0.68380  0.68940  1.0000 -0.1508982706
C   C257      1.0  0.31060  0.14750  0.31620  1.0000 -0.1508982706
C   C258      1.0  0.31060  0.85250  0.68380  1.0000 -0.1508982706
C   C259      1.0  0.68940  0.85250  0.31620  1.0000 -0.1508982706
C   C260      1.0  0.68940  0.14750  0.68380  1.0000 -0.1508982706
C   C261      1.0  0.31620  0.31060  0.14750  1.0000 -0.1508982706
C   C262      1.0  0.68380  0.31060  0.85250  1.0000 -0.1508982706
C   C263      1.0  0.31620  0.68940  0.85250  1.0000 -0.1508982706
C   C264      1.0  0.68380  0.68940  0.14750  1.0000 -0.1508982706
C   C265      1.0  0.85250  0.68380  0.68940  1.0000 -0.1508982706
C   C266      1.0  0.14750  0.31620  0.68940  1.0000 -0.1508982706
C   C267      1.0  0.14750  0.68380  0.31060  1.0000 -0.1508982706
C   C268      1.0  0.85250  0.31620  0.31060  1.0000 -0.1508982706
C   C269      1.0  0.68940  0.85250  0.68380  1.0000 -0.1508982706
C   C270      1.0  0.68940  0.14750  0.31620  1.0000 -0.1508982706
C   C271      1.0  0.31060  0.14750  0.68380  1.0000 -0.1508982706
C   C272      1.0  0.31060  0.85250  0.31620  1.0000 -0.1508982706
C   C273      1.0  0.68380  0.68940  0.85250  1.0000 -0.1508982706
C   C274      1.0  0.31620  0.68940  0.14750  1.0000 -0.1508982706
C   C275      1.0  0.68380  0.31060  0.14750  1.0000 -0.1508982706
C   C276      1.0  0.31620  0.31060  0.85250  1.0000 -0.1508982706
C   C277      1.0  0.00000  0.02420  0.50000  1.0000 0.0707604015
C   C278      1.0  0.00000  0.97580  0.50000  1.0000 0.0707604015
C   C279      1.0  0.50000  0.00000  0.02420  1.0000 0.0707604015
C   C280      1.0  0.50000  0.00000  0.97580  1.0000 0.0707604015
C   C281      1.0  0.02420  0.50000  0.00000  1.0000 0.0707604015
C   C282      1.0  0.97580  0.50000  0.00000  1.0000 0.0707604015
C   C283      1.0  0.03670  0.04750  0.50000  1.0000 -0.1723640895
C   C284      1.0  0.96330  0.95250  0.50000  1.0000 -0.1723640895
C   C285      1.0  0.96330  0.04750  0.50000  1.0000 -0.1723640895
C   C286      1.0  0.03670  0.95250  0.50000  1.0000 -0.1723640895
C   C287      1.0  0.50000  0.03670  0.04750  1.0000 -0.1723640895
C   C288      1.0  0.50000  0.96330  0.95250  1.0000 -0.1723640895
C   C289      1.0  0.50000  0.96330  0.04750  1.0000 -0.1723640895
C   C290      1.0  0.50000  0.03670  0.95250  1.0000 -0.1723640895
C   C291      1.0  0.04750  0.50000  0.03670  1.0000 -0.1723640895
C   C292      1.0  0.95250  0.50000  0.96330  1.0000 -0.1723640895
C   C293      1.0  0.04750  0.50000  0.96330  1.0000 -0.1723640895
C   C294      1.0  0.95250  0.50000  0.03670  1.0000 -0.1723640895
C   C295      1.0  0.04010  0.09580  0.50000  1.0000 -0.0732966437
C   C296      1.0  0.95990  0.90420  0.50000  1.0000 -0.0732966437
C   C297      1.0  0.95990  0.09580  0.50000  1.0000 -0.0732966437
C   C298      1.0  0.04010  0.90420  0.50000  1.0000 -0.0732966437
C   C299      1.0  0.50000  0.04010  0.09580  1.0000 -0.0732966437
C   C300      1.0  0.50000  0.95990  0.90420  1.0000 -0.0732966437
C   C301      1.0  0.50000  0.95990  0.09580  1.0000 -0.0732966437
C   C302      1.0  0.50000  0.04010  0.90420  1.0000 -0.0732966437
C   C303      1.0  0.09580  0.50000  0.04010  1.0000 -0.0732966437
C   C304      1.0  0.90420  0.50000  0.95990  1.0000 -0.0732966437
C   C305      1.0  0.09580  0.50000  0.95990  1.0000 -0.0732966437
C   C306      1.0  0.90420  0.50000  0.04010  1.0000 -0.0732966437
C   C307      1.0  0.19920  0.17080  0.33250  1.0000 -0.2350043877
C   C308      1.0  0.80080  0.82920  0.33250  1.0000 -0.2350043877
C   C309      1.0  0.80080  0.17080  0.66750  1.0000 -0.2350043877
C   C310      1.0  0.19920  0.82920  0.66750  1.0000 -0.2350043877
C   C311      1.0  0.33250  0.19920  0.17080  1.0000 -0.2350043877
C   C312      1.0  0.33250  0.80080  0.82920  1.0000 -0.2350043877
C   C313      1.0  0.66750  0.80080  0.17080  1.0000 -0.2350043877
C   C314      1.0  0.66750  0.19920  0.82920  1.0000 -0.2350043877
C   C315      1.0  0.17080  0.33250  0.19920  1.0000 -0.2350043877
C   C316      1.0  0.82920  0.33250  0.80080  1.0000 -0.2350043877
C   C317      1.0  0.17080  0.66750  0.80080  1.0000 -0.2350043877
C   C318      1.0  0.82920  0.66750  0.19920  1.0000 -0.2350043877
C   C319      1.0  0.80080  0.82920  0.66750  1.0000 -0.2350043877
C   C320      1.0  0.19920  0.17080  0.66750  1.0000 -0.2350043877
C   C321      1.0  0.19920  0.82920  0.33250  1.0000 -0.2350043877
C   C322      1.0  0.80080  0.17080  0.33250  1.0000 -0.2350043877
C   C323      1.0  0.66750  0.80080  0.82920  1.0000 -0.2350043877
C   C324      1.0  0.66750  0.19920  0.17080  1.0000 -0.2350043877
C   C325      1.0  0.33250  0.19920  0.82920  1.0000 -0.2350043877
C   C326      1.0  0.33250  0.80080  0.17080  1.0000 -0.2350043877
C   C327      1.0  0.82920  0.66750  0.80080  1.0000 -0.2350043877
C   C328      1.0  0.17080  0.66750  0.19920  1.0000 -0.2350043877
C   C329      1.0  0.82920  0.33250  0.19920  1.0000 -0.2350043877
C   C330      1.0  0.17080  0.33250  0.80080  1.0000 -0.2350043877
C   C331      1.0  0.25050  0.22050  0.37890  1.0000 -0.2322338371
C   C332      1.0  0.74950  0.77950  0.37890  1.0000 -0.2322338371
C   C333      1.0  0.74950  0.22050  0.62110  1.0000 -0.2322338371
C   C334      1.0  0.25050  0.77950  0.62110  1.0000 -0.2322338371
C   C335      1.0  0.37890  0.25050  0.22050  1.0000 -0.2322338371
C   C336      1.0  0.37890  0.74950  0.77950  1.0000 -0.2322338371
C   C337      1.0  0.62110  0.74950  0.22050  1.0000 -0.2322338371
C   C338      1.0  0.62110  0.25050  0.77950  1.0000 -0.2322338371
C   C339      1.0  0.22050  0.37890  0.25050  1.0000 -0.2322338371
C   C340      1.0  0.77950  0.37890  0.74950  1.0000 -0.2322338371
C   C341      1.0  0.22050  0.62110  0.74950  1.0000 -0.2322338371
C   C342      1.0  0.77950  0.62110  0.25050  1.0000 -0.2322338371
C   C343      1.0  0.74950  0.77950  0.62110  1.0000 -0.2322338371
C   C344      1.0  0.25050  0.22050  0.62110  1.0000 -0.2322338371
C   C345      1.0  0.25050  0.77950  0.37890  1.0000 -0.2322338371
C   C346      1.0  0.74950  0.22050  0.37890  1.0000 -0.2322338371
C   C347      1.0  0.62110  0.74950  0.77950  1.0000 -0.2322338371
C   C348      1.0  0.62110  0.25050  0.22050  1.0000 -0.2322338371
C   C349      1.0  0.37890  0.25050  0.77950  1.0000 -0.2322338371
C   C350      1.0  0.37890  0.74950  0.22050  1.0000 -0.2322338371
C   C351      1.0  0.77950  0.62110  0.74950  1.0000 -0.2322338371
C   C352      1.0  0.22050  0.62110  0.25050  1.0000 -0.2322338371
C   C353      1.0  0.77950  0.37890  0.25050  1.0000 -0.2322338371
C   C354      1.0  0.22050  0.37890  0.74950  1.0000 -0.2322338371
C   C355      1.0  0.27220  0.26890  0.38810  1.0000 -0.1145810918
C   C356      1.0  0.72780  0.73110  0.38810  1.0000 -0.1145810918
C   C357      1.0  0.72780  0.26890  0.61190  1.0000 -0.1145810918
C   C358      1.0  0.27220  0.73110  0.61190  1.0000 -0.1145810918
C   C359      1.0  0.38810  0.27220  0.26890  1.0000 -0.1145810918
C   C360      1.0  0.38810  0.72780  0.73110  1.0000 -0.1145810918
C   C361      1.0  0.61190  0.72780  0.26890  1.0000 -0.1145810918
C   C362      1.0  0.61190  0.27220  0.73110  1.0000 -0.1145810918
C   C363      1.0  0.26890  0.38810  0.27220  1.0000 -0.1145810918
C   C364      1.0  0.73110  0.38810  0.72780  1.0000 -0.1145810918
C   C365      1.0  0.26890  0.61190  0.72780  1.0000 -0.1145810918
C   C366      1.0  0.73110  0.61190  0.27220  1.0000 -0.1145810918
C   C367      1.0  0.72780  0.73110  0.61190  1.0000 -0.1145810918
C   C368      1.0  0.27220  0.26890  0.61190  1.0000 -0.1145810918
C   C369      1.0  0.27220  0.73110  0.38810  1.0000 -0.1145810918
C   C370      1.0  0.72780  0.26890  0.38810  1.0000 -0.1145810918
C   C371      1.0  0.61190  0.72780  0.73110  1.0000 -0.1145810918
C   C372      1.0  0.61190  0.27220  0.26890  1.0000 -0.1145810918
C   C373      1.0  0.38810  0.27220  0.73110  1.0000 -0.1145810918
C   C374      1.0  0.38810  0.72780  0.26890  1.0000 -0.1145810918
C   C375      1.0  0.73110  0.61190  0.72780  1.0000 -0.1145810918
C   C376      1.0  0.26890  0.61190  0.27220  1.0000 -0.1145810918
C   C377      1.0  0.73110  0.38810  0.27220  1.0000 -0.1145810918
C   C378      1.0  0.26890  0.38810  0.72780  1.0000 -0.1145810918
C   C379      1.0  0.30790  0.27290  0.42650  1.0000 -0.3520951345
C   C380      1.0  0.69210  0.72710  0.42650  1.0000 -0.3520951345
C   C381      1.0  0.69210  0.27290  0.57350  1.0000 -0.3520951345
C   C382      1.0  0.30790  0.72710  0.57350  1.0000 -0.3520951345
C   C383      1.0  0.42650  0.30790  0.27290  1.0000 -0.3520951345
C   C384      1.0  0.42650  0.69210  0.72710  1.0000 -0.3520951345
C   C385      1.0  0.57350  0.69210  0.27290  1.0000 -0.3520951345
C   C386      1.0  0.57350  0.30790  0.72710  1.0000 -0.3520951345
C   C387      1.0  0.27290  0.42650  0.30790  1.0000 -0.3520951345
C   C388      1.0  0.72710  0.42650  0.69210  1.0000 -0.3520951345
C   C389      1.0  0.27290  0.57350  0.69210  1.0000 -0.3520951345
C   C390      1.0  0.72710  0.57350  0.30790  1.0000 -0.3520951345
C   C391      1.0  0.69210  0.72710  0.57350  1.0000 -0.3520951345
C   C392      1.0  0.30790  0.27290  0.57350  1.0000 -0.3520951345
C   C393      1.0  0.30790  0.72710  0.42650  1.0000 -0.3520951345
C   C394      1.0  0.69210  0.27290  0.42650  1.0000 -0.3520951345
C   C395      1.0  0.57350  0.69210  0.72710  1.0000 -0.3520951345
C   C396      1.0  0.57350  0.30790  0.27290  1.0000 -0.3520951345
C   C397      1.0  0.42650  0.30790  0.72710  1.0000 -0.3520951345
C   C398      1.0  0.42650  0.69210  0.27290  1.0000 -0.3520951345
C   C399      1.0  0.72710  0.57350  0.69210  1.0000 -0.3520951345
C   C400      1.0  0.27290  0.57350  0.30790  1.0000 -0.3520951345
C   C401      1.0  0.72710  0.42650  0.30790  1.0000 -0.3520951345
C   C402      1.0  0.27290  0.42650  0.69210  1.0000 -0.3520951345
C   C403      1.0  0.16340  0.16720  0.29450  1.0000 -0.1333581208
C   C404      1.0  0.83660  0.83280  0.29450  1.0000 -0.1333581208
C   C405      1.0  0.83660  0.16720  0.70550  1.0000 -0.1333581208
C   C406      1.0  0.16340  0.83280  0.70550  1.0000 -0.1333581208
C   C407      1.0  0.29450  0.16340  0.16720  1.0000 -0.1333581208
C   C408      1.0  0.29450  0.83660  0.83280  1.0000 -0.1333581208
C   C409      1.0  0.70550  0.83660  0.16720  1.0000 -0.1333581208
C   C410      1.0  0.70550  0.16340  0.83280  1.0000 -0.1333581208
C   C411      1.0  0.16720  0.29450  0.16340  1.0000 -0.1333581208
C   C412      1.0  0.83280  0.29450  0.83660  1.0000 -0.1333581208
C   C413      1.0  0.16720  0.70550  0.83660  1.0000 -0.1333581208
C   C414      1.0  0.83280  0.70550  0.16340  1.0000 -0.1333581208
C   C415      1.0  0.83660  0.83280  0.70550  1.0000 -0.1333581208
C   C416      1.0  0.16340  0.16720  0.70550  1.0000 -0.1333581208
C   C417      1.0  0.16340  0.83280  0.29450  1.0000 -0.1333581208
C   C418      1.0  0.83660  0.16720  0.29450  1.0000 -0.1333581208
C   C419      1.0  0.70550  0.83660  0.83280  1.0000 -0.1333581208
C   C420      1.0  0.70550  0.16340  0.16720  1.0000 -0.1333581208
C   C421      1.0  0.29450  0.16340  0.83280  1.0000 -0.1333581208
C   C422      1.0  0.29450  0.83660  0.16720  1.0000 -0.1333581208
C   C423      1.0  0.83280  0.70550  0.83660  1.0000 -0.1333581208
C   C424      1.0  0.16720  0.70550  0.16340  1.0000 -0.1333581208
C   C425      1.0  0.83280  0.29450  0.16340  1.0000 -0.1333581208
C   C426      1.0  0.16720  0.29450  0.83660  1.0000 -0.1333581208
C   C427      1.0  0.14930  0.11830  0.27790  1.0000 -0.3125813515
C   C428      1.0  0.85070  0.88170  0.27790  1.0000 -0.3125813515
C   C429      1.0  0.85070  0.11830  0.72210  1.0000 -0.3125813515
C   C430      1.0  0.14930  0.88170  0.72210  1.0000 -0.3125813515
C   C431      1.0  0.27790  0.14930  0.11830  1.0000 -0.3125813515
C   C432      1.0  0.27790  0.85070  0.88170  1.0000 -0.3125813515
C   C433      1.0  0.72210  0.85070  0.11830  1.0000 -0.3125813515
C   C434      1.0  0.72210  0.14930  0.88170  1.0000 -0.3125813515
C   C435      1.0  0.11830  0.27790  0.14930  1.0000 -0.3125813515
C   C436      1.0  0.88170  0.27790  0.85070  1.0000 -0.3125813515
C   C437      1.0  0.11830  0.72210  0.85070  1.0000 -0.3125813515
C   C438      1.0  0.88170  0.72210  0.14930  1.0000 -0.3125813515
C   C439      1.0  0.85070  0.88170  0.72210  1.0000 -0.3125813515
C   C440      1.0  0.14930  0.11830  0.72210  1.0000 -0.3125813515
C   C441      1.0  0.14930  0.88170  0.27790  1.0000 -0.3125813515
C   C442      1.0  0.85070  0.11830  0.27790  1.0000 -0.3125813515
C   C443      1.0  0.72210  0.85070  0.88170  1.0000 -0.3125813515
C   C444      1.0  0.72210  0.14930  0.11830  1.0000 -0.3125813515
C   C445      1.0  0.27790  0.14930  0.88170  1.0000 -0.3125813515
C   C446      1.0  0.27790  0.85070  0.11830  1.0000 -0.3125813515
C   C447      1.0  0.88170  0.72210  0.85070  1.0000 -0.3125813515
C   C448      1.0  0.11830  0.72210  0.14930  1.0000 -0.3125813515
C   C449      1.0  0.88170  0.27790  0.14930  1.0000 -0.3125813515
C   C450      1.0  0.11830  0.27790  0.85070  1.0000 -0.3125813515
O   O1        1.0  0.00000  0.28600  0.50000  1.0000 -1.0285134141
O   O2        1.0  0.00000  0.71400  0.50000  1.0000 -1.0285134141
O   O3        1.0  0.50000  0.00000  0.28600  1.0000 -1.0285134141
O   O4        1.0  0.50000  0.00000  0.71400  1.0000 -1.0285134141
O   O5        1.0  0.28600  0.50000  0.00000  1.0000 -1.0285134141
O   O6        1.0  0.71400  0.50000  0.00000  1.0000 -1.0285134141
O   O7        1.0  0.00000  0.38514  0.46280  1.0000 -0.5266759833
O   O8        1.0  0.00000  0.61486  0.46280  1.0000 -0.5266759833
O   O9        1.0  0.00000  0.38514  0.53720  1.0000 -0.5266759833
O   O10       1.0  0.00000  0.61486  0.53720  1.0000 -0.5266759833
O   O11       1.0  0.46280  0.00000  0.38514  1.0000 -0.5266759833
O   O12       1.0  0.46280  0.00000  0.61486  1.0000 -0.5266759833
O   O13       1.0  0.53720  0.00000  0.38514  1.0000 -0.5266759833
O   O14       1.0  0.53720  0.00000  0.61486  1.0000 -0.5266759833
O   O15       1.0  0.38514  0.46280  0.00000  1.0000 -0.5266759833
O   O16       1.0  0.61486  0.46280  0.00000  1.0000 -0.5266759833
O   O17       1.0  0.38514  0.53720  0.00000  1.0000 -0.5266759833
O   O18       1.0  0.61486  0.53720  0.00000  1.0000 -0.5266759833
O   O19       1.0  0.05160  0.31183  0.40976  1.0000 -0.5114671612
O   O20       1.0  0.94840  0.68817  0.40976  1.0000 -0.5114671612
O   O21       1.0  0.94840  0.31183  0.59024  1.0000 -0.5114671612
O   O22       1.0  0.05160  0.68817  0.59024  1.0000 -0.5114671612
O   O23       1.0  0.40976  0.05160  0.31183  1.0000 -0.5114671612
O   O24       1.0  0.40976  0.94840  0.68817  1.0000 -0.5114671612
O   O25       1.0  0.59024  0.94840  0.31183  1.0000 -0.5114671612
O   O26       1.0  0.59024  0.05160  0.68817  1.0000 -0.5114671612
O   O27       1.0  0.31183  0.40976  0.05160  1.0000 -0.5114671612
O   O28       1.0  0.68817  0.40976  0.94840  1.0000 -0.5114671612
O   O29       1.0  0.31183  0.59024  0.94840  1.0000 -0.5114671612
O   O30       1.0  0.68817  0.59024  0.05160  1.0000 -0.5114671612
O   O31       1.0  0.94840  0.68817  0.59024  1.0000 -0.5114671612
O   O32       1.0  0.05160  0.31183  0.59024  1.0000 -0.5114671612
O   O33       1.0  0.05160  0.68817  0.40976  1.0000 -0.5114671612
O   O34       1.0  0.94840  0.31183  0.40976  1.0000 -0.5114671612
O   O35       1.0  0.59024  0.94840  0.68817  1.0000 -0.5114671612
O   O36       1.0  0.59024  0.05160  0.31183  1.0000 -0.5114671612
O   O37       1.0  0.40976  0.05160  0.68817  1.0000 -0.5114671612
O   O38       1.0  0.40976  0.94840  0.31183  1.0000 -0.5114671612
O   O39       1.0  0.68817  0.59024  0.94840  1.0000 -0.5114671612
O   O40       1.0  0.31183  0.59024  0.05160  1.0000 -0.5114671612
O   O41       1.0  0.68817  0.40976  0.05160  1.0000 -0.5114671612
O   O42       1.0  0.31183  0.40976  0.94840  1.0000 -0.5114671612
O   O43       1.0  0.08766  0.25881  0.44660  1.0000 -0.5266759833
O   O44       1.0  0.91234  0.74119  0.44660  1.0000 -0.5266759833
O   O45       1.0  0.91234  0.25881  0.55340  1.0000 -0.5266759833
O   O46       1.0  0.08766  0.74119  0.55340  1.0000 -0.5266759833
O   O47       1.0  0.44660  0.08766  0.25881  1.0000 -0.5266759833
O   O48       1.0  0.44660  0.91234  0.74119  1.0000 -0.5266759833
O   O49       1.0  0.55340  0.91234  0.25881  1.0000 -0.5266759833
O   O50       1.0  0.55340  0.08766  0.74119  1.0000 -0.5266759833
O   O51       1.0  0.25881  0.44660  0.08766  1.0000 -0.5266759833
O   O52       1.0  0.74119  0.44660  0.91234  1.0000 -0.5266759833
O   O53       1.0  0.25881  0.55340  0.91234  1.0000 -0.5266759833
O   O54       1.0  0.74119  0.55340  0.08766  1.0000 -0.5266759833
O   O55       1.0  0.91234  0.74119  0.55340  1.0000 -0.5266759833
O   O56       1.0  0.08766  0.25881  0.55340  1.0000 -0.5266759833
O   O57       1.0  0.08766  0.74119  0.44660  1.0000 -0.5266759833
O   O58       1.0  0.91234  0.25881  0.44660  1.0000 -0.5266759833
O   O59       1.0  0.55340  0.91234  0.74119  1.0000 -0.5266759833
O   O60       1.0  0.55340  0.08766  0.25881  1.0000 -0.5266759833
O   O61       1.0  0.44660  0.08766  0.74119  1.0000 -0.5266759833
O   O62       1.0  0.44660  0.91234  0.25881  1.0000 -0.5266759833
O   O63       1.0  0.74119  0.55340  0.91234  1.0000 -0.5266759833
O   O64       1.0  0.25881  0.55340  0.08766  1.0000 -0.5266759833
O   O65       1.0  0.74119  0.44660  0.08766  1.0000 -0.5266759833
O   O66       1.0  0.25881  0.44660  0.91234  1.0000 -0.5266759833
O   O67       1.0  0.03740  0.18560  0.50000  1.0000 -0.5196593626
O   O68       1.0  0.96260  0.81440  0.50000  1.0000 -0.5196593626
O   O69       1.0  0.96260  0.18560  0.50000  1.0000 -0.5196593626
O   O70       1.0  0.03740  0.81440  0.50000  1.0000 -0.5196593626
O   O71       1.0  0.50000  0.03740  0.18560  1.0000 -0.5196593626
O   O72       1.0  0.50000  0.96260  0.81440  1.0000 -0.5196593626
O   O73       1.0  0.50000  0.96260  0.18560  1.0000 -0.5196593626
O   O74       1.0  0.50000  0.03740  0.81440  1.0000 -0.5196593626
O   O75       1.0  0.18560  0.50000  0.03740  1.0000 -0.5196593626
O   O76       1.0  0.81440  0.50000  0.96260  1.0000 -0.5196593626
O   O77       1.0  0.18560  0.50000  0.96260  1.0000 -0.5196593626
O   O78       1.0  0.81440  0.50000  0.03740  1.0000 -0.5196593626
