# generated by PACMAN-DDEC6 charge (https://github.com/sxm13/PACMAN/)
data_structure
_chemical_formula_sum              "Fe24 H192 C336 N16 O104"
_cell_length_a       16.117
_cell_length_b       31.104
_cell_length_c       41.896
_cell_angle_alpha    90
_cell_angle_beta     90
_cell_angle_gamma    90

_symmetry_space_group_name_H-M    "P 1"
_symmetry_Int_Tables_number       1

loop_
  _symmetry_equiv_pos_as_xyz
  'x, y, z'

loop_
  _atom_site_type_symbol
  _atom_site_label
  _atom_site_symmetry_multiplicity
  _atom_site_fract_x
  _atom_site_fract_y
  _atom_site_fract_z
  _atom_site_occupancy
  _atom_site_charge
Fe  Fe1       1.0  0.95922  0.02439  0.74139  0.6667 1.1612593751
Fe  Fe2       1.0  0.04078  0.97561  0.24139  0.6667 1.1612593751
Fe  Fe3       1.0  0.95922  0.47561  0.24139  0.6667 1.1612593751
Fe  Fe4       1.0  0.04078  0.52439  0.74139  0.6667 1.1612593751
Fe  Fe5       1.0  0.03472  0.05559  0.81662  0.6667 1.1305348556
Fe  Fe6       1.0  0.96528  0.94441  0.31662  0.6667 1.1305348556
Fe  Fe7       1.0  0.03472  0.44441  0.31662  0.6667 1.1305348556
Fe  Fe8       1.0  0.96528  0.55559  0.81662  0.6667 1.1305348556
Fe  Fe9       1.0  0.11600  0.96400  0.77915  0.6667 1.1415492558
Fe  Fe10      1.0  0.88400  0.03600  0.27915  0.6667 1.1415492558
Fe  Fe11      1.0  0.11600  0.53600  0.27915  0.6667 1.1305348556
Fe  Fe12      1.0  0.88400  0.46400  0.77915  0.6667 1.1415492558
Fe  Fe13      1.0  0.38826  0.28783  0.52048  0.6667 1.2297395985
Fe  Fe14      1.0  0.61174  0.71217  0.02048  0.6667 1.2297395985
Fe  Fe15      1.0  0.38826  0.21217  0.02048  0.6667 1.2297395985
Fe  Fe16      1.0  0.61174  0.78783  0.52048  0.6667 1.2297395985
Fe  Fe17      1.0  0.47631  0.19741  0.48399  0.6667 1.3173148255
Fe  Fe18      1.0  0.52369  0.80259  0.98399  0.6667 1.3173148255
Fe  Fe19      1.0  0.47631  0.30259  0.98399  0.6667 1.3173148255
Fe  Fe20      1.0  0.52369  0.69741  0.48399  0.6667 1.3173148255
Fe  Fe21      1.0  0.54123  0.22718  0.56027  0.6667 1.1415492558
Fe  Fe22      1.0  0.45877  0.77282  0.06027  0.6667 1.1415492558
Fe  Fe23      1.0  0.54123  0.27282  0.06027  0.6667 1.1415492558
Fe  Fe24      1.0  0.45877  0.72718  0.56027  0.6667 1.1415492558
H   H1        1.0  0.38073  0.07407  0.51522  1.0000 0.1303765649
H   H2        1.0  0.61927  0.92593  0.01522  1.0000 0.1303765649
H   H3        1.0  0.38073  0.42593  0.01522  1.0000 0.1303765649
H   H4        1.0  0.61927  0.57407  0.51522  1.0000 0.1303765649
H   H5        1.0  0.32108  0.01249  0.53643  1.0000 0.1303765649
H   H6        1.0  0.67892  0.98751  0.03643  1.0000 0.1303765649
H   H7        1.0  0.32108  0.48751  0.03643  1.0000 0.1303765649
H   H8        1.0  0.67892  0.51249  0.53643  1.0000 0.1303765649
H   H9        1.0  0.39257  0.04879  0.62427  1.0000 0.1303765649
H   H10       1.0  0.60743  0.95121  0.12427  1.0000 0.1303765649
H   H11       1.0  0.39257  0.45121  0.12427  1.0000 0.1303765649
H   H12       1.0  0.60743  0.54879  0.62427  1.0000 0.1303765649
H   H13       1.0  0.45222  0.11037  0.60306  1.0000 0.1233184035
H   H14       1.0  0.54778  0.88963  0.10306  1.0000 0.1233184035
H   H15       1.0  0.45222  0.38963  0.10306  1.0000 0.1233184035
H   H16       1.0  0.54778  0.61037  0.60306  1.0000 0.1233184035
H   H17       1.0  0.26436  0.94930  0.69657  1.0000 0.1303765649
H   H18       1.0  0.73564  0.05070  0.19657  1.0000 0.1303765649
H   H19       1.0  0.26436  0.55070  0.19657  1.0000 0.1303765649
H   H20       1.0  0.73564  0.44930  0.69657  1.0000 0.1303765649
H   H21       1.0  0.34325  0.94584  0.65033  1.0000 0.1303765649
H   H22       1.0  0.65675  0.05416  0.15033  1.0000 0.1303765649
H   H23       1.0  0.34325  0.55416  0.15033  1.0000 0.1303765649
H   H24       1.0  0.65675  0.44584  0.65033  1.0000 0.1303765649
H   H25       1.0  0.18893  0.02969  0.60791  1.0000 0.1303765649
H   H26       1.0  0.81107  0.97031  0.10791  1.0000 0.1303765649
H   H27       1.0  0.18893  0.47031  0.10791  1.0000 0.1303765649
H   H28       1.0  0.81107  0.52969  0.60791  1.0000 0.1303765649
H   H29       1.0  0.11004  0.03316  0.65415  1.0000 0.1303765649
H   H30       1.0  0.88996  0.96684  0.15415  1.0000 0.1303765649
H   H31       1.0  0.11004  0.46684  0.15415  1.0000 0.1303765649
H   H32       1.0  0.88996  0.53316  0.65415  1.0000 0.1303765649
H   H33       1.0  0.30782  0.84333  0.58109  1.0000 0.1303765649
H   H34       1.0  0.69218  0.15667  0.08109  1.0000 0.1303765649
H   H35       1.0  0.30782  0.65667  0.08109  1.0000 0.1303765649
H   H36       1.0  0.69218  0.34333  0.58109  1.0000 0.1303765649
H   H37       1.0  0.25544  0.90800  0.59993  1.0000 0.1303765649
H   H38       1.0  0.74456  0.09200  0.09993  1.0000 0.1303765649
H   H39       1.0  0.25544  0.59200  0.09993  1.0000 0.1303765649
H   H40       1.0  0.74456  0.40800  0.59993  1.0000 0.1303765649
H   H41       1.0  0.45853  0.96916  0.56778  1.0000 0.1303765649
H   H42       1.0  0.54147  0.03084  0.06778  1.0000 0.1303765649
H   H43       1.0  0.45853  0.53084  0.06778  1.0000 0.1303765649
H   H44       1.0  0.54147  0.46916  0.56778  1.0000 0.1303765649
H   H45       1.0  0.51091  0.90449  0.54894  1.0000 0.1303765649
H   H46       1.0  0.48909  0.09551  0.04894  1.0000 0.1303765649
H   H47       1.0  0.51091  0.59551  0.04894  1.0000 0.1303765649
H   H48       1.0  0.48909  0.40449  0.54894  1.0000 0.1303765649
H   H49       1.0  0.24640  0.30365  0.60532  1.0000 0.1303765649
H   H50       1.0  0.75360  0.69635  0.10532  1.0000 0.1303765649
H   H51       1.0  0.24640  0.19635  0.10532  1.0000 0.1303765649
H   H52       1.0  0.75360  0.80365  0.60532  1.0000 0.1303765649
H   H53       1.0  0.16820  0.30852  0.65167  1.0000 0.1303765649
H   H54       1.0  0.83180  0.69148  0.15167  1.0000 0.1303765649
H   H55       1.0  0.16820  0.19148  0.15167  1.0000 0.1303765649
H   H56       1.0  0.83180  0.80852  0.65167  1.0000 0.1303765649
H   H57       1.0  0.31659  0.22156  0.69377  1.0000 0.1303765649
H   H58       1.0  0.68341  0.77844  0.19377  1.0000 0.1303765649
H   H59       1.0  0.31659  0.27844  0.19377  1.0000 0.1303765649
H   H60       1.0  0.68341  0.72156  0.69377  1.0000 0.1303765649
H   H61       1.0  0.39479  0.21668  0.64742  1.0000 0.1303765649
H   H62       1.0  0.60521  0.78332  0.14742  1.0000 0.1303765649
H   H63       1.0  0.39479  0.28332  0.14742  1.0000 0.1303765649
H   H64       1.0  0.60521  0.71668  0.64742  1.0000 0.1303765649
H   H65       1.0  0.06383  0.13644  0.69796  1.0000 0.1303765649
H   H66       1.0  0.93617  0.86356  0.19796  1.0000 0.1303765649
H   H67       1.0  0.06383  0.36356  0.19796  1.0000 0.1303765649
H   H68       1.0  0.93617  0.63644  0.69796  1.0000 0.1303765649
H   H69       1.0  0.11724  0.19976  0.67712  1.0000 0.1303765649
H   H70       1.0  0.88276  0.80024  0.17712  1.0000 0.1303765649
H   H71       1.0  0.11724  0.30024  0.17712  1.0000 0.1303765649
H   H72       1.0  0.88276  0.69976  0.67712  1.0000 0.1303765649
H   H73       1.0  0.16864  0.24109  0.76581  1.0000 0.1303765649
H   H74       1.0  0.83136  0.75891  0.26581  1.0000 0.1303765649
H   H75       1.0  0.16864  0.25891  0.26581  1.0000 0.1303765649
H   H76       1.0  0.83136  0.74109  0.76581  1.0000 0.1303765649
H   H77       1.0  0.11524  0.17777  0.78665  1.0000 0.1303765649
H   H78       1.0  0.88476  0.82223  0.28665  1.0000 0.1303765649
H   H79       1.0  0.11524  0.32223  0.28665  1.0000 0.1303765649
H   H80       1.0  0.88476  0.67777  0.78665  1.0000 0.1303765649
H   H81       1.0  0.97836  0.34720  0.74307  1.0000 0.1303765649
H   H82       1.0  0.02164  0.65280  0.24307  1.0000 0.1303765649
H   H83       1.0  0.97836  0.15280  0.24307  1.0000 0.1303765649
H   H84       1.0  0.02164  0.84720  0.74307  1.0000 0.1303765649
H   H85       1.0  0.03793  0.28174  0.72966  1.0000 0.1303765649
H   H86       1.0  0.96207  0.71826  0.22966  1.0000 0.1303765649
H   H87       1.0  0.03793  0.21826  0.22966  1.0000 0.1303765649
H   H88       1.0  0.96207  0.78174  0.72966  1.0000 0.1303765649
H   H89       1.0  0.25276  0.34161  0.70982  1.0000 0.1303765649
H   H90       1.0  0.74724  0.65839  0.20982  1.0000 0.1303765649
H   H91       1.0  0.25276  0.15839  0.20982  1.0000 0.1303765649
H   H92       1.0  0.74724  0.84161  0.70982  1.0000 0.1303765649
H   H93       1.0  0.19319  0.40707  0.72322  1.0000 0.1233184035
H   H94       1.0  0.80681  0.59293  0.22322  1.0000 0.1233184035
H   H95       1.0  0.19319  0.09293  0.22322  1.0000 0.1233184035
H   H96       1.0  0.80681  0.90707  0.72322  1.0000 0.1233184035
H   H97       1.0  0.00850  0.88112  0.85499  1.0000 0.1303765649
H   H98       1.0  0.99150  0.11888  0.35499  1.0000 0.1303765649
H   H99       1.0  0.00850  0.61888  0.35499  1.0000 0.1303765649
H   H100      1.0  0.99150  0.38112  0.85499  1.0000 0.1303765649
H   H101      1.0  0.99924  0.83848  0.90029  1.0000 0.1372095208
H   H102      1.0  0.00076  0.16152  0.40029  1.0000 0.1372095208
H   H103      1.0  0.99924  0.66152  0.40029  1.0000 0.1372095208
H   H104      1.0  0.00076  0.33848  0.90029  1.0000 0.1372095208
H   H105      1.0  0.04391  0.94180  0.95525  1.0000 0.1372095208
H   H106      1.0  0.95609  0.05820  0.45525  1.0000 0.1372095208
H   H107      1.0  0.04391  0.55820  0.45525  1.0000 0.1372095208
H   H108      1.0  0.95609  0.44180  0.95525  1.0000 0.1372095208
H   H109      1.0  0.05318  0.98443  0.90995  1.0000 0.1303765649
H   H110      1.0  0.94682  0.01557  0.40995  1.0000 0.1303765649
H   H111      1.0  0.05318  0.51557  0.40995  1.0000 0.1303765649
H   H112      1.0  0.94682  0.48443  0.90995  1.0000 0.1303765649
H   H113      1.0  0.86807  0.75351  0.99651  1.0000 0.1303765649
H   H114      1.0  0.13193  0.24649  0.49651  1.0000 0.1303765649
H   H115      1.0  0.86807  0.74649  0.49651  1.0000 0.1303765649
H   H116      1.0  0.13193  0.25351  0.99651  1.0000 0.1303765649
H   H117      1.0  0.99551  0.78418  0.98447  1.0000 0.1303765649
H   H118      1.0  0.00449  0.21582  0.48447  1.0000 0.1303765649
H   H119      1.0  0.99551  0.71582  0.48447  1.0000 0.1303765649
H   H120      1.0  0.00449  0.28418  0.98447  1.0000 0.1303765649
H   H121      1.0  0.87991  0.88970  0.95154  1.0000 0.1303765649
H   H122      1.0  0.12009  0.11030  0.45154  1.0000 0.1303765649
H   H123      1.0  0.87991  0.61030  0.45154  1.0000 0.1303765649
H   H124      1.0  0.12009  0.38970  0.95154  1.0000 0.1303765649
H   H125      1.0  0.75248  0.85904  0.96358  1.0000 0.1303765649
H   H126      1.0  0.24752  0.14096  0.46358  1.0000 0.1303765649
H   H127      1.0  0.75248  0.64096  0.46358  1.0000 0.1303765649
H   H128      1.0  0.24752  0.35904  0.96358  1.0000 0.1303765649
H   H129      1.0  0.29453  0.83281  0.95157  1.0000 0.1303765649
H   H130      1.0  0.70547  0.16719  0.45157  1.0000 0.1303765649
H   H131      1.0  0.29453  0.66719  0.45157  1.0000 0.1303765649
H   H132      1.0  0.70547  0.33281  0.95157  1.0000 0.1303765649
H   H133      1.0  0.16795  0.85755  0.93265  1.0000 0.1303765649
H   H134      1.0  0.83205  0.14245  0.43265  1.0000 0.1303765649
H   H135      1.0  0.16795  0.64245  0.43265  1.0000 0.1303765649
H   H136      1.0  0.83205  0.35755  0.93265  1.0000 0.1303765649
H   H137      1.0  0.06450  0.83406  0.01816  1.0000 0.1303765649
H   H138      1.0  0.93550  0.16594  0.51816  1.0000 0.1303765649
H   H139      1.0  0.06450  0.66594  0.51816  1.0000 0.1303765649
H   H140      1.0  0.93550  0.33406  0.01816  1.0000 0.1303765649
H   H141      1.0  0.19108  0.80932  0.03708  1.0000 0.1303765649
H   H142      1.0  0.80892  0.19068  0.53708  1.0000 0.1303765649
H   H143      1.0  0.19108  0.69068  0.53708  1.0000 0.1303765649
H   H144      1.0  0.80892  0.30932  0.03708  1.0000 0.1303765649
H   H145      1.0  0.55867  0.26907  0.40159  1.0000 0.1303765649
H   H146      1.0  0.44133  0.73093  0.90159  1.0000 0.1303765649
H   H147      1.0  0.55867  0.23093  0.90159  1.0000 0.1303765649
H   H148      1.0  0.44133  0.76907  0.40159  1.0000 0.1303765649
H   H149      1.0  0.58990  0.31077  0.35727  1.0000 0.1303765649
H   H150      1.0  0.41010  0.68923  0.85727  1.0000 0.1372095208
H   H151      1.0  0.58990  0.18923  0.85727  1.0000 0.1372095208
H   H152      1.0  0.41010  0.81077  0.35727  1.0000 0.1303765649
H   H153      1.0  0.46333  0.40958  0.39532  1.0000 0.1303765649
H   H154      1.0  0.53667  0.59042  0.89532  1.0000 0.1303765649
H   H155      1.0  0.46333  0.09042  0.89532  1.0000 0.1303765649
H   H156      1.0  0.53667  0.90958  0.39532  1.0000 0.1303765649
H   H157      1.0  0.43210  0.36788  0.43963  1.0000 0.1303765649
H   H158      1.0  0.56790  0.63212  0.93963  1.0000 0.1303765649
H   H159      1.0  0.43210  0.13212  0.93963  1.0000 0.1303765649
H   H160      1.0  0.56790  0.86788  0.43963  1.0000 0.1303765649
H   H161      1.0  0.71548  0.44153  0.27135  1.0000 0.1303765649
H   H162      1.0  0.28452  0.55847  0.77135  1.0000 0.1303765649
H   H163      1.0  0.71548  0.05847  0.77135  1.0000 0.1303765649
H   H164      1.0  0.28452  0.94153  0.27135  1.0000 0.1303765649
H   H165      1.0  0.58311  0.42052  0.28652  1.0000 0.1303765649
H   H166      1.0  0.41689  0.57948  0.78652  1.0000 0.1303765649
H   H167      1.0  0.58311  0.07948  0.78652  1.0000 0.1303765649
H   H168      1.0  0.41689  0.92052  0.28652  1.0000 0.1303765649
H   H169      1.0  0.66770  0.39237  0.37429  1.0000 0.1303765649
H   H170      1.0  0.33230  0.60763  0.87429  1.0000 0.1303765649
H   H171      1.0  0.66770  0.10763  0.87429  1.0000 0.1303765649
H   H172      1.0  0.33230  0.89237  0.37429  1.0000 0.1303765649
H   H173      1.0  0.80007  0.41338  0.35912  1.0000 0.1303765649
H   H174      1.0  0.19993  0.58662  0.85912  1.0000 0.1303765649
H   H175      1.0  0.80007  0.08662  0.85912  1.0000 0.1303765649
H   H176      1.0  0.19993  0.91338  0.35912  1.0000 0.1303765649
H   H177      1.0  0.37125  0.49991  0.31119  1.0000 0.1303765649
H   H178      1.0  0.62875  0.50009  0.81119  1.0000 0.1303765649
H   H179      1.0  0.37125  0.00009  0.81119  1.0000 0.1303765649
H   H180      1.0  0.62875  0.99991  0.31119  1.0000 0.1303765649
H   H181      1.0  0.49829  0.46927  0.32386  1.0000 0.1303765649
H   H182      1.0  0.50171  0.53073  0.82386  1.0000 0.1303765649
H   H183      1.0  0.49829  0.03073  0.82386  1.0000 0.1303765649
H   H184      1.0  0.50171  0.96927  0.32386  1.0000 0.1303765649
H   H185      1.0  0.38763  0.35450  0.33511  1.0000 0.1303765649
H   H186      1.0  0.61237  0.64550  0.83511  1.0000 0.1303765649
H   H187      1.0  0.38763  0.14550  0.83511  1.0000 0.1303765649
H   H188      1.0  0.61237  0.85450  0.33511  1.0000 0.1303765649
H   H189      1.0  0.26059  0.38514  0.32244  1.0000 0.1233184035
H   H190      1.0  0.73941  0.61486  0.82244  1.0000 0.1233184035
H   H191      1.0  0.26059  0.11486  0.82244  1.0000 0.1233184035
H   H192      1.0  0.73941  0.88514  0.32244  1.0000 0.1233184035
C   C1        1.0  0.47260  0.13610  0.54480  1.0000 0.5988342179
C   C2        1.0  0.52740  0.86390  0.04480  1.0000 0.5988342179
C   C3        1.0  0.47260  0.36390  0.04480  1.0000 0.5988342179
C   C4        1.0  0.52740  0.63610  0.54480  1.0000 0.5988342179
C   C5        1.0  0.42240  0.09830  0.55700  1.0000 -0.0303698729
C   C6        1.0  0.57760  0.90170  0.05700  1.0000 -0.0303698729
C   C7        1.0  0.42240  0.40170  0.05700  1.0000 -0.0303698729
C   C8        1.0  0.57760  0.59830  0.55700  1.0000 -0.0303698729
C   C9        1.0  0.38310  0.06900  0.53710  1.0000 -0.0711539458
C   C10       1.0  0.61690  0.93100  0.03710  1.0000 -0.0711539458
C   C11       1.0  0.38310  0.43100  0.03710  1.0000 -0.0711539458
C   C12       1.0  0.61690  0.56900  0.53710  1.0000 -0.0711539458
C   C13       1.0  0.34740  0.03210  0.54980  1.0000 -0.207906309
C   C14       1.0  0.65260  0.96790  0.04980  1.0000 -0.207906309
C   C15       1.0  0.34740  0.46790  0.04980  1.0000 -0.207906309
C   C16       1.0  0.65260  0.53210  0.54980  1.0000 -0.207906309
C   C17       1.0  0.35090  0.02450  0.58250  1.0000 0.1908274941
C   C18       1.0  0.64910  0.97550  0.08250  1.0000 0.1908274941
C   C19       1.0  0.35090  0.47550  0.08250  1.0000 0.1908274941
C   C20       1.0  0.64910  0.52450  0.58250  1.0000 0.1908274941
C   C21       1.0  0.39020  0.05390  0.60240  1.0000 -0.207906309
C   C22       1.0  0.60980  0.94610  0.10240  1.0000 -0.207906309
C   C23       1.0  0.39020  0.44610  0.10240  1.0000 -0.207906309
C   C24       1.0  0.60980  0.55390  0.60240  1.0000 -0.207906309
C   C25       1.0  0.42590  0.09080  0.58970  1.0000 -0.0794249344
C   C26       1.0  0.57410  0.90920  0.08970  1.0000 -0.0794249344
C   C27       1.0  0.42590  0.40920  0.08970  1.0000 -0.0794249344
C   C28       1.0  0.57410  0.59080  0.58970  1.0000 -0.0794249344
C   C29       1.0  0.11770  0.99470  0.70780  1.0000 0.5816045473
C   C30       1.0  0.88230  0.00530  0.20780  1.0000 0.5816045473
C   C31       1.0  0.11770  0.50530  0.20780  1.0000 0.5816045473
C   C32       1.0  0.88230  0.49470  0.70780  1.0000 0.5816045473
C   C33       1.0  0.17940  0.99160  0.67990  1.0000 -0.0227803113
C   C34       1.0  0.82060  0.00840  0.17990  1.0000 -0.0227803113
C   C35       1.0  0.17940  0.50840  0.17990  1.0000 -0.0227803113
C   C36       1.0  0.82060  0.49160  0.67990  1.0000 -0.0227803113
C   C37       1.0  0.24920  0.96540  0.67880  1.0000 -0.0794249344
C   C38       1.0  0.75080  0.03460  0.17880  1.0000 -0.0794249344
C   C39       1.0  0.24920  0.53460  0.17880  1.0000 -0.0794249344
C   C40       1.0  0.75080  0.46540  0.67880  1.0000 -0.0794249344
C   C41       1.0  0.29650  0.96330  0.65110  1.0000 -0.1905103095
C   C42       1.0  0.70350  0.03670  0.15110  1.0000 -0.1828889668
C   C43       1.0  0.29650  0.53670  0.15110  1.0000 -0.1905103095
C   C44       1.0  0.70350  0.46330  0.65110  1.0000 -0.1905103095
C   C45       1.0  0.27390  0.98740  0.62450  1.0000 0.1567433571
C   C46       1.0  0.72610  0.01260  0.12450  1.0000 0.1534984852
C   C47       1.0  0.27390  0.51260  0.12450  1.0000 0.1534984852
C   C48       1.0  0.72610  0.48740  0.62450  1.0000 0.1567433571
C   C49       1.0  0.20410  0.01360  0.62570  1.0000 -0.1828889668
C   C50       1.0  0.79590  0.98640  0.12570  1.0000 -0.1828889668
C   C51       1.0  0.20410  0.48640  0.12570  1.0000 -0.1828889668
C   C52       1.0  0.79590  0.51360  0.62570  1.0000 -0.1828889668
C   C53       1.0  0.15680  0.01570  0.65340  1.0000 -0.08797775
C   C54       1.0  0.84320  0.98430  0.15340  1.0000 -0.08797775
C   C55       1.0  0.15680  0.48430  0.15340  1.0000 -0.08797775
C   C56       1.0  0.84320  0.51570  0.65340  1.0000 -0.08797775
C   C57       1.0  0.44970  0.82430  0.55390  1.0000 0.5988342179
C   C58       1.0  0.55030  0.17570  0.05390  1.0000 0.5941377799
C   C59       1.0  0.44970  0.67570  0.05390  1.0000 0.5988342179
C   C60       1.0  0.55030  0.32430  0.55390  1.0000 0.5941377799
C   C61       1.0  0.41460  0.86750  0.56310  1.0000 -0.0303698729
C   C62       1.0  0.58540  0.13250  0.06310  1.0000 -0.0303698729
C   C63       1.0  0.41460  0.63250  0.06310  1.0000 -0.0303698729
C   C64       1.0  0.58540  0.36750  0.56310  1.0000 -0.0303698729
C   C65       1.0  0.33800  0.86850  0.57840  1.0000 -0.0794249344
C   C66       1.0  0.66200  0.13150  0.07840  1.0000 -0.0794249344
C   C67       1.0  0.33800  0.63150  0.07840  1.0000 -0.0794249344
C   C68       1.0  0.66200  0.36850  0.57840  1.0000 -0.0794249344
C   C69       1.0  0.30660  0.90730  0.58970  1.0000 -0.1976498834
C   C70       1.0  0.69340  0.09270  0.08970  1.0000 -0.1905103095
C   C71       1.0  0.30660  0.59270  0.08970  1.0000 -0.1976498834
C   C72       1.0  0.69340  0.40730  0.58970  1.0000 -0.1905103095
C   C73       1.0  0.35180  0.94500  0.58570  1.0000 0.1726036949
C   C74       1.0  0.64820  0.05500  0.08570  1.0000 0.1726036949
C   C75       1.0  0.35180  0.55500  0.08570  1.0000 0.1726036949
C   C76       1.0  0.64820  0.44500  0.58570  1.0000 0.1726036949
C   C77       1.0  0.42830  0.94390  0.57040  1.0000 -0.1976498834
C   C78       1.0  0.57170  0.05610  0.07040  1.0000 -0.1976498834
C   C79       1.0  0.42830  0.55610  0.07040  1.0000 -0.1976498834
C   C80       1.0  0.57170  0.44390  0.57040  1.0000 -0.1976498834
C   C81       1.0  0.45970  0.90520  0.55920  1.0000 -0.0794249344
C   C82       1.0  0.54030  0.09480  0.05920  1.0000 -0.0711539458
C   C83       1.0  0.45970  0.59480  0.05920  1.0000 -0.0711539458
C   C84       1.0  0.54030  0.40520  0.55920  1.0000 -0.0794249344
C   C85       1.0  0.37800  0.25890  0.59170  1.0000 0.5988342179
C   C86       1.0  0.62200  0.74110  0.09170  1.0000 0.5988342179
C   C87       1.0  0.37800  0.24110  0.09170  1.0000 0.5988342179
C   C88       1.0  0.62200  0.75890  0.59170  1.0000 0.5988342179
C   C89       1.0  0.32830  0.25970  0.62180  1.0000 -0.040821693
C   C90       1.0  0.67170  0.74030  0.12180  1.0000 -0.040821693
C   C91       1.0  0.32830  0.24030  0.12180  1.0000 -0.040821693
C   C92       1.0  0.67170  0.75970  0.62180  1.0000 -0.040821693
C   C93       1.0  0.26050  0.28720  0.62300  1.0000 -0.0711539458
C   C94       1.0  0.73950  0.71280  0.12300  1.0000 -0.0711539458
C   C95       1.0  0.26050  0.21280  0.12300  1.0000 -0.0711539458
C   C96       1.0  0.73950  0.78720  0.62300  1.0000 -0.0711539458
C   C97       1.0  0.21360  0.29010  0.65080  1.0000 -0.1905103095
C   C98       1.0  0.78640  0.70990  0.15080  1.0000 -0.1905103095
C   C99       1.0  0.21360  0.20990  0.15080  1.0000 -0.1905103095
C   C100      1.0  0.78640  0.79010  0.65080  1.0000 -0.1905103095
C   C101      1.0  0.23460  0.26550  0.67730  1.0000 0.1726036949
C   C102      1.0  0.76540  0.73450  0.17730  1.0000 0.1726036949
C   C103      1.0  0.23460  0.23450  0.17730  1.0000 0.1726036949
C   C104      1.0  0.76540  0.76550  0.67730  1.0000 0.1726036949
C   C105      1.0  0.30250  0.23800  0.67600  1.0000 -0.1905103095
C   C106      1.0  0.69750  0.76200  0.17600  1.0000 -0.1905103095
C   C107      1.0  0.30250  0.26200  0.17600  1.0000 -0.1905103095
C   C108      1.0  0.69750  0.73800  0.67600  1.0000 -0.1905103095
C   C109      1.0  0.34940  0.23510  0.64830  1.0000 -0.08797775
C   C110      1.0  0.65060  0.76490  0.14830  1.0000 -0.08797775
C   C111      1.0  0.34940  0.26490  0.14830  1.0000 -0.08797775
C   C112      1.0  0.65060  0.73510  0.64830  1.0000 -0.08797775
C   C113      1.0  0.04230  0.11170  0.75700  1.0000 0.5686259489
C   C114      1.0  0.95770  0.88830  0.25700  1.0000 0.5686259489
C   C115      1.0  0.04230  0.38830  0.25700  1.0000 0.5686259489
C   C116      1.0  0.95770  0.61170  0.75700  1.0000 0.5686259489
C   C117      1.0  0.08420  0.15080  0.74440  1.0000 -0.040821693
C   C118      1.0  0.91580  0.84920  0.24440  1.0000 -0.040821693
C   C119      1.0  0.08420  0.34920  0.24440  1.0000 -0.040821693
C   C120      1.0  0.91580  0.65080  0.74440  1.0000 -0.040821693
C   C121      1.0  0.08480  0.15740  0.71160  1.0000 -0.0794249344
C   C122      1.0  0.91520  0.84260  0.21160  1.0000 -0.0794249344
C   C123      1.0  0.08480  0.34260  0.21160  1.0000 -0.0794249344
C   C124      1.0  0.91520  0.65740  0.71160  1.0000 -0.0794249344
C   C125      1.0  0.11680  0.19540  0.69910  1.0000 -0.1905103095
C   C126      1.0  0.88320  0.80460  0.19910  1.0000 -0.1828889668
C   C127      1.0  0.11680  0.30460  0.19910  1.0000 -0.1828889668
C   C128      1.0  0.88320  0.69540  0.69910  1.0000 -0.1905103095
C   C129      1.0  0.14820  0.22670  0.71940  1.0000 0.1726036949
C   C130      1.0  0.85180  0.77330  0.21940  1.0000 0.1726036949
C   C131      1.0  0.14820  0.27330  0.21940  1.0000 0.1726036949
C   C132      1.0  0.85180  0.72670  0.71940  1.0000 0.1726036949
C   C133      1.0  0.14760  0.22010  0.75220  1.0000 -0.1905103095
C   C134      1.0  0.85240  0.77990  0.25220  1.0000 -0.1905103095
C   C135      1.0  0.14760  0.27990  0.25220  1.0000 -0.1905103095
C   C136      1.0  0.85240  0.72010  0.75220  1.0000 -0.1905103095
C   C137      1.0  0.11560  0.18220  0.76470  1.0000 -0.0794249344
C   C138      1.0  0.88440  0.81780  0.26470  1.0000 -0.0794249344
C   C139      1.0  0.11560  0.31780  0.26470  1.0000 -0.0794249344
C   C140      1.0  0.88440  0.68220  0.76470  1.0000 -0.0794249344
C   C141      1.0  0.04750  0.42530  0.74660  1.0000 0.5988342179
C   C142      1.0  0.95250  0.57470  0.24660  1.0000 0.5988342179
C   C143      1.0  0.04750  0.07470  0.24660  1.0000 0.5988342179
C   C144      1.0  0.95250  0.92530  0.74660  1.0000 0.5988342179
C   C145      1.0  0.07990  0.38360  0.73450  1.0000 -0.0471920767
C   C146      1.0  0.92010  0.61640  0.23450  1.0000 -0.0471920767
C   C147      1.0  0.07990  0.11640  0.23450  1.0000 -0.0471920767
C   C148      1.0  0.92010  0.88360  0.73450  1.0000 -0.0471920767
C   C149      1.0  0.03340  0.34610  0.73640  1.0000 -0.0711539458
C   C150      1.0  0.96660  0.65390  0.23640  1.0000 -0.0711539458
C   C151      1.0  0.03340  0.15390  0.23640  1.0000 -0.0711539458
C   C152      1.0  0.96660  0.84610  0.73640  1.0000 -0.0711539458
C   C153      1.0  0.06910  0.30690  0.72840  1.0000 -0.207906309
C   C154      1.0  0.93090  0.69310  0.22840  1.0000 -0.207906309
C   C155      1.0  0.06910  0.19310  0.22840  1.0000 -0.207906309
C   C156      1.0  0.93090  0.80690  0.72840  1.0000 -0.207906309
C   C157      1.0  0.15130  0.30520  0.71840  1.0000 0.1991648725
C   C158      1.0  0.84870  0.69480  0.21840  1.0000 0.1991648725
C   C159      1.0  0.15130  0.19480  0.21840  1.0000 0.1991648725
C   C160      1.0  0.84870  0.80520  0.71840  1.0000 0.1991648725
C   C161      1.0  0.19780  0.34270  0.71650  1.0000 -0.1976498834
C   C162      1.0  0.80220  0.65730  0.21650  1.0000 -0.1976498834
C   C163      1.0  0.19780  0.15730  0.21650  1.0000 -0.1976498834
C   C164      1.0  0.80220  0.84270  0.71650  1.0000 -0.1976498834
C   C165      1.0  0.16210  0.38190  0.72450  1.0000 -0.0711539458
C   C166      1.0  0.83790  0.61810  0.22450  1.0000 -0.0711539458
C   C167      1.0  0.16210  0.11810  0.22450  1.0000 -0.0711539458
C   C168      1.0  0.83790  0.88190  0.72450  1.0000 -0.0711539458
C   C169      1.0  0.04610  0.96530  0.85020  1.0000 0.5988342179
C   C170      1.0  0.95390  0.03470  0.35020  1.0000 0.5988342179
C   C171      1.0  0.04610  0.53470  0.35020  1.0000 0.5988342179
C   C172      1.0  0.95390  0.46530  0.85020  1.0000 0.5988342179
C   C173      1.0  0.03180  0.93700  0.87800  1.0000 -0.0614283437
C   C174      1.0  0.96820  0.06300  0.37800  1.0000 -0.0614283437
C   C175      1.0  0.03180  0.56300  0.37800  1.0000 -0.0614283437
C   C176      1.0  0.96820  0.43700  0.87800  1.0000 -0.0614283437
C   C177      1.0  0.01560  0.89330  0.87510  1.0000 -0.0711539458
C   C178      1.0  0.98440  0.10670  0.37510  1.0000 -0.0711539458
C   C179      1.0  0.01560  0.60670  0.37510  1.0000 -0.0711539458
C   C180      1.0  0.98440  0.39330  0.87510  1.0000 -0.0711539458
C   C181      1.0  0.01000  0.86770  0.90220  1.0000 -0.1905103095
C   C182      1.0  0.99000  0.13230  0.40220  1.0000 -0.1905103095
C   C183      1.0  0.01000  0.63230  0.40220  1.0000 -0.1905103095
C   C184      1.0  0.99000  0.36770  0.90220  1.0000 -0.1905103095
C   C185      1.0  0.02070  0.88590  0.93230  1.0000 0.1567433571
C   C186      1.0  0.97930  0.11410  0.43230  1.0000 0.1567433571
C   C187      1.0  0.02070  0.61410  0.43230  1.0000 0.1567433571
C   C188      1.0  0.97930  0.38590  0.93230  1.0000 0.1567433571
C   C189      1.0  0.03680  0.92960  0.93520  1.0000 -0.1905103095
C   C190      1.0  0.96320  0.07040  0.43520  1.0000 -0.1828889668
C   C191      1.0  0.03680  0.57040  0.43520  1.0000 -0.1905103095
C   C192      1.0  0.96320  0.42960  0.93520  1.0000 -0.1828889668
C   C193      1.0  0.04240  0.95520  0.90800  1.0000 -0.0711539458
C   C194      1.0  0.95760  0.04480  0.40800  1.0000 -0.0711539458
C   C195      1.0  0.04240  0.54480  0.40800  1.0000 -0.0711539458
C   C196      1.0  0.95760  0.45520  0.90800  1.0000 -0.0711539458
C   C197      1.0  0.71190  0.78360  0.98810  1.0000 0.6065091263
C   C198      1.0  0.28810  0.21640  0.48810  1.0000 0.6065091263
C   C199      1.0  0.71190  0.71640  0.48810  1.0000 0.6065091263
C   C200      1.0  0.28810  0.28360  0.98810  1.0000 0.6065091263
C   C201      1.0  0.79760  0.80320  0.98120  1.0000 -0.0227803113
C   C202      1.0  0.20240  0.19680  0.48120  1.0000 -0.0227803113
C   C203      1.0  0.79760  0.69680  0.48120  1.0000 -0.0227803113
C   C204      1.0  0.20240  0.30320  0.98120  1.0000 -0.0227803113
C   C205      1.0  0.87040  0.78080  0.98750  1.0000 -0.0794249344
C   C206      1.0  0.12960  0.21920  0.48750  1.0000 -0.0794249344
C   C207      1.0  0.87040  0.71920  0.48750  1.0000 -0.0794249344
C   C208      1.0  0.12960  0.28080  0.98750  1.0000 -0.0794249344
C   C209      1.0  0.94680  0.79920  0.98030  1.0000 -0.207906309
C   C210      1.0  0.05320  0.20080  0.48030  1.0000 -0.207906309
C   C211      1.0  0.94680  0.70080  0.48030  1.0000 -0.207906309
C   C212      1.0  0.05320  0.29920  0.98030  1.0000 -0.207906309
C   C213      1.0  0.95030  0.84000  0.96680  1.0000 0.1991648725
C   C214      1.0  0.04970  0.16000  0.46680  1.0000 0.1991648725
C   C215      1.0  0.95030  0.66000  0.46680  1.0000 0.1991648725
C   C216      1.0  0.04970  0.34000  0.96680  1.0000 0.1991648725
C   C217      1.0  0.87750  0.86240  0.96060  1.0000 -0.1976498834
C   C218      1.0  0.12250  0.13760  0.46060  1.0000 -0.1976498834
C   C219      1.0  0.87750  0.63760  0.46060  1.0000 -0.1976498834
C   C220      1.0  0.12250  0.36240  0.96060  1.0000 -0.1976498834
C   C221      1.0  0.80120  0.84400  0.96780  1.0000 -0.0794249344
C   C222      1.0  0.19880  0.15600  0.46780  1.0000 -0.0794249344
C   C223      1.0  0.80120  0.65600  0.46780  1.0000 -0.0794249344
C   C224      1.0  0.19880  0.34400  0.96780  1.0000 -0.0794249344
C   C225      1.0  0.33700  0.80490  0.00810  1.0000 0.5816045473
C   C226      1.0  0.66300  0.19510  0.50810  1.0000 0.5816045473
C   C227      1.0  0.33700  0.69510  0.50810  1.0000 0.5816045473
C   C228      1.0  0.66300  0.30490  0.00810  1.0000 0.5816045473
C   C229      1.0  0.25540  0.81860  0.99620  1.0000 -0.0471920767
C   C230      1.0  0.74460  0.18140  0.49620  1.0000 -0.0471920767
C   C231      1.0  0.25540  0.68140  0.49620  1.0000 -0.0471920767
C   C232      1.0  0.74460  0.31860  0.99620  1.0000 -0.0471920767
C   C233      1.0  0.24840  0.83310  0.96490  1.0000 -0.0711539458
C   C234      1.0  0.75160  0.16690  0.46490  1.0000 -0.0711539458
C   C235      1.0  0.24840  0.66690  0.46490  1.0000 -0.0711539458
C   C236      1.0  0.75160  0.33310  0.96490  1.0000 -0.0711539458
C   C237      1.0  0.17260  0.84790  0.95360  1.0000 -0.1976498834
C   C238      1.0  0.82740  0.15210  0.45360  1.0000 -0.1976498834
C   C239      1.0  0.17260  0.65210  0.45360  1.0000 -0.1976498834
C   C240      1.0  0.82740  0.34790  0.95360  1.0000 -0.1976498834
C   C241      1.0  0.10370  0.84830  0.97350  1.0000 0.1782445096
C   C242      1.0  0.89630  0.15170  0.47350  1.0000 0.1782445096
C   C243      1.0  0.10370  0.65170  0.47350  1.0000 0.1782445096
C   C244      1.0  0.89630  0.34830  0.97350  1.0000 0.1782445096
C   C245      1.0  0.11060  0.83380  0.00480  1.0000 -0.1905103095
C   C246      1.0  0.88940  0.16620  0.50480  1.0000 -0.1905103095
C   C247      1.0  0.11060  0.66620  0.50480  1.0000 -0.1905103095
C   C248      1.0  0.88940  0.33380  0.00480  1.0000 -0.1905103095
C   C249      1.0  0.18640  0.81900  0.01610  1.0000 -0.0711539458
C   C250      1.0  0.81360  0.18100  0.51610  1.0000 -0.0711539458
C   C251      1.0  0.18640  0.68100  0.51610  1.0000 -0.0711539458
C   C252      1.0  0.81360  0.31900  0.01610  1.0000 -0.0711539458
C   C253      1.0  0.47020  0.28730  0.45210  1.0000 0.5988342179
C   C254      1.0  0.52980  0.71270  0.95210  1.0000 0.5988342179
C   C255      1.0  0.47020  0.21270  0.95210  1.0000 0.5988342179
C   C256      1.0  0.52980  0.78730  0.45210  1.0000 0.5988342179
C   C257      1.0  0.49230  0.31430  0.42500  1.0000 -0.0711539458
C   C258      1.0  0.50770  0.68570  0.92500  1.0000 -0.0711539458
C   C259      1.0  0.49230  0.18570  0.92500  1.0000 -0.0711539458
C   C260      1.0  0.50770  0.81430  0.42500  1.0000 -0.0711539458
C   C261      1.0  0.53960  0.29720  0.40030  1.0000 -0.0711539458
C   C262      1.0  0.46040  0.70280  0.90030  1.0000 -0.0711539458
C   C263      1.0  0.53960  0.20280  0.90030  1.0000 -0.0711539458
C   C264      1.0  0.46040  0.79720  0.40030  1.0000 -0.0711539458
C   C265      1.0  0.55830  0.32220  0.37380  1.0000 -0.1905103095
C   C266      1.0  0.44170  0.67780  0.87380  1.0000 -0.1905103095
C   C267      1.0  0.55830  0.17780  0.87380  1.0000 -0.1905103095
C   C268      1.0  0.44170  0.82220  0.37380  1.0000 -0.1905103095
C   C269      1.0  0.52970  0.36430  0.37190  1.0000 0.1782445096
C   C270      1.0  0.47030  0.63570  0.87190  1.0000 0.1782445096
C   C271      1.0  0.52970  0.13570  0.87190  1.0000 0.1782445096
C   C272      1.0  0.47030  0.86430  0.37190  1.0000 0.1782445096
C   C273      1.0  0.48240  0.38140  0.39660  1.0000 -0.1905103095
C   C274      1.0  0.51760  0.61860  0.89660  1.0000 -0.1905103095
C   C275      1.0  0.48240  0.11860  0.89660  1.0000 -0.1905103095
C   C276      1.0  0.51760  0.88140  0.39660  1.0000 -0.1905103095
C   C277      1.0  0.46370  0.35640  0.42310  1.0000 -0.0711539458
C   C278      1.0  0.53630  0.64360  0.92310  1.0000 -0.0711539458
C   C279      1.0  0.46370  0.14360  0.92310  1.0000 -0.0711539458
C   C280      1.0  0.53630  0.85640  0.42310  1.0000 -0.0711539458
C   C281      1.0  0.85400  0.44390  0.30150  1.0000 0.5816045473
C   C282      1.0  0.14600  0.55610  0.80150  1.0000 0.5816045473
C   C283      1.0  0.85400  0.05610  0.80150  1.0000 0.5816045473
C   C284      1.0  0.14600  0.94390  0.30150  1.0000 0.5816045473
C   C285      1.0  0.77090  0.42950  0.31370  1.0000 -0.040821693
C   C286      1.0  0.22910  0.57050  0.81370  1.0000 -0.040821693
C   C287      1.0  0.77090  0.07050  0.81370  1.0000 -0.040821693
C   C288      1.0  0.22910  0.92950  0.31370  1.0000 -0.040821693
C   C289      1.0  0.70590  0.43170  0.29200  1.0000 -0.0794249344
C   C290      1.0  0.29410  0.56830  0.79200  1.0000 -0.0794249344
C   C291      1.0  0.70590  0.06830  0.79200  1.0000 -0.0794249344
C   C292      1.0  0.29410  0.93170  0.29200  1.0000 -0.0794249344
C   C293      1.0  0.62660  0.41910  0.30110  1.0000 -0.1905103095
C   C294      1.0  0.37340  0.58090  0.80110  1.0000 -0.1976498834
C   C295      1.0  0.62660  0.08090  0.80110  1.0000 -0.1976498834
C   C296      1.0  0.37340  0.91910  0.30110  1.0000 -0.1976498834
C   C297      1.0  0.61230  0.40440  0.33190  1.0000 0.1908274941
C   C298      1.0  0.38770  0.59560  0.83190  1.0000 0.1908274941
C   C299      1.0  0.61230  0.09560  0.83190  1.0000 0.1908274941
C   C300      1.0  0.38770  0.90440  0.33190  1.0000 0.1908274941
C   C301      1.0  0.67730  0.40220  0.35370  1.0000 -0.1905103095
C   C302      1.0  0.32270  0.59780  0.85370  1.0000 -0.1905103095
C   C303      1.0  0.67730  0.09780  0.85370  1.0000 -0.1905103095
C   C304      1.0  0.32270  0.90220  0.35370  1.0000 -0.1905103095
C   C305      1.0  0.75660  0.41480  0.34460  1.0000 -0.08797775
C   C306      1.0  0.24340  0.58520  0.84460  1.0000 -0.08797775
C   C307      1.0  0.75660  0.08520  0.84460  1.0000 -0.08797775
C   C308      1.0  0.24340  0.91480  0.34460  1.0000 -0.08797775
C   C309      1.0  0.22140  0.46450  0.30910  1.0000 0.5988342179
C   C310      1.0  0.77860  0.53550  0.80910  1.0000 0.5988342179
C   C311      1.0  0.22140  0.03550  0.80910  1.0000 0.5988342179
C   C312      1.0  0.77860  0.96450  0.30910  1.0000 0.5988342179
C   C313      1.0  0.30330  0.44560  0.31560  1.0000 -0.0614283437
C   C314      1.0  0.69670  0.55440  0.81560  1.0000 -0.0614283437
C   C315      1.0  0.30330  0.05440  0.81560  1.0000 -0.0614283437
C   C316      1.0  0.69670  0.94560  0.31560  1.0000 -0.0614283437
C   C317      1.0  0.37450  0.47080  0.31600  1.0000 -0.0614283437
C   C318      1.0  0.62550  0.52920  0.81600  1.0000 -0.0614283437
C   C319      1.0  0.37450  0.02920  0.81600  1.0000 -0.0614283437
C   C320      1.0  0.62550  0.97080  0.31600  1.0000 -0.0614283437
C   C321      1.0  0.45060  0.45240  0.32360  1.0000 -0.1905103095
C   C322      1.0  0.54940  0.54760  0.82360  1.0000 -0.1905103095
C   C323      1.0  0.45060  0.04760  0.82360  1.0000 -0.1905103095
C   C324      1.0  0.54940  0.95240  0.32360  1.0000 -0.1905103095
C   C325      1.0  0.45560  0.40890  0.33070  1.0000 0.1782445096
C   C326      1.0  0.54440  0.59110  0.83070  1.0000 0.1782445096
C   C327      1.0  0.45560  0.09110  0.83070  1.0000 0.1782445096
C   C328      1.0  0.54440  0.90890  0.33070  1.0000 0.1782445096
C   C329      1.0  0.38430  0.38360  0.33030  1.0000 -0.1905103095
C   C330      1.0  0.61570  0.61640  0.83030  1.0000 -0.1905103095
C   C331      1.0  0.38430  0.11640  0.83030  1.0000 -0.1905103095
C   C332      1.0  0.61570  0.88360  0.33030  1.0000 -0.1905103095
C   C333      1.0  0.30820  0.40200  0.32270  1.0000 -0.0711539458
C   C334      1.0  0.69180  0.59800  0.82270  1.0000 -0.0711539458
C   C335      1.0  0.30820  0.09800  0.82270  1.0000 -0.0711539458
C   C336      1.0  0.69180  0.90200  0.32270  1.0000 -0.0711539458
N   N1        1.0  0.31780  0.98670  0.59150  1.0000 -0.1431546626
N   N2        1.0  0.68220  0.01330  0.09150  1.0000 -0.1431546626
N   N3        1.0  0.31780  0.51330  0.09150  1.0000 -0.1431546626
N   N4        1.0  0.68220  0.48670  0.59150  1.0000 -0.1431546626
N   N5        1.0  0.18100  0.26730  0.70580  1.0000 -0.1828889668
N   N6        1.0  0.81900  0.73270  0.20580  1.0000 -0.1732786899
N   N7        1.0  0.18100  0.23270  0.20580  1.0000 -0.1828889668
N   N8        1.0  0.81900  0.76730  0.70580  1.0000 -0.1732786899
N   N9        1.0  0.02400  0.85830  0.96070  1.0000 -0.1431546626
N   N10       1.0  0.97600  0.14170  0.46070  1.0000 -0.1431546626
N   N11       1.0  0.02400  0.64170  0.46070  1.0000 -0.1431546626
N   N12       1.0  0.97600  0.35830  0.96070  1.0000 -0.1431546626
N   N13       1.0  0.53390  0.39110  0.34380  1.0000 -0.1732786899
N   N14       1.0  0.46610  0.60890  0.84380  1.0000 -0.1732786899
N   N15       1.0  0.53390  0.10890  0.84380  1.0000 -0.1732786899
N   N16       1.0  0.46610  0.89110  0.34380  1.0000 -0.1732786899
O   O1        1.0  0.02950  0.01430  0.77850  1.0000 -0.9335516621
O   O2        1.0  0.97050  0.98570  0.27850  1.0000 -0.9335516621
O   O3        1.0  0.02950  0.48570  0.27850  1.0000 -0.9335516621
O   O4        1.0  0.97050  0.51430  0.77850  1.0000 -0.9335516621
O   O5        1.0  0.46440  0.23650  0.52310  1.0000 -0.9641966899
O   O6        1.0  0.53560  0.76350  0.02310  1.0000 -0.9667276819
O   O7        1.0  0.46440  0.26350  0.02310  1.0000 -0.9641966899
O   O8        1.0  0.53560  0.73650  0.52310  1.0000 -0.9641966899
O   O9        1.0  0.49860  0.15940  0.56800  1.0000 -0.5626371582
O   O10       1.0  0.50140  0.84060  0.06800  1.0000 -0.5626371582
O   O11       1.0  0.49860  0.34060  0.06800  1.0000 -0.5626371582
O   O12       1.0  0.50140  0.65940  0.56800  1.0000 -0.5626371582
O   O13       1.0  0.45080  0.14360  0.51380  1.0000 -0.6473119338
O   O14       1.0  0.54920  0.85640  0.01380  1.0000 -0.6473119338
O   O15       1.0  0.45080  0.35640  0.01380  1.0000 -0.6473119338
O   O16       1.0  0.54920  0.64360  0.51380  1.0000 -0.6473119338
O   O17       1.0  0.05480  0.00970  0.70750  1.0000 -0.4342995919
O   O18       1.0  0.94520  0.99030  0.20750  1.0000 -0.4342995919
O   O19       1.0  0.05480  0.49030  0.20750  1.0000 -0.4342995919
O   O20       1.0  0.94520  0.50970  0.70750  1.0000 -0.4342995919
O   O21       1.0  0.16070  0.97880  0.73240  1.0000 -0.5918049295
O   O22       1.0  0.83930  0.02120  0.23240  1.0000 -0.5918049295
O   O23       1.0  0.16070  0.52120  0.23240  1.0000 -0.5918049295
O   O24       1.0  0.83930  0.47880  0.73240  1.0000 -0.5918049295
O   O25       1.0  0.41120  0.79260  0.56120  1.0000 -0.5227294742
O   O26       1.0  0.58880  0.20740  0.06120  1.0000 -0.5227294742
O   O27       1.0  0.41120  0.70740  0.06120  1.0000 -0.5227294742
O   O28       1.0  0.58880  0.29260  0.56120  1.0000 -0.5227294742
O   O29       1.0  0.51690  0.82690  0.53890  1.0000 -0.5691686053
O   O30       1.0  0.48310  0.17310  0.03890  1.0000 -0.5691686053
O   O31       1.0  0.51690  0.67310  0.03890  1.0000 -0.5691686053
O   O32       1.0  0.48310  0.32690  0.53890  1.0000 -0.5691686053
O   O33       1.0  0.34890  0.27910  0.56820  1.0000 -0.5417553266
O   O34       1.0  0.65110  0.72090  0.06820  1.0000 -0.5417553266
O   O35       1.0  0.34890  0.22090  0.06820  1.0000 -0.5417553266
O   O36       1.0  0.65110  0.77910  0.56820  1.0000 -0.5417553266
O   O37       1.0  0.44050  0.23740  0.58710  1.0000 -0.4885579948
O   O38       1.0  0.55950  0.76260  0.08710  1.0000 -0.4885579948
O   O39       1.0  0.44050  0.26260  0.08710  1.0000 -0.4885579948
O   O40       1.0  0.55950  0.73740  0.58710  1.0000 -0.4885579948
O   O41       1.0  0.03240  0.10800  0.78320  1.0000 -0.3293191274
O   O42       1.0  0.96760  0.89200  0.28320  1.0000 -0.3293191274
O   O43       1.0  0.03240  0.39200  0.28320  1.0000 -0.3293191274
O   O44       1.0  0.96760  0.60800  0.78320  1.0000 -0.3293191274
O   O45       1.0  0.99940  0.08670  0.74090  1.0000 -0.4417268787
O   O46       1.0  0.00060  0.91330  0.24090  1.0000 -0.4458497544
O   O47       1.0  0.99940  0.41330  0.24090  1.0000 -0.4417268787
O   O48       1.0  0.00060  0.58670  0.74090  1.0000 -0.4417268787
O   O49       1.0  0.97130  0.42110  0.75780  1.0000 -0.6072989611
O   O50       1.0  0.02870  0.57890  0.25780  1.0000 -0.6072989611
O   O51       1.0  0.97130  0.07890  0.25780  1.0000 -0.5998777164
O   O52       1.0  0.02870  0.92110  0.75780  1.0000 -0.6072989611
O   O53       1.0  0.09020  0.45980  0.74320  1.0000 -0.5691686053
O   O54       1.0  0.90980  0.54020  0.24320  1.0000 -0.5691686053
O   O55       1.0  0.09020  0.04020  0.24320  1.0000 -0.5691686053
O   O56       1.0  0.90980  0.95980  0.74320  1.0000 -0.5626371582
O   O57       1.0  0.03400  0.00540  0.85060  1.0000 -0.5626371582
O   O58       1.0  0.96600  0.99460  0.35060  1.0000 -0.5691686053
O   O59       1.0  0.03400  0.49460  0.35060  1.0000 -0.5626371582
O   O60       1.0  0.96600  0.50540  0.85060  1.0000 -0.5626371582
O   O61       1.0  0.08090  0.94560  0.82800  1.0000 -0.5529064615
O   O62       1.0  0.91910  0.05440  0.32800  1.0000 -0.5529064615
O   O63       1.0  0.08090  0.55440  0.32800  1.0000 -0.5529064615
O   O64       1.0  0.91910  0.44560  0.82800  1.0000 -0.5529064615
O   O65       1.0  0.65120  0.80450  0.97480  1.0000 -0.5998777164
O   O66       1.0  0.34880  0.19550  0.47480  1.0000 -0.5998777164
O   O67       1.0  0.65120  0.69550  0.47480  1.0000 -0.5998777164
O   O68       1.0  0.34880  0.30450  0.97480  1.0000 -0.5998777164
O   O69       1.0  0.71410  0.74880  0.00410  1.0000 -0.582916968
O   O70       1.0  0.28590  0.25120  0.50410  1.0000 -0.582916968
O   O71       1.0  0.71410  0.75120  0.50410  1.0000 -0.582916968
O   O72       1.0  0.28590  0.24880  0.00410  1.0000 -0.582916968
O   O73       1.0  0.34920  0.79280  0.03450  1.0000 -0.4342995919
O   O74       1.0  0.65080  0.20720  0.53450  1.0000 -0.4342995919
O   O75       1.0  0.34920  0.70720  0.53450  1.0000 -0.4417268787
O   O76       1.0  0.65080  0.29280  0.03450  1.0000 -0.4342995919
O   O77       1.0  0.40220  0.80960  0.98510  1.0000 -0.6604807307
O   O78       1.0  0.59780  0.19040  0.48510  1.0000 -0.6604807307
O   O79       1.0  0.40220  0.69040  0.48510  1.0000 -0.6604807307
O   O80       1.0  0.59780  0.30960  0.98510  1.0000 -0.6604807307
O   O81       1.0  0.42830  0.30610  0.47560  1.0000 -0.5998777164
O   O82       1.0  0.57170  0.69390  0.97560  1.0000 -0.5998777164
O   O83       1.0  0.42830  0.19390  0.97560  1.0000 -0.5998777164
O   O84       1.0  0.57170  0.80610  0.47560  1.0000 -0.5998777164
O   O85       1.0  0.49620  0.24630  0.45210  1.0000 -0.6072989611
O   O86       1.0  0.50380  0.75370  0.95210  1.0000 -0.6072989611
O   O87       1.0  0.49620  0.25370  0.95210  1.0000 -0.6072989611
O   O88       1.0  0.50380  0.74630  0.45210  1.0000 -0.6072989611
O   O89       1.0  0.92240  0.44550  0.31760  1.0000 -0.4694211562
O   O90       1.0  0.07760  0.55450  0.81760  1.0000 -0.4694211562
O   O91       1.0  0.92240  0.05450  0.81760  1.0000 -0.4694211562
O   O92       1.0  0.07760  0.94550  0.31760  1.0000 -0.4694211562
O   O93       1.0  0.85330  0.45680  0.27000  1.0000 -0.6227409025
O   O94       1.0  0.14670  0.54320  0.77000  1.0000 -0.6227409025
O   O95       1.0  0.85330  0.04320  0.77000  1.0000 -0.6227409025
O   O96       1.0  0.14670  0.95680  0.27000  1.0000 -0.6227409025
O   O97       1.0  0.22090  0.50060  0.29760  1.0000 -0.5227294742
O   O98       1.0  0.77910  0.49940  0.79760  1.0000 -0.5261709173
O   O99       1.0  0.22090  0.99940  0.79760  1.0000 -0.5261709173
O   O100      1.0  0.77910  0.00060  0.29760  1.0000 -0.5227294742
O   O101      1.0  0.16350  0.43840  0.31340  1.0000 -0.5691686053
O   O102      1.0  0.83650  0.56160  0.81340  1.0000 -0.5691686053
O   O103      1.0  0.16350  0.06160  0.81340  1.0000 -0.5691686053
O   O104      1.0  0.83650  0.93840  0.31340  1.0000 -0.5691686053
  In  In1       1.0  0.95922  0.02439  0.74139  0.3333
  In  In2       1.0  0.04078  0.97561  0.24139  0.3333
  In  In3       1.0  0.95922  0.47561  0.24139  0.3333
  In  In4       1.0  0.04078  0.52439  0.74139  0.3333
  In  In5       1.0  0.03472  0.05559  0.81662  0.3333
  In  In6       1.0  0.96528  0.94441  0.31662  0.3333
  In  In7       1.0  0.03472  0.44441  0.31662  0.3333
  In  In8       1.0  0.96528  0.55559  0.81662  0.3333
  In  In9       1.0  0.11600  0.96400  0.77915  0.3333
  In  In10      1.0  0.88400  0.03600  0.27915  0.3333
  In  In11      1.0  0.11600  0.53600  0.27915  0.3333
  In  In12      1.0  0.88400  0.46400  0.77915  0.3333
  In  In13      1.0  0.38826  0.28783  0.52048  0.3333
  In  In14      1.0  0.61174  0.71217  0.02048  0.3333
  In  In15      1.0  0.38826  0.21217  0.02048  0.3333
  In  In16      1.0  0.61174  0.78783  0.52048  0.3333
  In  In17      1.0  0.47631  0.19741  0.48399  0.3333
  In  In18      1.0  0.52369  0.80259  0.98399  0.3333
  In  In19      1.0  0.47631  0.30259  0.98399  0.3333
  In  In20      1.0  0.52369  0.69741  0.48399  0.3333
  In  In21      1.0  0.54123  0.22718  0.56027  0.3333
  In  In22      1.0  0.45877  0.77282  0.06027  0.3333
  In  In23      1.0  0.54123  0.27282  0.06027  0.3333
  In  In24      1.0  0.45877  0.72718  0.56027  0.3333
