# DDEC6 charges by PACMAN v1.1 (https://github.com/mtap-research/PACMAN-charge/)
data_ja076167asi20070815_063752_ASR_pacman
_symmetry_space_group_name_H-M   'P 1'
_cell_length_a   14.51540000
_cell_length_b   21.62900000
_cell_length_c   39.35600000
_cell_angle_alpha   90.00000000
_cell_angle_beta   90.00000000
_cell_angle_gamma   90.00000000
_symmetry_Int_Tables_number   1
_chemical_formula_structural   Zn3B25H26C10O11
_chemical_formula_sum   'Zn24 B200 H208 C80 O88'
_cell_volume   12355.95735423
_cell_formula_units_Z   8
loop_
 _symmetry_equiv_pos_site_id
 _symmetry_equiv_pos_as_xyz
  1  'x, y, z'
loop_
 _atom_site_type_symbol
 _atom_site_label
 _atom_site_symmetry_multiplicity
 _atom_site_fract_x
 _atom_site_fract_y
 _atom_site_fract_z
 _atom_site_occupancy
 _atom_site_charge
Zn  Zn1  1  0.69079000  0.02671000  0.12692000  1.0 1.0498956674
Zn  Zn2  1  0.80921000  0.52671000  0.37308000  1.0 1.0498956674
Zn  Zn3  1  0.69079000  0.47329000  0.87308000  1.0 1.0498956674
Zn  Zn4  1  0.80921000  0.97329000  0.62692000  1.0 1.0498956674
Zn  Zn5  1  0.30921000  0.97329000  0.87308000  1.0 1.0498956674
Zn  Zn6  1  0.19079000  0.47329000  0.62692000  1.0 1.0498956674
Zn  Zn7  1  0.30921000  0.52671000  0.12692000  1.0 1.0498956674
Zn  Zn8  1  0.19079000  0.02671000  0.37308000  1.0 1.0498956674
Zn  Zn9  1  0.73361000  0.17029000  0.15079000  1.0 1.1298973643
Zn  Zn10  1  0.76639000  0.67029000  0.34921000  1.0 1.1298973643
Zn  Zn11  1  0.73361000  0.32971000  0.84921000  1.0 1.1298973643
Zn  Zn12  1  0.76639000  0.82971000  0.65079000  1.0 1.1298973643
Zn  Zn13  1  0.26639000  0.82971000  0.84921000  1.0 1.1298973643
Zn  Zn14  1  0.23361000  0.32971000  0.65079000  1.0 1.1298973643
Zn  Zn15  1  0.26639000  0.67029000  0.15079000  1.0 1.1298973643
Zn  Zn16  1  0.23361000  0.17029000  0.34921000  1.0 1.1298973643
Zn  Zn17  1  0.89835000  0.08176000  0.11053000  1.0 1.0908795231
Zn  Zn18  1  0.60165000  0.58176000  0.38947000  1.0 1.0908795231
Zn  Zn19  1  0.89835000  0.41824000  0.88947000  1.0 1.0908795231
Zn  Zn20  1  0.60165000  0.91824000  0.61053000  1.0 1.0908795231
Zn  Zn21  1  0.10165000  0.91824000  0.88947000  1.0 1.0908795231
Zn  Zn22  1  0.39835000  0.41824000  0.61053000  1.0 1.0908795231
Zn  Zn23  1  0.10165000  0.58176000  0.11053000  1.0 1.0908795231
Zn  Zn24  1  0.39835000  0.08176000  0.38947000  1.0 1.0908795231
B  B1  1  0.93330000  0.34030000  0.11807000  1.0 0.0097979205
B  B2  1  0.56670000  0.84030000  0.38193000  1.0 0.0097979205
B  B3  1  0.93330000  0.15970000  0.88193000  1.0 0.0097979205
B  B4  1  0.56670000  0.65970000  0.61807000  1.0 0.0097979205
B  B5  1  0.06670000  0.65970000  0.88193000  1.0 0.0097979205
B  B6  1  0.43330000  0.15970000  0.61807000  1.0 0.0097979205
B  B7  1  0.06670000  0.84030000  0.11807000  1.0 0.0097979205
B  B8  1  0.43330000  0.34030000  0.38193000  1.0 0.0097979205
B  B9  1  0.97350000  0.32890000  0.15935000  1.0 0.0027004088
B  B10  1  0.52650000  0.82890000  0.34065000  1.0 0.0027004088
B  B11  1  0.97350000  0.17110000  0.84065000  1.0 0.0097979205
B  B12  1  0.52650000  0.67110000  0.65935000  1.0 0.0027004088
B  B13  1  0.02650000  0.67110000  0.84065000  1.0 0.0027004088
B  B14  1  0.47350000  0.17110000  0.65935000  1.0 0.0097979205
B  B15  1  0.02650000  0.82890000  0.15935000  1.0 0.0027004088
B  B16  1  0.47350000  0.32890000  0.34065000  1.0 0.0027004088
B  B17  1  0.07310000  0.28130000  0.15757000  1.0 0.0202272479
B  B18  1  0.42690000  0.78130000  0.34243000  1.0 0.0202272479
B  B19  1  0.07310000  0.21870000  0.84243000  1.0 0.0202272479
B  B20  1  0.42690000  0.71870000  0.65757000  1.0 0.0202272479
B  B21  1  0.92690000  0.71870000  0.84243000  1.0 0.0202272479
B  B22  1  0.57310000  0.21870000  0.65757000  1.0 0.0202272479
B  B23  1  0.92690000  0.78130000  0.15757000  1.0 0.0202272479
B  B24  1  0.57310000  0.28130000  0.34243000  1.0 0.0202272479
B  B25  1  0.09500000  0.26400000  0.11321000  1.0 0.0097979205
B  B26  1  0.40500000  0.76400000  0.38679000  1.0 0.0097979205
B  B27  1  0.09500000  0.23600000  0.88679000  1.0 0.0097979205
B  B28  1  0.40500000  0.73600000  0.61321000  1.0 0.0097979205
B  B29  1  0.90500000  0.73600000  0.88679000  1.0 0.0097979205
B  B30  1  0.59500000  0.23600000  0.61321000  1.0 0.0097979205
B  B31  1  0.90500000  0.76400000  0.11321000  1.0 0.0097979205
B  B32  1  0.59500000  0.26400000  0.38679000  1.0 0.0097979205
B  B33  1  0.00800000  0.30020000  0.08946000  1.0 0.0298716525
B  B34  1  0.49200000  0.80020000  0.41054000  1.0 0.0298716525
B  B35  1  0.00800000  0.19980000  0.91054000  1.0 0.0298716525
B  B36  1  0.49200000  0.69980000  0.58946000  1.0 0.0298716525
B  B37  1  0.99200000  0.69980000  0.91054000  1.0 0.0298716525
B  B38  1  0.50800000  0.19980000  0.58946000  1.0 0.0298716525
B  B39  1  0.99200000  0.80020000  0.08946000  1.0 0.0298716525
B  B40  1  0.50800000  0.30020000  0.41054000  1.0 0.0298716525
B  B41  1  0.87450000  0.10920000  0.25638000  1.0 -0.0210957596
B  B42  1  0.62550000  0.60920000  0.24362000  1.0 -0.0210957596
B  B43  1  0.87450000  0.39080000  0.74362000  1.0 -0.0210957596
B  B44  1  0.62550000  0.89080000  0.75638000  1.0 -0.0210957596
B  B45  1  0.12550000  0.89080000  0.74362000  1.0 -0.0210957596
B  B46  1  0.37450000  0.39080000  0.75638000  1.0 -0.0106590407
B  B47  1  0.12550000  0.60920000  0.25638000  1.0 -0.0210957596
B  B48  1  0.37450000  0.10920000  0.24362000  1.0 -0.0210957596
B  B49  1  0.96520000  0.15006000  0.23646000  1.0 0.0097979205
B  B50  1  0.53480000  0.65006000  0.26354000  1.0 0.0097979205
B  B51  1  0.96520000  0.34994000  0.76354000  1.0 0.0097979205
B  B52  1  0.53480000  0.84994000  0.73646000  1.0 0.0097979205
B  B53  1  0.03480000  0.84994000  0.76354000  1.0 0.0097979205
B  B54  1  0.46520000  0.34994000  0.73646000  1.0 0.0097979205
B  B55  1  0.03480000  0.65006000  0.23646000  1.0 0.0097979205
B  B56  1  0.46520000  0.15006000  0.26354000  1.0 0.0097979205
B  B57  1  0.04230000  0.09630000  0.21813000  1.0 0.0097979205
B  B58  1  0.45770000  0.59630000  0.28187000  1.0 0.0097979205
B  B59  1  0.04230000  0.40370000  0.78187000  1.0 0.0097979205
B  B60  1  0.45770000  0.90370000  0.71813000  1.0 0.0097979205
B  B61  1  0.95770000  0.90370000  0.78187000  1.0 0.0097979205
B  B62  1  0.54230000  0.40370000  0.71813000  1.0 0.0097979205
B  B63  1  0.95770000  0.59630000  0.21813000  1.0 0.0097979205
B  B64  1  0.54230000  0.09630000  0.28187000  1.0 0.0097979205
B  B65  1  0.99910000  0.02060000  0.22610000  1.0 0.0027004088
B  B66  1  0.50090000  0.52060000  0.27390000  1.0 -0.0022227194
B  B67  1  0.99910000  0.47940000  0.77390000  1.0 0.0027004088
B  B68  1  0.50090000  0.97940000  0.72610000  1.0 0.0097979205
B  B69  1  0.00090000  0.97940000  0.77390000  1.0 0.0027004088
B  B70  1  0.49910000  0.47940000  0.72610000  1.0 0.0027004088
B  B71  1  0.00090000  0.52060000  0.22610000  1.0 -0.0022227194
B  B72  1  0.49910000  0.02060000  0.27390000  1.0 0.0027004088
B  B73  1  0.89500000  0.02870000  0.24959000  1.0 0.0027004088
B  B74  1  0.60500000  0.52870000  0.25041000  1.0 0.0027004088
B  B75  1  0.89500000  0.47130000  0.75041000  1.0 0.0027004088
B  B76  1  0.60500000  0.97130000  0.74959000  1.0 0.0027004088
B  B77  1  0.10500000  0.97130000  0.75041000  1.0 0.0027004088
B  B78  1  0.39500000  0.47130000  0.74959000  1.0 0.0027004088
B  B79  1  0.10500000  0.52870000  0.24959000  1.0 0.0027004088
B  B80  1  0.39500000  0.02870000  0.25041000  1.0 -0.0022227194
B  B81  1  0.84090000  0.82210000  0.13411000  1.0 -0.0210957596
B  B82  1  0.65910000  0.32210000  0.36589000  1.0 -0.0106590407
B  B83  1  0.84090000  0.67790000  0.86589000  1.0 -0.0106590407
B  B84  1  0.65910000  0.17790000  0.63411000  1.0 -0.0106590407
B  B85  1  0.15910000  0.17790000  0.86589000  1.0 -0.0106590407
B  B86  1  0.34090000  0.67790000  0.63411000  1.0 -0.0210957596
B  B87  1  0.15910000  0.32210000  0.13411000  1.0 -0.0106590407
B  B88  1  0.34090000  0.82210000  0.36589000  1.0 -0.0210957596
B  B89  1  0.88190000  0.83460000  0.09230000  1.0 0.0097979205
B  B90  1  0.61810000  0.33460000  0.40770000  1.0 0.0097979205
B  B91  1  0.88190000  0.66540000  0.90770000  1.0 0.0097979205
B  B92  1  0.61810000  0.16540000  0.59230000  1.0 0.0097979205
B  B93  1  0.11810000  0.16540000  0.90770000  1.0 0.0097979205
B  B94  1  0.38190000  0.66540000  0.59230000  1.0 0.0097979205
B  B95  1  0.11810000  0.33460000  0.09230000  1.0 0.0097979205
B  B96  1  0.38190000  0.83460000  0.40770000  1.0 0.0097979205
B  B97  1  0.98150000  0.88080000  0.09470000  1.0 0.0407064719
B  B98  1  0.51850000  0.38080000  0.40530000  1.0 0.0407064719
B  B99  1  0.98150000  0.61920000  0.90530000  1.0 0.0407064719
B  B100  1  0.51850000  0.11920000  0.59470000  1.0 0.0407064719
B  B101  1  0.01850000  0.11920000  0.90530000  1.0 0.0407064719
B  B102  1  0.48150000  0.61920000  0.59470000  1.0 0.0407064719
B  B103  1  0.01850000  0.38080000  0.09470000  1.0 0.0407064719
B  B104  1  0.48150000  0.88080000  0.40530000  1.0 0.0407064719
B  B105  1  0.00250000  0.89900000  0.13814000  1.0 0.0027004088
B  B106  1  0.49750000  0.39900000  0.36186000  1.0 0.0097979205
B  B107  1  0.00250000  0.60100000  0.86186000  1.0 0.0027004088
B  B108  1  0.49750000  0.10100000  0.63814000  1.0 0.0027004088
B  B109  1  0.99750000  0.10100000  0.86186000  1.0 0.0097979205
B  B110  1  0.50250000  0.60100000  0.63814000  1.0 0.0027004088
B  B111  1  0.99750000  0.39900000  0.13814000  1.0 0.0097979205
B  B112  1  0.50250000  0.89900000  0.36186000  1.0 0.0097979205
B  B113  1  0.91470000  0.86170000  0.16246000  1.0 0.0027004088
B  B114  1  0.58530000  0.36170000  0.33754000  1.0 0.0027004088
B  B115  1  0.91470000  0.63830000  0.83754000  1.0 0.0027004088
B  B116  1  0.58530000  0.13830000  0.66246000  1.0 0.0027004088
B  B117  1  0.08530000  0.13830000  0.83754000  1.0 0.0027004088
B  B118  1  0.41470000  0.63830000  0.66246000  1.0 0.0027004088
B  B119  1  0.08530000  0.36170000  0.16246000  1.0 0.0027004088
B  B120  1  0.41470000  0.86170000  0.33754000  1.0 0.0027004088
B  B121  1  0.59000000  0.05010000  0.24917000  1.0 0.0097979205
B  B122  1  0.91000000  0.55010000  0.25083000  1.0 0.0202272479
B  B123  1  0.59000000  0.44990000  0.75083000  1.0 0.0097979205
B  B124  1  0.91000000  0.94990000  0.74917000  1.0 0.0202272479
B  B125  1  0.41000000  0.94990000  0.75083000  1.0 0.0097979205
B  B126  1  0.09000000  0.44990000  0.74917000  1.0 0.0097979205
B  B127  1  0.41000000  0.55010000  0.24917000  1.0 0.0097979205
B  B128  1  0.09000000  0.05010000  0.25083000  1.0 0.0097979205
B  B129  1  0.56850000  0.13120000  0.24271000  1.0 0.0097979205
B  B130  1  0.93150000  0.63120000  0.25729000  1.0 0.0097979205
B  B131  1  0.56850000  0.36880000  0.75729000  1.0 0.0097979205
B  B132  1  0.93150000  0.86880000  0.74271000  1.0 0.0097979205
B  B133  1  0.43150000  0.86880000  0.75729000  1.0 0.0097979205
B  B134  1  0.06850000  0.36880000  0.74271000  1.0 0.0097979205
B  B135  1  0.43150000  0.63120000  0.24271000  1.0 0.0097979205
B  B136  1  0.06850000  0.13120000  0.25729000  1.0 0.0097979205
B  B137  1  0.46550000  0.13930000  0.21934000  1.0 0.0027004088
B  B138  1  0.03450000  0.63930000  0.28066000  1.0 0.0027004088
B  B139  1  0.46550000  0.36070000  0.78066000  1.0 0.0097979205
B  B140  1  0.03450000  0.86070000  0.71934000  1.0 0.0097979205
B  B141  1  0.53450000  0.86070000  0.78066000  1.0 0.0097979205
B  B142  1  0.96550000  0.36070000  0.71934000  1.0 0.0097979205
B  B143  1  0.53450000  0.63930000  0.21934000  1.0 0.0027004088
B  B144  1  0.96550000  0.13930000  0.28066000  1.0 0.0097979205
B  B145  1  0.42240000  0.06310000  0.21092000  1.0 0.0407064719
B  B146  1  0.07760000  0.56310000  0.28908000  1.0 0.0407064719
B  B147  1  0.42240000  0.43690000  0.78908000  1.0 0.0407064719
B  B148  1  0.07760000  0.93690000  0.71092000  1.0 0.0407064719
B  B149  1  0.57760000  0.93690000  0.78908000  1.0 0.0407064719
B  B150  1  0.92240000  0.43690000  0.71092000  1.0 0.0407064719
B  B151  1  0.57760000  0.56310000  0.21092000  1.0 0.0407064719
B  B152  1  0.92240000  0.06310000  0.28908000  1.0 0.0407064719
B  B153  1  0.49940000  0.00910000  0.22961000  1.0 0.0097979205
B  B154  1  0.00060000  0.50910000  0.27039000  1.0 0.0027004088
B  B155  1  0.49940000  0.49090000  0.77039000  1.0 0.0097979205
B  B156  1  0.00060000  0.99090000  0.72961000  1.0 0.0097979205
B  B157  1  0.50060000  0.99090000  0.77039000  1.0 0.0097979205
B  B158  1  0.99940000  0.49090000  0.72961000  1.0 0.0097979205
B  B159  1  0.50060000  0.50910000  0.22961000  1.0 0.0027004088
B  B160  1  0.99940000  0.00910000  0.27039000  1.0 0.0097979205
B  B161  1  0.46100000  0.06330000  0.02067000  1.0 0.0510580351
B  B162  1  0.03900000  0.56330000  0.47933000  1.0 0.0510580351
B  B163  1  0.46100000  0.43670000  0.97933000  1.0 0.0510580351
B  B164  1  0.03900000  0.93670000  0.52067000  1.0 0.0510580351
B  B165  1  0.53900000  0.93670000  0.97933000  1.0 0.0510580351
B  B166  1  0.96100000  0.43670000  0.52067000  1.0 0.0510580351
B  B167  1  0.53900000  0.56330000  0.02067000  1.0 0.0510580351
B  B168  1  0.96100000  0.06330000  0.47933000  1.0 0.0510580351
B  B169  1  0.45430000  0.98790000  0.03904000  1.0 0.0298716525
B  B170  1  0.04570000  0.48790000  0.46096000  1.0 0.0298716525
B  B171  1  0.45430000  0.51210000  0.96096000  1.0 0.0407064719
B  B172  1  0.04570000  0.01210000  0.53904000  1.0 0.0298716525
B  B173  1  0.54570000  0.01210000  0.96096000  1.0 0.0298716525
B  B174  1  0.95430000  0.51210000  0.53904000  1.0 0.0407064719
B  B175  1  0.54570000  0.48790000  0.03904000  1.0 0.0298716525
B  B176  1  0.95430000  0.98790000  0.46096000  1.0 0.0298716525
B  B177  1  0.54940000  0.94450000  0.02412000  1.0 0.0097979205
B  B178  1  0.95060000  0.44450000  0.47588000  1.0 0.0097979205
B  B179  1  0.54940000  0.55550000  0.97588000  1.0 0.0097979205
B  B180  1  0.95060000  0.05550000  0.52412000  1.0 0.0097979205
B  B181  1  0.45060000  0.05550000  0.97588000  1.0 0.0097979205
B  B182  1  0.04940000  0.55550000  0.52412000  1.0 0.0097979205
B  B183  1  0.45060000  0.44450000  0.02412000  1.0 0.0097979205
B  B184  1  0.04940000  0.94450000  0.47588000  1.0 0.0097979205
B  B185  1  0.61520000  0.99290000  0.99645000  1.0 0.0097979205
B  B186  1  0.88480000  0.49290000  0.50355000  1.0 0.0097979205
B  B187  1  0.61520000  0.50710000  0.00355000  1.0 0.0097979205
B  B188  1  0.88480000  0.00710000  0.49645000  1.0 0.0097979205
B  B189  1  0.38480000  0.00710000  0.00355000  1.0 0.0097979205
B  B190  1  0.11520000  0.50710000  0.49645000  1.0 0.0097979205
B  B191  1  0.38480000  0.49290000  0.99645000  1.0 0.0097979205
B  B192  1  0.11520000  0.99290000  0.50355000  1.0 0.0097979205
B  B193  1  0.56040000  0.06590000  0.99379000  1.0 0.0510580351
B  B194  1  0.93960000  0.56590000  0.50621000  1.0 0.0510580351
B  B195  1  0.56040000  0.43410000  0.00621000  1.0 0.0556150795
B  B196  1  0.93960000  0.93410000  0.49379000  1.0 0.0510580351
B  B197  1  0.43960000  0.93410000  0.00621000  1.0 0.0510580351
B  B198  1  0.06040000  0.43410000  0.49379000  1.0 0.0556150795
B  B199  1  0.43960000  0.56590000  0.99379000  1.0 0.0510580351
B  B200  1  0.06040000  0.06590000  0.50621000  1.0 0.0510580351
H  H1  1  0.87000000  0.34600000  0.11740000  1.0 -0.059846339
H  H2  1  0.63000000  0.84600000  0.38260000  1.0 -0.059846339
H  H3  1  0.87000000  0.15400000  0.88260000  1.0 -0.059846339
H  H4  1  0.63000000  0.65400000  0.61740000  1.0 -0.059846339
H  H5  1  0.13000000  0.65400000  0.88260000  1.0 -0.059846339
H  H6  1  0.37000000  0.15400000  0.61740000  1.0 -0.059846339
H  H7  1  0.13000000  0.84600000  0.11740000  1.0 -0.059846339
H  H8  1  0.37000000  0.34600000  0.38260000  1.0 -0.059846339
H  H9  1  0.92500000  0.31900000  0.18010000  1.0 -0.0511348991
H  H10  1  0.57500000  0.81900000  0.31990000  1.0 -0.0511348991
H  H11  1  0.92500000  0.18100000  0.81990000  1.0 -0.0511348991
H  H12  1  0.57500000  0.68100000  0.68010000  1.0 -0.0511348991
H  H13  1  0.07500000  0.68100000  0.81990000  1.0 -0.0511348991
H  H14  1  0.42500000  0.18100000  0.68010000  1.0 -0.0511348991
H  H15  1  0.07500000  0.81900000  0.18010000  1.0 -0.0511348991
H  H16  1  0.42500000  0.31900000  0.31990000  1.0 -0.0511348991
H  H17  1  0.09300000  0.24800000  0.17320000  1.0 -0.0022227194
H  H18  1  0.40700000  0.74800000  0.32680000  1.0 -0.0022227194
H  H19  1  0.09300000  0.25200000  0.82680000  1.0 -0.0022227194
H  H20  1  0.40700000  0.75200000  0.67320000  1.0 -0.0022227194
H  H21  1  0.90700000  0.75200000  0.82680000  1.0 -0.0022227194
H  H22  1  0.59300000  0.25200000  0.67320000  1.0 -0.0022227194
H  H23  1  0.90700000  0.74800000  0.17320000  1.0 -0.0022227194
H  H24  1  0.59300000  0.24800000  0.32680000  1.0 -0.0022227194
H  H25  1  0.11100000  0.22300000  0.10430000  1.0 -0.0396711876
H  H26  1  0.38900000  0.72300000  0.39570000  1.0 -0.0396711876
H  H27  1  0.11100000  0.27700000  0.89570000  1.0 -0.0396711876
H  H28  1  0.38900000  0.77700000  0.60430000  1.0 -0.0396711876
H  H29  1  0.88900000  0.77700000  0.89570000  1.0 -0.0396711876
H  H30  1  0.61100000  0.27700000  0.60430000  1.0 -0.0396711876
H  H31  1  0.88900000  0.72300000  0.10430000  1.0 -0.0396711876
H  H32  1  0.61100000  0.22300000  0.39570000  1.0 -0.0396711876
H  H33  1  0.97800000  0.28700000  0.06860000  1.0 -0.0792097895
H  H34  1  0.52200000  0.78700000  0.43140000  1.0 -0.0708586751
H  H35  1  0.97800000  0.21300000  0.93140000  1.0 -0.0708586751
H  H36  1  0.52200000  0.71300000  0.56860000  1.0 -0.0792097895
H  H37  1  0.02200000  0.71300000  0.93140000  1.0 -0.0708586751
H  H38  1  0.47800000  0.21300000  0.56860000  1.0 -0.0708586751
H  H39  1  0.02200000  0.78700000  0.06860000  1.0 -0.0792097895
H  H40  1  0.47800000  0.28700000  0.43140000  1.0 -0.0792097895
H  H41  1  0.81100000  0.13110000  0.25250000  1.0 0.0097979205
H  H42  1  0.68900000  0.63110000  0.24750000  1.0 0.0097979205
H  H43  1  0.81100000  0.36890000  0.74750000  1.0 0.0097979205
H  H44  1  0.68900000  0.86890000  0.75250000  1.0 0.0097979205
H  H45  1  0.18900000  0.86890000  0.74750000  1.0 0.0097979205
H  H46  1  0.31100000  0.36890000  0.75250000  1.0 0.0097979205
H  H47  1  0.18900000  0.63110000  0.25250000  1.0 0.0097979205
H  H48  1  0.31100000  0.13110000  0.24750000  1.0 0.0097979205
H  H49  1  0.95000000  0.18800000  0.22520000  1.0 0.0202272479
H  H50  1  0.55000000  0.68800000  0.27480000  1.0 0.0202272479
H  H51  1  0.95000000  0.31200000  0.77480000  1.0 0.0202272479
H  H52  1  0.55000000  0.81200000  0.72520000  1.0 0.0202272479
H  H53  1  0.05000000  0.81200000  0.77480000  1.0 0.0202272479
H  H54  1  0.45000000  0.31200000  0.72520000  1.0 0.0202272479
H  H55  1  0.05000000  0.68800000  0.22520000  1.0 0.0202272479
H  H56  1  0.45000000  0.18800000  0.27480000  1.0 0.0202272479
H  H57  1  0.07700000  0.10300000  0.19640000  1.0 0.0202272479
H  H58  1  0.42300000  0.60300000  0.30360000  1.0 0.0202272479
H  H59  1  0.07700000  0.39700000  0.80360000  1.0 0.0202272479
H  H60  1  0.42300000  0.89700000  0.69640000  1.0 0.0202272479
H  H61  1  0.92300000  0.89700000  0.80360000  1.0 0.0202272479
H  H62  1  0.57700000  0.39700000  0.69640000  1.0 0.0202272479
H  H63  1  0.92300000  0.60300000  0.19640000  1.0 0.0202272479
H  H64  1  0.57700000  0.10300000  0.30360000  1.0 0.0202272479
H  H65  1  0.00500000  0.98800000  0.20590000  1.0 -0.0106590407
H  H66  1  0.49500000  0.48800000  0.29410000  1.0 -0.0106590407
H  H67  1  0.00500000  0.51200000  0.79410000  1.0 -0.0022227194
H  H68  1  0.49500000  0.01200000  0.70590000  1.0 -0.0106590407
H  H69  1  0.99500000  0.01200000  0.79410000  1.0 -0.0106590407
H  H70  1  0.50500000  0.51200000  0.70590000  1.0 -0.0022227194
H  H71  1  0.99500000  0.48800000  0.20590000  1.0 -0.0106590407
H  H72  1  0.50500000  0.98800000  0.29410000  1.0 -0.0106590407
H  H73  1  0.83500000  0.99400000  0.24340000  1.0 -0.059846339
H  H74  1  0.66500000  0.49400000  0.25660000  1.0 -0.059846339
H  H75  1  0.83500000  0.50600000  0.75660000  1.0 -0.059846339
H  H76  1  0.66500000  0.00600000  0.74340000  1.0 -0.059846339
H  H77  1  0.16500000  0.00600000  0.75660000  1.0 -0.059846339
H  H78  1  0.33500000  0.50600000  0.74340000  1.0 -0.059846339
H  H79  1  0.16500000  0.49400000  0.24340000  1.0 -0.059846339
H  H80  1  0.33500000  0.99400000  0.25660000  1.0 -0.059846339
H  H81  1  0.76000000  0.82400000  0.13810000  1.0 -0.1397719002
H  H82  1  0.74000000  0.32400000  0.36190000  1.0 -0.1397719002
H  H83  1  0.76000000  0.67600000  0.86190000  1.0 -0.1397719002
H  H84  1  0.74000000  0.17600000  0.63810000  1.0 -0.1397719002
H  H85  1  0.24000000  0.17600000  0.86190000  1.0 -0.1397719002
H  H86  1  0.26000000  0.67600000  0.63810000  1.0 -0.1397719002
H  H87  1  0.24000000  0.32400000  0.13810000  1.0 -0.1397719002
H  H88  1  0.26000000  0.82400000  0.36190000  1.0 -0.1397719002
H  H89  1  0.83900000  0.84100000  0.07330000  1.0 -0.0210957596
H  H90  1  0.66100000  0.34100000  0.42670000  1.0 -0.0305946785
H  H91  1  0.83900000  0.65900000  0.92670000  1.0 -0.0210957596
H  H92  1  0.66100000  0.15900000  0.57330000  1.0 -0.0210957596
H  H93  1  0.16100000  0.15900000  0.92670000  1.0 -0.0210957596
H  H94  1  0.33900000  0.65900000  0.57330000  1.0 -0.0210957596
H  H95  1  0.16100000  0.34100000  0.07330000  1.0 -0.0305946785
H  H96  1  0.33900000  0.84100000  0.42670000  1.0 -0.0210957596
H  H97  1  0.97300000  0.90600000  0.07600000  1.0 -0.0792097895
H  H98  1  0.52700000  0.40600000  0.42400000  1.0 -0.0792097895
H  H99  1  0.97300000  0.59400000  0.92400000  1.0 -0.0792097895
H  H100  1  0.52700000  0.09400000  0.57600000  1.0 -0.0792097895
H  H101  1  0.02700000  0.09400000  0.92400000  1.0 -0.0792097895
H  H102  1  0.47300000  0.59400000  0.57600000  1.0 -0.0792097895
H  H103  1  0.02700000  0.40600000  0.07600000  1.0 -0.0792097895
H  H104  1  0.47300000  0.90600000  0.42400000  1.0 -0.0792097895
H  H105  1  0.02000000  0.94000000  0.15290000  1.0 -0.0708586751
H  H106  1  0.48000000  0.44000000  0.34710000  1.0 -0.0708586751
H  H107  1  0.02000000  0.56000000  0.84710000  1.0 -0.0708586751
H  H108  1  0.48000000  0.06000000  0.65290000  1.0 -0.0708586751
H  H109  1  0.98000000  0.06000000  0.84710000  1.0 -0.0708586751
H  H110  1  0.52000000  0.56000000  0.65290000  1.0 -0.0708586751
H  H111  1  0.98000000  0.44000000  0.15290000  1.0 -0.0708586751
H  H112  1  0.52000000  0.94000000  0.34710000  1.0 -0.0708586751
H  H113  1  0.89800000  0.88800000  0.18350000  1.0 -0.0210957596
H  H114  1  0.60200000  0.38800000  0.31650000  1.0 -0.0305946785
H  H115  1  0.89800000  0.61200000  0.81650000  1.0 -0.0210957596
H  H116  1  0.60200000  0.11200000  0.68350000  1.0 -0.0210957596
H  H117  1  0.10200000  0.11200000  0.81650000  1.0 -0.0210957596
H  H118  1  0.39800000  0.61200000  0.68350000  1.0 -0.0305946785
H  H119  1  0.10200000  0.38800000  0.18350000  1.0 -0.0305946785
H  H120  1  0.39800000  0.88800000  0.31650000  1.0 -0.0210957596
H  H121  1  0.66100000  0.03480000  0.24630000  1.0 -0.0396711876
H  H122  1  0.83900000  0.53480000  0.25370000  1.0 -0.0396711876
H  H123  1  0.66100000  0.46520000  0.75370000  1.0 -0.0396711876
H  H124  1  0.83900000  0.96520000  0.74630000  1.0 -0.0396711876
H  H125  1  0.33900000  0.96520000  0.75370000  1.0 -0.0396711876
H  H126  1  0.16100000  0.46520000  0.74630000  1.0 -0.0396711876
H  H127  1  0.33900000  0.53480000  0.24630000  1.0 -0.0396711876
H  H128  1  0.16100000  0.03480000  0.25370000  1.0 -0.0396711876
H  H129  1  0.62700000  0.15900000  0.23710000  1.0 -0.0396711876
H  H130  1  0.87300000  0.65900000  0.26290000  1.0 -0.0396711876
H  H131  1  0.62700000  0.34100000  0.76290000  1.0 -0.0396711876
H  H132  1  0.87300000  0.84100000  0.73710000  1.0 -0.0396711876
H  H133  1  0.37300000  0.84100000  0.76290000  1.0 -0.0396711876
H  H134  1  0.12700000  0.34100000  0.73710000  1.0 -0.0396711876
H  H135  1  0.37300000  0.65900000  0.23710000  1.0 -0.0396711876
H  H136  1  0.12700000  0.15900000  0.26290000  1.0 -0.0511348991
H  H137  1  0.46200000  0.17300000  0.20110000  1.0 -0.059846339
H  H138  1  0.03800000  0.67300000  0.29890000  1.0 -0.059846339
H  H139  1  0.46200000  0.32700000  0.79890000  1.0 -0.0511348991
H  H140  1  0.03800000  0.82700000  0.70110000  1.0 -0.0511348991
H  H141  1  0.53800000  0.82700000  0.79890000  1.0 -0.0511348991
H  H142  1  0.96200000  0.32700000  0.70110000  1.0 -0.0511348991
H  H143  1  0.53800000  0.67300000  0.20110000  1.0 -0.059846339
H  H144  1  0.96200000  0.17300000  0.29890000  1.0 -0.059846339
H  H145  1  0.40300000  0.04400000  0.18730000  1.0 -0.0792097895
H  H146  1  0.09700000  0.54400000  0.31270000  1.0 -0.0792097895
H  H147  1  0.40300000  0.45600000  0.81270000  1.0 -0.0792097895
H  H148  1  0.09700000  0.95600000  0.68730000  1.0 -0.0792097895
H  H149  1  0.59700000  0.95600000  0.81270000  1.0 -0.0792097895
H  H150  1  0.90300000  0.45600000  0.68730000  1.0 -0.0792097895
H  H151  1  0.59700000  0.54400000  0.18730000  1.0 -0.0792097895
H  H152  1  0.90300000  0.04400000  0.31270000  1.0 -0.0792097895
H  H153  1  0.51900000  0.97000000  0.21620000  1.0 -0.0305946785
H  H154  1  0.98100000  0.47000000  0.28380000  1.0 -0.0305946785
H  H155  1  0.51900000  0.53000000  0.78380000  1.0 -0.0305946785
H  H156  1  0.98100000  0.03000000  0.71620000  1.0 -0.0305946785
H  H157  1  0.48100000  0.03000000  0.78380000  1.0 -0.0305946785
H  H158  1  0.01900000  0.53000000  0.71620000  1.0 -0.0305946785
H  H159  1  0.48100000  0.47000000  0.21620000  1.0 -0.0305946785
H  H160  1  0.01900000  0.97000000  0.28380000  1.0 -0.0305946785
H  H161  1  0.43500000  0.10700000  0.03650000  1.0 -0.1898975773
H  H162  1  0.06500000  0.60700000  0.46350000  1.0 -0.1898975773
H  H163  1  0.43500000  0.39300000  0.96350000  1.0 -0.1898975773
H  H164  1  0.06500000  0.89300000  0.53650000  1.0 -0.1898975773
H  H165  1  0.56500000  0.89300000  0.96350000  1.0 -0.1898975773
H  H166  1  0.93500000  0.39300000  0.53650000  1.0 -0.1898975773
H  H167  1  0.56500000  0.60700000  0.03650000  1.0 -0.1898975773
H  H168  1  0.93500000  0.10700000  0.46350000  1.0 -0.1898975773
H  H169  1  0.43100000  0.98400000  0.06260000  1.0 -0.0708586751
H  H170  1  0.06900000  0.48400000  0.43740000  1.0 -0.0708586751
H  H171  1  0.43100000  0.51600000  0.93740000  1.0 -0.0708586751
H  H172  1  0.06900000  0.01600000  0.56260000  1.0 -0.0708586751
H  H173  1  0.56900000  0.01600000  0.93740000  1.0 -0.0708586751
H  H174  1  0.93100000  0.51600000  0.56260000  1.0 -0.0708586751
H  H175  1  0.56900000  0.48400000  0.06260000  1.0 -0.0708586751
H  H176  1  0.93100000  0.98400000  0.43740000  1.0 -0.0708586751
H  H177  1  0.58400000  0.91500000  0.04010000  1.0 -0.059846339
H  H178  1  0.91600000  0.41500000  0.45990000  1.0 -0.059846339
H  H179  1  0.58400000  0.58500000  0.95990000  1.0 -0.059846339
H  H180  1  0.91600000  0.08500000  0.54010000  1.0 -0.059846339
H  H181  1  0.41600000  0.08500000  0.95990000  1.0 -0.059846339
H  H182  1  0.08400000  0.58500000  0.54010000  1.0 -0.059846339
H  H183  1  0.41600000  0.41500000  0.04010000  1.0 -0.059846339
H  H184  1  0.08400000  0.91500000  0.45990000  1.0 -0.059846339
H  H185  1  0.68800000  0.99490000  0.99780000  1.0 -0.1043008632
H  H186  1  0.81200000  0.49490000  0.50220000  1.0 -0.1043008632
H  H187  1  0.68800000  0.50510000  0.00220000  1.0 -0.1062491378
H  H188  1  0.81200000  0.00510000  0.49780000  1.0 -0.1043008632
H  H189  1  0.31200000  0.00510000  0.00220000  1.0 -0.1062491378
H  H190  1  0.18800000  0.50510000  0.49780000  1.0 -0.1062491378
H  H191  1  0.31200000  0.49490000  0.99780000  1.0 -0.1043008632
H  H192  1  0.18800000  0.99490000  0.50220000  1.0 -0.1062491378
H  H193  1  0.60100000  0.11100000  0.99560000  1.0 -0.1617690487
H  H194  1  0.89900000  0.61100000  0.50440000  1.0 -0.1617690487
H  H195  1  0.60100000  0.38900000  0.00440000  1.0 -0.1617690487
H  H196  1  0.89900000  0.88900000  0.49560000  1.0 -0.1617690487
H  H197  1  0.39900000  0.88900000  0.00440000  1.0 -0.1617690487
H  H198  1  0.10100000  0.38900000  0.49560000  1.0 -0.1658987395
H  H199  1  0.39900000  0.61100000  0.99560000  1.0 -0.1617690487
H  H200  1  0.10100000  0.11100000  0.50440000  1.0 -0.1617690487
H  H201  1  0.74600000  0.10600000  0.08900000  1.0 0.4470682972
H  H202  1  0.75400000  0.60600000  0.41100000  1.0 0.4470682972
H  H203  1  0.74600000  0.39400000  0.91100000  1.0 0.4470682972
H  H204  1  0.75400000  0.89400000  0.58900000  1.0 0.4470682972
H  H205  1  0.25400000  0.89400000  0.91100000  1.0 0.4470682972
H  H206  1  0.24600000  0.39400000  0.58900000  1.0 0.4470682972
H  H207  1  0.25400000  0.60600000  0.08900000  1.0 0.4470682972
H  H208  1  0.24600000  0.10600000  0.41100000  1.0 0.4470682972
C  C1  1  0.92270000  0.21586000  0.13086000  1.0 0.6696935006
C  C2  1  0.57730000  0.71586000  0.36914000  1.0 0.6696935006
C  C3  1  0.92270000  0.28414000  0.86914000  1.0 0.6780613201
C  C4  1  0.57730000  0.78414000  0.63086000  1.0 0.6780613201
C  C5  1  0.07730000  0.78414000  0.86914000  1.0 0.6780613201
C  C6  1  0.42270000  0.28414000  0.63086000  1.0 0.6696935006
C  C7  1  0.07730000  0.71586000  0.13086000  1.0 0.6696935006
C  C8  1  0.42270000  0.21586000  0.36914000  1.0 0.6696935006
C  C9  1  0.98550000  0.27285000  0.12912000  1.0 -0.0511348991
C  C10  1  0.51450000  0.77285000  0.37088000  1.0 -0.0511348991
C  C11  1  0.98550000  0.22715000  0.87088000  1.0 -0.0396711876
C  C12  1  0.51450000  0.72715000  0.62912000  1.0 -0.0511348991
C  C13  1  0.01450000  0.72715000  0.87088000  1.0 -0.0511348991
C  C14  1  0.48550000  0.22715000  0.62912000  1.0 -0.0396711876
C  C15  1  0.01450000  0.77285000  0.12912000  1.0 -0.0511348991
C  C16  1  0.48550000  0.27285000  0.37088000  1.0 -0.0511348991
C  C17  1  0.87080000  0.08704000  0.18683000  1.0 0.6780613201
C  C18  1  0.62920000  0.58704000  0.31317000  1.0 0.6780613201
C  C19  1  0.87080000  0.41296000  0.81317000  1.0 0.6780613201
C  C20  1  0.62920000  0.91296000  0.68683000  1.0 0.6780613201
C  C21  1  0.12920000  0.91296000  0.81317000  1.0 0.6780613201
C  C22  1  0.37080000  0.41296000  0.68683000  1.0 0.6780613201
C  C23  1  0.12920000  0.58704000  0.18683000  1.0 0.6780613201
C  C24  1  0.37080000  0.08704000  0.31317000  1.0 0.6780613201
C  C25  1  0.92610000  0.08211000  0.22018000  1.0 0.0202272479
C  C26  1  0.57390000  0.58211000  0.27982000  1.0 0.0202272479
C  C27  1  0.92610000  0.41789000  0.77982000  1.0 0.0202272479
C  C28  1  0.57390000  0.91789000  0.72018000  1.0 0.0202272479
C  C29  1  0.07390000  0.91789000  0.77982000  1.0 0.0202272479
C  C30  1  0.42610000  0.41789000  0.72018000  1.0 0.0202272479
C  C31  1  0.07390000  0.58211000  0.22018000  1.0 0.0202272479
C  C32  1  0.42610000  0.08211000  0.27982000  1.0 0.0202272479
C  C33  1  0.83520000  0.94797000  0.11860000  1.0 0.6780613201
C  C34  1  0.66480000  0.44797000  0.38140000  1.0 0.6865720936
C  C35  1  0.83520000  0.55203000  0.88140000  1.0 0.6865720936
C  C36  1  0.66480000  0.05203000  0.61860000  1.0 0.6865720936
C  C37  1  0.16480000  0.05203000  0.88140000  1.0 0.6865720936
C  C38  1  0.33520000  0.55203000  0.61860000  1.0 0.6865720936
C  C39  1  0.16480000  0.44797000  0.11860000  1.0 0.6780613201
C  C40  1  0.33520000  0.94797000  0.38140000  1.0 0.6780613201
C  C41  1  0.89340000  0.88928000  0.12276000  1.0 -0.0210957596
C  C42  1  0.60660000  0.38928000  0.37724000  1.0 -0.0305946785
C  C43  1  0.89340000  0.61072000  0.87724000  1.0 -0.0210957596
C  C44  1  0.60660000  0.11072000  0.62276000  1.0 -0.0210957596
C  C45  1  0.10660000  0.11072000  0.87724000  1.0 -0.0210957596
C  C46  1  0.39340000  0.61072000  0.62276000  1.0 -0.0210957596
C  C47  1  0.10660000  0.38928000  0.12276000  1.0 -0.0305946785
C  C48  1  0.39340000  0.88928000  0.37724000  1.0 -0.0210957596
C  C49  1  0.59270000  0.07790000  0.17974000  1.0 0.7159215859
C  C50  1  0.90730000  0.57790000  0.32026000  1.0 0.7159215859
C  C51  1  0.59270000  0.42210000  0.82026000  1.0 0.7159215859
C  C52  1  0.90730000  0.92210000  0.67974000  1.0 0.7159215859
C  C53  1  0.40730000  0.92210000  0.82026000  1.0 0.7159215859
C  C54  1  0.09270000  0.42210000  0.67974000  1.0 0.7159215859
C  C55  1  0.40730000  0.57790000  0.17974000  1.0 0.7143391081
C  C56  1  0.09270000  0.07790000  0.32026000  1.0 0.7159215859
C  C57  1  0.53830000  0.07736000  0.21295000  1.0 -0.0396711876
C  C58  1  0.96170000  0.57736000  0.28705000  1.0 -0.0396711876
C  C59  1  0.53830000  0.42264000  0.78705000  1.0 -0.0396711876
C  C60  1  0.96170000  0.92264000  0.71295000  1.0 -0.0305946785
C  C61  1  0.46170000  0.92264000  0.78705000  1.0 -0.0305946785
C  C62  1  0.03830000  0.42264000  0.71295000  1.0 -0.0396711876
C  C63  1  0.46170000  0.57736000  0.21295000  1.0 -0.0396711876
C  C64  1  0.03830000  0.07736000  0.28705000  1.0 -0.0396711876
C  C65  1  0.61670000  0.04622000  0.06058000  1.0 0.6696935006
C  C66  1  0.88330000  0.54622000  0.43942000  1.0 0.6696935006
C  C67  1  0.61670000  0.45378000  0.93942000  1.0 0.6696935006
C  C68  1  0.88330000  0.95378000  0.56058000  1.0 0.6696935006
C  C69  1  0.38330000  0.95378000  0.93942000  1.0 0.6696935006
C  C70  1  0.11670000  0.45378000  0.56058000  1.0 0.6696935006
C  C71  1  0.38330000  0.54622000  0.06058000  1.0 0.6696935006
C  C72  1  0.11670000  0.04622000  0.43942000  1.0 0.6696935006
C  C73  1  0.55860000  0.02286000  0.03046000  1.0 -0.059846339
C  C74  1  0.94140000  0.52286000  0.46954000  1.0 -0.0511348991
C  C75  1  0.55860000  0.47714000  0.96954000  1.0 -0.059846339
C  C76  1  0.94140000  0.97714000  0.53046000  1.0 -0.059846339
C  C77  1  0.44140000  0.97714000  0.96954000  1.0 -0.059846339
C  C78  1  0.05860000  0.47714000  0.53046000  1.0 -0.059846339
C  C79  1  0.44140000  0.52286000  0.03046000  1.0 -0.0511348991
C  C80  1  0.05860000  0.02286000  0.46954000  1.0 -0.059846339
O  O1  1  0.76030000  0.10220000  0.11587000  1.0 -0.6839321188
O  O2  1  0.73970000  0.60220000  0.38413000  1.0 -0.6839321188
O  O3  1  0.76030000  0.39780000  0.88413000  1.0 -0.6859068167
O  O4  1  0.73970000  0.89780000  0.61587000  1.0 -0.6859068167
O  O5  1  0.23970000  0.89780000  0.88413000  1.0 -0.6839321188
O  O6  1  0.26030000  0.39780000  0.61587000  1.0 -0.6859068167
O  O7  1  0.23970000  0.60220000  0.11587000  1.0 -0.6839321188
O  O8  1  0.26030000  0.10220000  0.38413000  1.0 -0.6839321188
O  O9  1  0.84840000  0.22340000  0.14435000  1.0 -0.5499069661
O  O10  1  0.65160000  0.72340000  0.35565000  1.0 -0.5499069661
O  O11  1  0.84840000  0.27660000  0.85565000  1.0 -0.5499069661
O  O12  1  0.65160000  0.77660000  0.64435000  1.0 -0.5499069661
O  O13  1  0.15160000  0.77660000  0.85565000  1.0 -0.5499069661
O  O14  1  0.34840000  0.27660000  0.64435000  1.0 -0.5499069661
O  O15  1  0.15160000  0.72340000  0.14435000  1.0 -0.5499069661
O  O16  1  0.34840000  0.22340000  0.35565000  1.0 -0.5499069661
O  O17  1  0.95270000  0.16850000  0.11832000  1.0 -0.5499069661
O  O18  1  0.54730000  0.66850000  0.38168000  1.0 -0.5387880694
O  O19  1  0.95270000  0.33150000  0.88168000  1.0 -0.5499069661
O  O20  1  0.54730000  0.83150000  0.61832000  1.0 -0.5387880694
O  O21  1  0.04730000  0.83150000  0.88168000  1.0 -0.5387880694
O  O22  1  0.45270000  0.33150000  0.61832000  1.0 -0.5499069661
O  O23  1  0.04730000  0.66850000  0.11832000  1.0 -0.5387880694
O  O24  1  0.45270000  0.16850000  0.38168000  1.0 -0.5499069661
O  O25  1  0.80070000  0.11850000  0.18808000  1.0 -0.4883840113
O  O26  1  0.69930000  0.61850000  0.31192000  1.0 -0.4883840113
O  O27  1  0.80070000  0.38150000  0.81192000  1.0 -0.4883840113
O  O28  1  0.69930000  0.88150000  0.68808000  1.0 -0.4883840113
O  O29  1  0.19930000  0.88150000  0.81192000  1.0 -0.4883840113
O  O30  1  0.30070000  0.38150000  0.68808000  1.0 -0.4883840113
O  O31  1  0.19930000  0.61850000  0.18808000  1.0 -0.4883840113
O  O32  1  0.30070000  0.11850000  0.31192000  1.0 -0.4883840113
O  O33  1  0.90480000  0.05992000  0.16176000  1.0 -0.5028515698
O  O34  1  0.59520000  0.55992000  0.33824000  1.0 -0.5028515698
O  O35  1  0.90480000  0.44008000  0.83824000  1.0 -0.5028515698
O  O36  1  0.59520000  0.94008000  0.66176000  1.0 -0.5028515698
O  O37  1  0.09520000  0.94008000  0.83824000  1.0 -0.5028515698
O  O38  1  0.40480000  0.44008000  0.66176000  1.0 -0.5028515698
O  O39  1  0.09520000  0.55992000  0.16176000  1.0 -0.5028515698
O  O40  1  0.40480000  0.05992000  0.33824000  1.0 -0.5028515698
O  O41  1  0.76186000  0.95042000  0.13522000  1.0 -0.505572646
O  O42  1  0.73814000  0.45042000  0.36478000  1.0 -0.505572646
O  O43  1  0.76186000  0.54958000  0.86478000  1.0 -0.5028515698
O  O44  1  0.73814000  0.04958000  0.63522000  1.0 -0.5028515698
O  O45  1  0.23814000  0.04958000  0.86478000  1.0 -0.5028515698
O  O46  1  0.26186000  0.54958000  0.63522000  1.0 -0.5028515698
O  O47  1  0.23814000  0.45042000  0.13522000  1.0 -0.505572646
O  O48  1  0.26186000  0.95042000  0.36478000  1.0 -0.505572646
O  O49  1  0.86580000  0.98847000  0.09922000  1.0 -0.5499069661
O  O50  1  0.63420000  0.48847000  0.40078000  1.0 -0.5499069661
O  O51  1  0.86580000  0.51153000  0.90078000  1.0 -0.5499069661
O  O52  1  0.63420000  0.01153000  0.59922000  1.0 -0.5499069661
O  O53  1  0.13420000  0.01153000  0.90078000  1.0 -0.5499069661
O  O54  1  0.36580000  0.51153000  0.59922000  1.0 -0.5499069661
O  O55  1  0.13420000  0.48847000  0.09922000  1.0 -0.5499069661
O  O56  1  0.36580000  0.98847000  0.40078000  1.0 -0.5499069661
O  O57  1  0.60692000  0.12858000  0.16616000  1.0 -0.5387880694
O  O58  1  0.89308000  0.62858000  0.33384000  1.0 -0.5387880694
O  O59  1  0.60692000  0.37142000  0.83384000  1.0 -0.5387880694
O  O60  1  0.89308000  0.87142000  0.66616000  1.0 -0.5387880694
O  O61  1  0.39308000  0.87142000  0.83384000  1.0 -0.5387880694
O  O62  1  0.10692000  0.37142000  0.66616000  1.0 -0.5387880694
O  O63  1  0.39308000  0.62858000  0.16616000  1.0 -0.5387880694
O  O64  1  0.10692000  0.12858000  0.33384000  1.0 -0.5387880694
O  O65  1  0.61806000  0.02577000  0.16908000  1.0 -0.4883840113
O  O66  1  0.88194000  0.52577000  0.33092000  1.0 -0.4883840113
O  O67  1  0.61806000  0.47423000  0.83092000  1.0 -0.4883840113
O  O68  1  0.88194000  0.97423000  0.66908000  1.0 -0.4883840113
O  O69  1  0.38194000  0.97423000  0.83092000  1.0 -0.4883840113
O  O70  1  0.11806000  0.47423000  0.66908000  1.0 -0.4883840113
O  O71  1  0.38194000  0.52577000  0.16908000  1.0 -0.4883840113
O  O72  1  0.11806000  0.02577000  0.33092000  1.0 -0.4883840113
O  O73  1  0.61266000  0.01165000  0.08680000  1.0 -0.5499069661
O  O74  1  0.88734000  0.51165000  0.41320000  1.0 -0.5499069661
O  O75  1  0.61266000  0.48835000  0.91320000  1.0 -0.5499069661
O  O76  1  0.88734000  0.98835000  0.58680000  1.0 -0.5499069661
O  O77  1  0.38734000  0.98835000  0.91320000  1.0 -0.5499069661
O  O78  1  0.11266000  0.48835000  0.58680000  1.0 -0.5499069661
O  O79  1  0.38734000  0.51165000  0.08680000  1.0 -0.5499069661
O  O80  1  0.11266000  0.01165000  0.41320000  1.0 -0.5499069661
O  O81  1  0.66050000  0.09332000  0.05693000  1.0 -0.528030879
O  O82  1  0.83950000  0.59332000  0.44307000  1.0 -0.528030879
O  O83  1  0.66050000  0.40668000  0.94307000  1.0 -0.528030879
O  O84  1  0.83950000  0.90668000  0.55693000  1.0 -0.528030879
O  O85  1  0.33950000  0.90668000  0.94307000  1.0 -0.528030879
O  O86  1  0.16050000  0.40668000  0.55693000  1.0 -0.528030879
O  O87  1  0.33950000  0.59332000  0.05693000  1.0 -0.528030879
O  O88  1  0.16050000  0.09332000  0.44307000  1.0 -0.528030879
