# DDEC6 charges by PACMAN v1.1 (https://github.com/mtap-research/PACMAN-charge/)
data_c7qm00414a2_2_ASR_pacman
_symmetry_space_group_name_H-M   'P 1'
_cell_length_a   28.10490000
_cell_length_b   28.10490000
_cell_length_c   28.10490000
_cell_angle_alpha   90.00000000
_cell_angle_beta   90.00000000
_cell_angle_gamma   90.00000000
_symmetry_Int_Tables_number   1
_chemical_formula_structural   ZnH14C21N5O4
_chemical_formula_sum   'Zn12 H168 C252 N60 O48'
_cell_volume   22199.65029116
_cell_formula_units_Z   12
loop_
 _symmetry_equiv_pos_site_id
 _symmetry_equiv_pos_as_xyz
  1  'x, y, z'
loop_
 _atom_site_type_symbol
 _atom_site_label
 _atom_site_symmetry_multiplicity
 _atom_site_fract_x
 _atom_site_fract_y
 _atom_site_fract_z
 _atom_site_occupancy
 _atom_site_charge
Zn  Zn1  1  0.50000000  0.19774000  0.00000000  1.0 0.7827654765
Zn  Zn2  1  0.50000000  0.80226000  0.00000000  1.0 0.7827654765
Zn  Zn3  1  0.00000000  0.50000000  0.19774000  1.0 0.7827654765
Zn  Zn4  1  0.00000000  0.50000000  0.80226000  1.0 0.7827654765
Zn  Zn5  1  0.19774000  0.00000000  0.50000000  1.0 0.7827654765
Zn  Zn6  1  0.80226000  0.00000000  0.50000000  1.0 0.7827654765
Zn  Zn7  1  0.69774000  0.00000000  0.50000000  1.0 0.7827654765
Zn  Zn8  1  0.30226000  0.00000000  0.50000000  1.0 0.7827654765
Zn  Zn9  1  0.00000000  0.50000000  0.69774000  1.0 0.7827654765
Zn  Zn10  1  0.00000000  0.50000000  0.30226000  1.0 0.7827654765
Zn  Zn11  1  0.50000000  0.69774000  0.00000000  1.0 0.7827654765
Zn  Zn12  1  0.50000000  0.30226000  0.00000000  1.0 0.7827654765
H  H1  1  0.62010000  0.22460000  0.28330000  1.0 0.2889873708
H  H2  1  0.37990000  0.77540000  0.28330000  1.0 0.2889873708
H  H3  1  0.37990000  0.22460000  0.71670000  1.0 0.2889873708
H  H4  1  0.62010000  0.77540000  0.71670000  1.0 0.2889873708
H  H5  1  0.28330000  0.62010000  0.22460000  1.0 0.2889873708
H  H6  1  0.28330000  0.37990000  0.77540000  1.0 0.2889873708
H  H7  1  0.71670000  0.37990000  0.22460000  1.0 0.2889873708
H  H8  1  0.71670000  0.62010000  0.77540000  1.0 0.2889873708
H  H9  1  0.22460000  0.28330000  0.62010000  1.0 0.2889873708
H  H10  1  0.77540000  0.28330000  0.37990000  1.0 0.2889873708
H  H11  1  0.22460000  0.71670000  0.37990000  1.0 0.2889873708
H  H12  1  0.77540000  0.71670000  0.62010000  1.0 0.2889873708
H  H13  1  0.72460000  0.12010000  0.78330000  1.0 0.2889873708
H  H14  1  0.27540000  0.87990000  0.78330000  1.0 0.2889873708
H  H15  1  0.72460000  0.87990000  0.21670000  1.0 0.2889873708
H  H16  1  0.27540000  0.12010000  0.21670000  1.0 0.2889873708
H  H17  1  0.12010000  0.78330000  0.72460000  1.0 0.2889873708
H  H18  1  0.87990000  0.78330000  0.27540000  1.0 0.2889873708
H  H19  1  0.87990000  0.21670000  0.72460000  1.0 0.2889873708
H  H20  1  0.12010000  0.21670000  0.27540000  1.0 0.2889873708
H  H21  1  0.78330000  0.72460000  0.12010000  1.0 0.2889873708
H  H22  1  0.78330000  0.27540000  0.87990000  1.0 0.2889873708
H  H23  1  0.21670000  0.72460000  0.87990000  1.0 0.2889873708
H  H24  1  0.21670000  0.27540000  0.12010000  1.0 0.2889873708
H  H25  1  0.56850000  0.32020000  0.13780000  1.0 0.1195306432
H  H26  1  0.43150000  0.67980000  0.13780000  1.0 0.1195306432
H  H27  1  0.43150000  0.32020000  0.86220000  1.0 0.1195306432
H  H28  1  0.56850000  0.67980000  0.86220000  1.0 0.1195306432
H  H29  1  0.13780000  0.56850000  0.32020000  1.0 0.1195306432
H  H30  1  0.13780000  0.43150000  0.67980000  1.0 0.1195306432
H  H31  1  0.86220000  0.43150000  0.32020000  1.0 0.1195306432
H  H32  1  0.86220000  0.56850000  0.67980000  1.0 0.1195306432
H  H33  1  0.32020000  0.13780000  0.56850000  1.0 0.1195306432
H  H34  1  0.67980000  0.13780000  0.43150000  1.0 0.1195306432
H  H35  1  0.32020000  0.86220000  0.43150000  1.0 0.1195306432
H  H36  1  0.67980000  0.86220000  0.56850000  1.0 0.1195306432
H  H37  1  0.82020000  0.06850000  0.63780000  1.0 0.1195306432
H  H38  1  0.17980000  0.93150000  0.63780000  1.0 0.1195306432
H  H39  1  0.82020000  0.93150000  0.36220000  1.0 0.1195306432
H  H40  1  0.17980000  0.06850000  0.36220000  1.0 0.1195306432
H  H41  1  0.06850000  0.63780000  0.82020000  1.0 0.1195306432
H  H42  1  0.93150000  0.63780000  0.17980000  1.0 0.1195306432
H  H43  1  0.93150000  0.36220000  0.82020000  1.0 0.1195306432
H  H44  1  0.06850000  0.36220000  0.17980000  1.0 0.1195306432
H  H45  1  0.63780000  0.82020000  0.06850000  1.0 0.1195306432
H  H46  1  0.63780000  0.17980000  0.93150000  1.0 0.1195306432
H  H47  1  0.36220000  0.82020000  0.93150000  1.0 0.1195306432
H  H48  1  0.36220000  0.17980000  0.06850000  1.0 0.1195306432
H  H49  1  0.60970000  0.31950000  0.21010000  1.0 0.1195306432
H  H50  1  0.39030000  0.68050000  0.21010000  1.0 0.1195306432
H  H51  1  0.39030000  0.31950000  0.78990000  1.0 0.1195306432
H  H52  1  0.60970000  0.68050000  0.78990000  1.0 0.1195306432
H  H53  1  0.21010000  0.60970000  0.31950000  1.0 0.1195306432
H  H54  1  0.21010000  0.39030000  0.68050000  1.0 0.1195306432
H  H55  1  0.78990000  0.39030000  0.31950000  1.0 0.1195306432
H  H56  1  0.78990000  0.60970000  0.68050000  1.0 0.1195306432
H  H57  1  0.31950000  0.21010000  0.60970000  1.0 0.1195306432
H  H58  1  0.68050000  0.21010000  0.39030000  1.0 0.1195306432
H  H59  1  0.31950000  0.78990000  0.39030000  1.0 0.1195306432
H  H60  1  0.68050000  0.78990000  0.60970000  1.0 0.1195306432
H  H61  1  0.81950000  0.10970000  0.71010000  1.0 0.1195306432
H  H62  1  0.18050000  0.89030000  0.71010000  1.0 0.1195306432
H  H63  1  0.81950000  0.89030000  0.28990000  1.0 0.1195306432
H  H64  1  0.18050000  0.10970000  0.28990000  1.0 0.1195306432
H  H65  1  0.10970000  0.71010000  0.81950000  1.0 0.1195306432
H  H66  1  0.89030000  0.71010000  0.18050000  1.0 0.1195306432
H  H67  1  0.89030000  0.28990000  0.81950000  1.0 0.1195306432
H  H68  1  0.10970000  0.28990000  0.18050000  1.0 0.1195306432
H  H69  1  0.71010000  0.81950000  0.10970000  1.0 0.1195306432
H  H70  1  0.71010000  0.18050000  0.89030000  1.0 0.1195306432
H  H71  1  0.28990000  0.81950000  0.89030000  1.0 0.1195306432
H  H72  1  0.28990000  0.18050000  0.10970000  1.0 0.1195306432
H  H73  1  0.59930000  0.17570000  0.21460000  1.0 0.1195306432
H  H74  1  0.40070000  0.82430000  0.21460000  1.0 0.1195306432
H  H75  1  0.40070000  0.17570000  0.78540000  1.0 0.1195306432
H  H76  1  0.59930000  0.82430000  0.78540000  1.0 0.1195306432
H  H77  1  0.21460000  0.59930000  0.17570000  1.0 0.1195306432
H  H78  1  0.21460000  0.40070000  0.82430000  1.0 0.1195306432
H  H79  1  0.78540000  0.40070000  0.17570000  1.0 0.1195306432
H  H80  1  0.78540000  0.59930000  0.82430000  1.0 0.1195306432
H  H81  1  0.17570000  0.21460000  0.59930000  1.0 0.1195306432
H  H82  1  0.82430000  0.21460000  0.40070000  1.0 0.1195306432
H  H83  1  0.17570000  0.78540000  0.40070000  1.0 0.1195306432
H  H84  1  0.82430000  0.78540000  0.59930000  1.0 0.1195306432
H  H85  1  0.67570000  0.09930000  0.71460000  1.0 0.1195306432
H  H86  1  0.32430000  0.90070000  0.71460000  1.0 0.1195306432
H  H87  1  0.67570000  0.90070000  0.28540000  1.0 0.1195306432
H  H88  1  0.32430000  0.09930000  0.28540000  1.0 0.1195306432
H  H89  1  0.09930000  0.71460000  0.67570000  1.0 0.1195306432
H  H90  1  0.90070000  0.71460000  0.32430000  1.0 0.1195306432
H  H91  1  0.90070000  0.28540000  0.67570000  1.0 0.1195306432
H  H92  1  0.09930000  0.28540000  0.32430000  1.0 0.1195306432
H  H93  1  0.71460000  0.67570000  0.09930000  1.0 0.1195306432
H  H94  1  0.71460000  0.32430000  0.90070000  1.0 0.1195306432
H  H95  1  0.28540000  0.67570000  0.90070000  1.0 0.1195306432
H  H96  1  0.28540000  0.32430000  0.09930000  1.0 0.1195306432
H  H97  1  0.55800000  0.17650000  0.14220000  1.0 0.1195306432
H  H98  1  0.44200000  0.82350000  0.14220000  1.0 0.1195306432
H  H99  1  0.44200000  0.17650000  0.85780000  1.0 0.1195306432
H  H100  1  0.55800000  0.82350000  0.85780000  1.0 0.1195306432
H  H101  1  0.14220000  0.55800000  0.17650000  1.0 0.1195306432
H  H102  1  0.14220000  0.44200000  0.82350000  1.0 0.1195306432
H  H103  1  0.85780000  0.44200000  0.17650000  1.0 0.1195306432
H  H104  1  0.85780000  0.55800000  0.82350000  1.0 0.1195306432
H  H105  1  0.17650000  0.14220000  0.55800000  1.0 0.1195306432
H  H106  1  0.82350000  0.14220000  0.44200000  1.0 0.1195306432
H  H107  1  0.17650000  0.85780000  0.44200000  1.0 0.1195306432
H  H108  1  0.82350000  0.85780000  0.55800000  1.0 0.1195306432
H  H109  1  0.67650000  0.05800000  0.64220000  1.0 0.1195306432
H  H110  1  0.32350000  0.94200000  0.64220000  1.0 0.1195306432
H  H111  1  0.67650000  0.94200000  0.35780000  1.0 0.1195306432
H  H112  1  0.32350000  0.05800000  0.35780000  1.0 0.1195306432
H  H113  1  0.05800000  0.64220000  0.67650000  1.0 0.1195306432
H  H114  1  0.94200000  0.64220000  0.32350000  1.0 0.1195306432
H  H115  1  0.94200000  0.35780000  0.67650000  1.0 0.1195306432
H  H116  1  0.05800000  0.35780000  0.32350000  1.0 0.1195306432
H  H117  1  0.64220000  0.67650000  0.05800000  1.0 0.1195306432
H  H118  1  0.64220000  0.32350000  0.94200000  1.0 0.1195306432
H  H119  1  0.35780000  0.67650000  0.94200000  1.0 0.1195306432
H  H120  1  0.35780000  0.32350000  0.05800000  1.0 0.1195306432
H  H121  1  0.55400000  0.11660000  0.95500000  0.37 0.1101661187
H  H122  1  0.44600000  0.88340000  0.95500000  0.37 0.1101661187
H  H123  1  0.44600000  0.11660000  0.04500000  0.37 0.1101661187
H  H124  1  0.55400000  0.88340000  0.04500000  0.37 0.1101661187
H  H125  1  0.95500000  0.55400000  0.11660000  0.37 0.1101661187
H  H126  1  0.95500000  0.44600000  0.88340000  0.37 0.1101661187
H  H127  1  0.04500000  0.44600000  0.11660000  0.37 0.1101661187
H  H128  1  0.04500000  0.55400000  0.88340000  0.37 0.1101661187
H  H129  1  0.11660000  0.95500000  0.55400000  0.37 0.1101661187
H  H130  1  0.88340000  0.95500000  0.44600000  0.37 0.1101661187
H  H131  1  0.11660000  0.04500000  0.44600000  0.37 0.1101661187
H  H132  1  0.88340000  0.04500000  0.55400000  0.37 0.1101661187
H  H133  1  0.61660000  0.05400000  0.45500000  0.37 0.1101661187
H  H134  1  0.38340000  0.94600000  0.45500000  0.37 0.1101661187
H  H135  1  0.61660000  0.94600000  0.54500000  0.37 0.1101661187
H  H136  1  0.38340000  0.05400000  0.54500000  0.37 0.1101661187
H  H137  1  0.05400000  0.45500000  0.61660000  0.37 0.1101661187
H  H138  1  0.94600000  0.45500000  0.38340000  0.37 0.1101661187
H  H139  1  0.94600000  0.54500000  0.61660000  0.37 0.1101661187
H  H140  1  0.05400000  0.54500000  0.38340000  0.37 0.1101661187
H  H141  1  0.45500000  0.61660000  0.05400000  0.37 0.1101661187
H  H142  1  0.45500000  0.38340000  0.94600000  0.37 0.1101661187
H  H143  1  0.54500000  0.61660000  0.94600000  0.37 0.1101661187
H  H144  1  0.54500000  0.38340000  0.05400000  0.37 0.1101661187
H  H145  1  0.54740000  0.03610000  0.94700000  0.37 0.0986832094
H  H146  1  0.45260000  0.96390000  0.94700000  0.37 0.0986832094
H  H147  1  0.45260000  0.03610000  0.05300000  0.37 0.0986832094
H  H148  1  0.54740000  0.96390000  0.05300000  0.37 0.0986832094
H  H149  1  0.94700000  0.54740000  0.03610000  0.37 0.0986832094
H  H150  1  0.94700000  0.45260000  0.96390000  0.37 0.0986832094
H  H151  1  0.05300000  0.45260000  0.03610000  0.37 0.0986832094
H  H152  1  0.05300000  0.54740000  0.96390000  0.37 0.0986832094
H  H153  1  0.03610000  0.94700000  0.54740000  0.37 0.0986832094
H  H154  1  0.96390000  0.94700000  0.45260000  0.37 0.0986832094
H  H155  1  0.03610000  0.05300000  0.45260000  0.37 0.0986832094
H  H156  1  0.96390000  0.05300000  0.54740000  0.37 0.0986832094
H  H157  1  0.53610000  0.04740000  0.44700000  0.37 0.0986832094
H  H158  1  0.46390000  0.95260000  0.44700000  0.37 0.0986832094
H  H159  1  0.53610000  0.95260000  0.55300000  0.37 0.0986832094
H  H160  1  0.46390000  0.04740000  0.55300000  0.37 0.0986832094
H  H161  1  0.04740000  0.44700000  0.53610000  0.37 0.0986832094
H  H162  1  0.95260000  0.44700000  0.46390000  0.37 0.0986832094
H  H163  1  0.95260000  0.55300000  0.53610000  0.37 0.0986832094
H  H164  1  0.04740000  0.55300000  0.46390000  0.37 0.0986832094
H  H165  1  0.44700000  0.53610000  0.04740000  0.37 0.0986832094
H  H166  1  0.44700000  0.46390000  0.95260000  0.37 0.0986832094
H  H167  1  0.55300000  0.53610000  0.95260000  0.37 0.0986832094
H  H168  1  0.55300000  0.46390000  0.04740000  0.37 0.0986832094
H  H169  1  0.48140000  0.11600000  0.93270000  0.63 0.1101661187
H  H170  1  0.51860000  0.88400000  0.93270000  0.63 0.1101661187
H  H171  1  0.51860000  0.11600000  0.06730000  0.63 0.1101661187
H  H172  1  0.48140000  0.88400000  0.06730000  0.63 0.1101661187
H  H173  1  0.93270000  0.48140000  0.11600000  0.63 0.1101661187
H  H174  1  0.93270000  0.51860000  0.88400000  0.63 0.1101661187
H  H175  1  0.06730000  0.51860000  0.11600000  0.63 0.1101661187
H  H176  1  0.06730000  0.48140000  0.88400000  0.63 0.1101661187
H  H177  1  0.11600000  0.93270000  0.48140000  0.63 0.1101661187
H  H178  1  0.88400000  0.93270000  0.51860000  0.63 0.1101661187
H  H179  1  0.11600000  0.06730000  0.51860000  0.63 0.1101661187
H  H180  1  0.88400000  0.06730000  0.48140000  0.63 0.1101661187
H  H181  1  0.61600000  0.98140000  0.43270000  0.63 0.1101661187
H  H182  1  0.38400000  0.01860000  0.43270000  0.63 0.1101661187
H  H183  1  0.61600000  0.01860000  0.56730000  0.63 0.1101661187
H  H184  1  0.38400000  0.98140000  0.56730000  0.63 0.1101661187
H  H185  1  0.98140000  0.43270000  0.61600000  0.63 0.1101661187
H  H186  1  0.01860000  0.43270000  0.38400000  0.63 0.1101661187
H  H187  1  0.01860000  0.56730000  0.61600000  0.63 0.1101661187
H  H188  1  0.98140000  0.56730000  0.38400000  0.63 0.1101661187
H  H189  1  0.43270000  0.61600000  0.98140000  0.63 0.1101661187
H  H190  1  0.43270000  0.38400000  0.01860000  0.63 0.1101661187
H  H191  1  0.56730000  0.61600000  0.01860000  0.63 0.1101661187
H  H192  1  0.56730000  0.38400000  0.98140000  0.63 0.1101661187
H  H193  1  0.48560000  0.03610000  0.93120000  0.63 0.0937733463
H  H194  1  0.51440000  0.96390000  0.93120000  0.63 0.0937733463
H  H195  1  0.51440000  0.03610000  0.06880000  0.63 0.0937733463
H  H196  1  0.48560000  0.96390000  0.06880000  0.63 0.0937733463
H  H197  1  0.93120000  0.48560000  0.03610000  0.63 0.0937733463
H  H198  1  0.93120000  0.51440000  0.96390000  0.63 0.0937733463
H  H199  1  0.06880000  0.51440000  0.03610000  0.63 0.0937733463
H  H200  1  0.06880000  0.48560000  0.96390000  0.63 0.0937733463
H  H201  1  0.03610000  0.93120000  0.48560000  0.63 0.0937733463
H  H202  1  0.96390000  0.93120000  0.51440000  0.63 0.0937733463
H  H203  1  0.03610000  0.06880000  0.51440000  0.63 0.0937733463
H  H204  1  0.96390000  0.06880000  0.48560000  0.63 0.0937733463
H  H205  1  0.53610000  0.98560000  0.43120000  0.63 0.0937733463
H  H206  1  0.46390000  0.01440000  0.43120000  0.63 0.0937733463
H  H207  1  0.53610000  0.01440000  0.56880000  0.63 0.0937733463
H  H208  1  0.46390000  0.98560000  0.56880000  0.63 0.0937733463
H  H209  1  0.98560000  0.43120000  0.53610000  0.63 0.0937733463
H  H210  1  0.01440000  0.43120000  0.46390000  0.63 0.0937733463
H  H211  1  0.01440000  0.56880000  0.53610000  0.63 0.0937733463
H  H212  1  0.98560000  0.56880000  0.46390000  0.63 0.0937733463
H  H213  1  0.43120000  0.53610000  0.98560000  0.63 0.0937733463
H  H214  1  0.43120000  0.46390000  0.01440000  0.63 0.0937733463
H  H215  1  0.56880000  0.53610000  0.01440000  0.63 0.0937733463
H  H216  1  0.56880000  0.46390000  0.98560000  0.63 0.0937733463
C  C1  1  0.53480000  0.24730000  0.08677000  1.0 0.5671492802
C  C2  1  0.46520000  0.75270000  0.08677000  1.0 0.5671492802
C  C3  1  0.46520000  0.24730000  0.91323000  1.0 0.5671492802
C  C4  1  0.53480000  0.75270000  0.91323000  1.0 0.5671492802
C  C5  1  0.08677000  0.53480000  0.24730000  1.0 0.5671492802
C  C6  1  0.08677000  0.46520000  0.75270000  1.0 0.5671492802
C  C7  1  0.91323000  0.46520000  0.24730000  1.0 0.5671492802
C  C8  1  0.91323000  0.53480000  0.75270000  1.0 0.5671492802
C  C9  1  0.24730000  0.08677000  0.53480000  1.0 0.5671492802
C  C10  1  0.75270000  0.08677000  0.46520000  1.0 0.5671492802
C  C11  1  0.24730000  0.91323000  0.46520000  1.0 0.5671492802
C  C12  1  0.75270000  0.91323000  0.53480000  1.0 0.5671492802
C  C13  1  0.74730000  0.03480000  0.58677000  1.0 0.5671492802
C  C14  1  0.25270000  0.96520000  0.58677000  1.0 0.5671492802
C  C15  1  0.74730000  0.96520000  0.41323000  1.0 0.5671492802
C  C16  1  0.25270000  0.03480000  0.41323000  1.0 0.5671492802
C  C17  1  0.03480000  0.58677000  0.74730000  1.0 0.5671492802
C  C18  1  0.96520000  0.58677000  0.25270000  1.0 0.5671492802
C  C19  1  0.96520000  0.41323000  0.74730000  1.0 0.5671492802
C  C20  1  0.03480000  0.41323000  0.25270000  1.0 0.5671492802
C  C21  1  0.58677000  0.74730000  0.03480000  1.0 0.5671492802
C  C22  1  0.58677000  0.25270000  0.96520000  1.0 0.5671492802
C  C23  1  0.41323000  0.74730000  0.96520000  1.0 0.5671492802
C  C24  1  0.41323000  0.25270000  0.03480000  1.0 0.5671492802
C  C25  1  0.55938000  0.24842000  0.13320000  1.0 -0.0539551515
C  C26  1  0.44062000  0.75158000  0.13320000  1.0 -0.0539551515
C  C27  1  0.44062000  0.24842000  0.86680000  1.0 -0.0539551515
C  C28  1  0.55938000  0.75158000  0.86680000  1.0 -0.0539551515
C  C29  1  0.13320000  0.55938000  0.24842000  1.0 -0.0539551515
C  C30  1  0.13320000  0.44062000  0.75158000  1.0 -0.0539551515
C  C31  1  0.86680000  0.44062000  0.24842000  1.0 -0.0539551515
C  C32  1  0.86680000  0.55938000  0.75158000  1.0 -0.0539551515
C  C33  1  0.24842000  0.13320000  0.55938000  1.0 -0.0539551515
C  C34  1  0.75158000  0.13320000  0.44062000  1.0 -0.0539551515
C  C35  1  0.24842000  0.86680000  0.44062000  1.0 -0.0539551515
C  C36  1  0.75158000  0.86680000  0.55938000  1.0 -0.0539551515
C  C37  1  0.74842000  0.05938000  0.63320000  1.0 -0.0539551515
C  C38  1  0.25158000  0.94062000  0.63320000  1.0 -0.0539551515
C  C39  1  0.74842000  0.94062000  0.36680000  1.0 -0.0539551515
C  C40  1  0.25158000  0.05938000  0.36680000  1.0 -0.0539551515
C  C41  1  0.05938000  0.63320000  0.74842000  1.0 -0.0539551515
C  C42  1  0.94062000  0.63320000  0.25158000  1.0 -0.0539551515
C  C43  1  0.94062000  0.36680000  0.74842000  1.0 -0.0539551515
C  C44  1  0.05938000  0.36680000  0.25158000  1.0 -0.0539551515
C  C45  1  0.63320000  0.74842000  0.05938000  1.0 -0.0539551515
C  C46  1  0.63320000  0.25158000  0.94062000  1.0 -0.0539551515
C  C47  1  0.36680000  0.74842000  0.94062000  1.0 -0.0539551515
C  C48  1  0.36680000  0.25158000  0.05938000  1.0 -0.0539551515
C  C49  1  0.57473000  0.29090000  0.15334000  1.0 -0.0893281573
C  C50  1  0.42527000  0.70910000  0.15334000  1.0 -0.0893281573
C  C51  1  0.42527000  0.29090000  0.84666000  1.0 -0.0893281573
C  C52  1  0.57473000  0.70910000  0.84666000  1.0 -0.0893281573
C  C53  1  0.15334000  0.57473000  0.29090000  1.0 -0.0893281573
C  C54  1  0.15334000  0.42527000  0.70910000  1.0 -0.0893281573
C  C55  1  0.84666000  0.42527000  0.29090000  1.0 -0.0893281573
C  C56  1  0.84666000  0.57473000  0.70910000  1.0 -0.0893281573
C  C57  1  0.29090000  0.15334000  0.57473000  1.0 -0.0893281573
C  C58  1  0.70910000  0.15334000  0.42527000  1.0 -0.0893281573
C  C59  1  0.29090000  0.84666000  0.42527000  1.0 -0.0893281573
C  C60  1  0.70910000  0.84666000  0.57473000  1.0 -0.0893281573
C  C61  1  0.79090000  0.07473000  0.65334000  1.0 -0.0893281573
C  C62  1  0.20910000  0.92527000  0.65334000  1.0 -0.0893281573
C  C63  1  0.79090000  0.92527000  0.34666000  1.0 -0.095274559
C  C64  1  0.20910000  0.07473000  0.34666000  1.0 -0.095274559
C  C65  1  0.07473000  0.65334000  0.79090000  1.0 -0.0893281573
C  C66  1  0.92527000  0.65334000  0.20910000  1.0 -0.0893281573
C  C67  1  0.92527000  0.34666000  0.79090000  1.0 -0.0893281573
C  C68  1  0.07473000  0.34666000  0.20910000  1.0 -0.095274559
C  C69  1  0.65334000  0.79090000  0.07473000  1.0 -0.0893281573
C  C70  1  0.65334000  0.20910000  0.92527000  1.0 -0.0893281573
C  C71  1  0.34666000  0.79090000  0.92527000  1.0 -0.0893281573
C  C72  1  0.34666000  0.20910000  0.07473000  1.0 -0.095274559
C  C73  1  0.59924000  0.29046000  0.19630000  1.0 -0.1903553643
C  C74  1  0.40076000  0.70954000  0.19630000  1.0 -0.1903553643
C  C75  1  0.40076000  0.29046000  0.80370000  1.0 -0.1903553643
C  C76  1  0.59924000  0.70954000  0.80370000  1.0 -0.1903553643
C  C77  1  0.19630000  0.59924000  0.29046000  1.0 -0.1903553643
C  C78  1  0.19630000  0.40076000  0.70954000  1.0 -0.1903553643
C  C79  1  0.80370000  0.40076000  0.29046000  1.0 -0.1903553643
C  C80  1  0.80370000  0.59924000  0.70954000  1.0 -0.1903553643
C  C81  1  0.29046000  0.19630000  0.59924000  1.0 -0.1903553643
C  C82  1  0.70954000  0.19630000  0.40076000  1.0 -0.1903553643
C  C83  1  0.29046000  0.80370000  0.40076000  1.0 -0.1903553643
C  C84  1  0.70954000  0.80370000  0.59924000  1.0 -0.1903553643
C  C85  1  0.79046000  0.09924000  0.69630000  1.0 -0.1903553643
C  C86  1  0.20954000  0.90076000  0.69630000  1.0 -0.1903553643
C  C87  1  0.79046000  0.90076000  0.30370000  1.0 -0.1903553643
C  C88  1  0.20954000  0.09924000  0.30370000  1.0 -0.1903553643
C  C89  1  0.09924000  0.69630000  0.79046000  1.0 -0.1903553643
C  C90  1  0.90076000  0.69630000  0.20954000  1.0 -0.1903553643
C  C91  1  0.90076000  0.30370000  0.79046000  1.0 -0.1903553643
C  C92  1  0.09924000  0.30370000  0.20954000  1.0 -0.1903553643
C  C93  1  0.69630000  0.79046000  0.09924000  1.0 -0.1903553643
C  C94  1  0.69630000  0.20954000  0.90076000  1.0 -0.1903553643
C  C95  1  0.30370000  0.79046000  0.90076000  1.0 -0.1903553643
C  C96  1  0.30370000  0.20954000  0.09924000  1.0 -0.1903553643
C  C97  1  0.60840000  0.24754000  0.21911000  1.0 0.2322734507
C  C98  1  0.39160000  0.75246000  0.21911000  1.0 0.2322734507
C  C99  1  0.39160000  0.24754000  0.78089000  1.0 0.2322734507
C  C100  1  0.60840000  0.75246000  0.78089000  1.0 0.2322734507
C  C101  1  0.21911000  0.60840000  0.24754000  1.0 0.2322734507
C  C102  1  0.21911000  0.39160000  0.75246000  1.0 0.2322734507
C  C103  1  0.78089000  0.39160000  0.24754000  1.0 0.2322734507
C  C104  1  0.78089000  0.60840000  0.75246000  1.0 0.2322734507
C  C105  1  0.24754000  0.21911000  0.60840000  1.0 0.2322734507
C  C106  1  0.75246000  0.21911000  0.39160000  1.0 0.2322734507
C  C107  1  0.24754000  0.78089000  0.39160000  1.0 0.2322734507
C  C108  1  0.75246000  0.78089000  0.60840000  1.0 0.2322734507
C  C109  1  0.74754000  0.10840000  0.71911000  1.0 0.2322734507
C  C110  1  0.25246000  0.89160000  0.71911000  1.0 0.2322734507
C  C111  1  0.74754000  0.89160000  0.28089000  1.0 0.2322734507
C  C112  1  0.25246000  0.10840000  0.28089000  1.0 0.2322734507
C  C113  1  0.10840000  0.71911000  0.74754000  1.0 0.2322734507
C  C114  1  0.89160000  0.71911000  0.25246000  1.0 0.2322734507
C  C115  1  0.89160000  0.28089000  0.74754000  1.0 0.2322734507
C  C116  1  0.10840000  0.28089000  0.25246000  1.0 0.2322734507
C  C117  1  0.71911000  0.74754000  0.10840000  1.0 0.2322734507
C  C118  1  0.71911000  0.25246000  0.89160000  1.0 0.2322734507
C  C119  1  0.28089000  0.74754000  0.89160000  1.0 0.2322734507
C  C120  1  0.28089000  0.25246000  0.10840000  1.0 0.2322734507
C  C121  1  0.59304000  0.20506000  0.19897000  1.0 -0.2118909621
C  C122  1  0.40696000  0.79494000  0.19897000  1.0 -0.2118909621
C  C123  1  0.40696000  0.20506000  0.80103000  1.0 -0.2118909621
C  C124  1  0.59304000  0.79494000  0.80103000  1.0 -0.2118909621
C  C125  1  0.19897000  0.59304000  0.20506000  1.0 -0.2118909621
C  C126  1  0.19897000  0.40696000  0.79494000  1.0 -0.2118909621
C  C127  1  0.80103000  0.40696000  0.20506000  1.0 -0.2118909621
C  C128  1  0.80103000  0.59304000  0.79494000  1.0 -0.2118909621
C  C129  1  0.20506000  0.19897000  0.59304000  1.0 -0.2118909621
C  C130  1  0.79494000  0.19897000  0.40696000  1.0 -0.2118909621
C  C131  1  0.20506000  0.80103000  0.40696000  1.0 -0.2118909621
C  C132  1  0.79494000  0.80103000  0.59304000  1.0 -0.2118909621
C  C133  1  0.70506000  0.09304000  0.69897000  1.0 -0.2118909621
C  C134  1  0.29494000  0.90696000  0.69897000  1.0 -0.2118909621
C  C135  1  0.70506000  0.90696000  0.30103000  1.0 -0.2118909621
C  C136  1  0.29494000  0.09304000  0.30103000  1.0 -0.2118909621
C  C137  1  0.09304000  0.69897000  0.70506000  1.0 -0.2118909621
C  C138  1  0.90696000  0.69897000  0.29494000  1.0 -0.2118909621
C  C139  1  0.90696000  0.30103000  0.70506000  1.0 -0.2118909621
C  C140  1  0.09304000  0.30103000  0.29494000  1.0 -0.2118909621
C  C141  1  0.69897000  0.70506000  0.09304000  1.0 -0.2118909621
C  C142  1  0.69897000  0.29494000  0.90696000  1.0 -0.2118909621
C  C143  1  0.30103000  0.70506000  0.90696000  1.0 -0.2118909621
C  C144  1  0.30103000  0.29494000  0.09304000  1.0 -0.2118909621
C  C145  1  0.56854000  0.20550000  0.15601000  1.0 -0.0893281573
C  C146  1  0.43146000  0.79450000  0.15601000  1.0 -0.0893281573
C  C147  1  0.43146000  0.20550000  0.84399000  1.0 -0.0893281573
C  C148  1  0.56854000  0.79450000  0.84399000  1.0 -0.0893281573
C  C149  1  0.15601000  0.56854000  0.20550000  1.0 -0.0893281573
C  C150  1  0.15601000  0.43146000  0.79450000  1.0 -0.0893281573
C  C151  1  0.84399000  0.43146000  0.20550000  1.0 -0.0893281573
C  C152  1  0.84399000  0.56854000  0.79450000  1.0 -0.0893281573
C  C153  1  0.20550000  0.15601000  0.56854000  1.0 -0.0893281573
C  C154  1  0.79450000  0.15601000  0.43146000  1.0 -0.0893281573
C  C155  1  0.20550000  0.84399000  0.43146000  1.0 -0.0893281573
C  C156  1  0.79450000  0.84399000  0.56854000  1.0 -0.0893281573
C  C157  1  0.70550000  0.06854000  0.65601000  1.0 -0.0893281573
C  C158  1  0.29450000  0.93146000  0.65601000  1.0 -0.0893281573
C  C159  1  0.70550000  0.93146000  0.34399000  1.0 -0.0893281573
C  C160  1  0.29450000  0.06854000  0.34399000  1.0 -0.0893281573
C  C161  1  0.06854000  0.65601000  0.70550000  1.0 -0.0893281573
C  C162  1  0.93146000  0.65601000  0.29450000  1.0 -0.0893281573
C  C163  1  0.93146000  0.34399000  0.70550000  1.0 -0.0893281573
C  C164  1  0.06854000  0.34399000  0.29450000  1.0 -0.0893281573
C  C165  1  0.65601000  0.70550000  0.06854000  1.0 -0.0893281573
C  C166  1  0.65601000  0.29450000  0.93146000  1.0 -0.0893281573
C  C167  1  0.34399000  0.70550000  0.93146000  1.0 -0.0893281573
C  C168  1  0.34399000  0.29450000  0.06854000  1.0 -0.0893281573
C  C169  1  0.66955000  0.26850000  0.27650000  1.0 0.5555513289
C  C170  1  0.33045000  0.73150000  0.27650000  1.0 0.5513853517
C  C171  1  0.33045000  0.26850000  0.72350000  1.0 0.5555513289
C  C172  1  0.66955000  0.73150000  0.72350000  1.0 0.5513853517
C  C173  1  0.27650000  0.66955000  0.26850000  1.0 0.5513853517
C  C174  1  0.27650000  0.33045000  0.73150000  1.0 0.5513853517
C  C175  1  0.72350000  0.33045000  0.26850000  1.0 0.5555513289
C  C176  1  0.72350000  0.66955000  0.73150000  1.0 0.5513853517
C  C177  1  0.26850000  0.27650000  0.66955000  1.0 0.5513853517
C  C178  1  0.73150000  0.27650000  0.33045000  1.0 0.5513853517
C  C179  1  0.26850000  0.72350000  0.33045000  1.0 0.5555513289
C  C180  1  0.73150000  0.72350000  0.66955000  1.0 0.5513853517
C  C181  1  0.76850000  0.16955000  0.77650000  1.0 0.5513853517
C  C182  1  0.23150000  0.83045000  0.77650000  1.0 0.5513853517
C  C183  1  0.76850000  0.83045000  0.22350000  1.0 0.5513853517
C  C184  1  0.23150000  0.16955000  0.22350000  1.0 0.5513853517
C  C185  1  0.16955000  0.77650000  0.76850000  1.0 0.5513853517
C  C186  1  0.83045000  0.77650000  0.23150000  1.0 0.5513853517
C  C187  1  0.83045000  0.22350000  0.76850000  1.0 0.5513853517
C  C188  1  0.16955000  0.22350000  0.23150000  1.0 0.5513853517
C  C189  1  0.77650000  0.76850000  0.16955000  1.0 0.5513853517
C  C190  1  0.77650000  0.23150000  0.83045000  1.0 0.5513853517
C  C191  1  0.22350000  0.76850000  0.83045000  1.0 0.5513853517
C  C192  1  0.22350000  0.23150000  0.16955000  1.0 0.5513853517
C  C193  1  0.50000000  0.02643000  0.00000000  1.0 -0.0290776834
C  C194  1  0.50000000  0.97357000  0.00000000  1.0 -0.0290776834
C  C195  1  0.00000000  0.50000000  0.02643000  1.0 -0.0290776834
C  C196  1  0.00000000  0.50000000  0.97357000  1.0 -0.0290776834
C  C197  1  0.02643000  0.00000000  0.50000000  1.0 -0.0290776834
C  C198  1  0.97357000  0.00000000  0.50000000  1.0 -0.0290776834
C  C199  1  0.52643000  0.00000000  0.50000000  1.0 -0.0290776834
C  C200  1  0.47357000  0.00000000  0.50000000  1.0 -0.0290776834
C  C201  1  0.00000000  0.50000000  0.52643000  1.0 -0.0290776834
C  C202  1  0.00000000  0.50000000  0.47357000  1.0 -0.0290776834
C  C203  1  0.50000000  0.52643000  0.00000000  1.0 -0.0290776834
C  C204  1  0.50000000  0.47357000  0.00000000  1.0 -0.0290776834
C  C205  1  0.53050000  0.10010000  0.97280000  0.37 -0.0290776834
C  C206  1  0.46950000  0.89990000  0.97280000  0.37 -0.0290776834
C  C207  1  0.46950000  0.10010000  0.02720000  0.37 -0.0290776834
C  C208  1  0.53050000  0.89990000  0.02720000  0.37 -0.0290776834
C  C209  1  0.97280000  0.53050000  0.10010000  0.37 -0.0290776834
C  C210  1  0.97280000  0.46950000  0.89990000  0.37 -0.0290776834
C  C211  1  0.02720000  0.46950000  0.10010000  0.37 -0.0290776834
C  C212  1  0.02720000  0.53050000  0.89990000  0.37 -0.0290776834
C  C213  1  0.10010000  0.97280000  0.53050000  0.37 -0.0290776834
C  C214  1  0.89990000  0.97280000  0.46950000  0.37 -0.0290776834
C  C215  1  0.10010000  0.02720000  0.46950000  0.37 -0.0290776834
C  C216  1  0.89990000  0.02720000  0.53050000  0.37 -0.0290776834
C  C217  1  0.60010000  0.03050000  0.47280000  0.37 -0.0290776834
C  C218  1  0.39990000  0.96950000  0.47280000  0.37 -0.0290776834
C  C219  1  0.60010000  0.96950000  0.52720000  0.37 -0.0290776834
C  C220  1  0.39990000  0.03050000  0.52720000  0.37 -0.0290776834
C  C221  1  0.03050000  0.47280000  0.60010000  0.37 -0.0290776834
C  C222  1  0.96950000  0.47280000  0.39990000  0.37 -0.0290776834
C  C223  1  0.96950000  0.52720000  0.60010000  0.37 -0.0290776834
C  C224  1  0.03050000  0.52720000  0.39990000  0.37 -0.0290776834
C  C225  1  0.47280000  0.60010000  0.03050000  0.37 -0.0290776834
C  C226  1  0.47280000  0.39990000  0.96950000  0.37 -0.0290776834
C  C227  1  0.52720000  0.60010000  0.96950000  0.37 -0.0290776834
C  C228  1  0.52720000  0.39990000  0.03050000  0.37 -0.0290776834
C  C229  1  0.52860000  0.05220000  0.97010000  0.37 -0.0726903308
C  C230  1  0.47140000  0.94780000  0.97010000  0.37 -0.0726903308
C  C231  1  0.47140000  0.05220000  0.02990000  0.37 -0.0726903308
C  C232  1  0.52860000  0.94780000  0.02990000  0.37 -0.0726903308
C  C233  1  0.97010000  0.52860000  0.05220000  0.37 -0.0726903308
C  C234  1  0.97010000  0.47140000  0.94780000  0.37 -0.0726903308
C  C235  1  0.02990000  0.47140000  0.05220000  0.37 -0.0726903308
C  C236  1  0.02990000  0.52860000  0.94780000  0.37 -0.0726903308
C  C237  1  0.05220000  0.97010000  0.52860000  0.37 -0.0726903308
C  C238  1  0.94780000  0.97010000  0.47140000  0.37 -0.0726903308
C  C239  1  0.05220000  0.02990000  0.47140000  0.37 -0.0726903308
C  C240  1  0.94780000  0.02990000  0.52860000  0.37 -0.0726903308
C  C241  1  0.55220000  0.02860000  0.47010000  0.37 -0.0726903308
C  C242  1  0.44780000  0.97140000  0.47010000  0.37 -0.0726903308
C  C243  1  0.55220000  0.97140000  0.52990000  0.37 -0.0726903308
C  C244  1  0.44780000  0.02860000  0.52990000  0.37 -0.0726903308
C  C245  1  0.02860000  0.47010000  0.55220000  0.37 -0.0726903308
C  C246  1  0.97140000  0.47010000  0.44780000  0.37 -0.0726903308
C  C247  1  0.97140000  0.52990000  0.55220000  0.37 -0.0726903308
C  C248  1  0.02860000  0.52990000  0.44780000  0.37 -0.0726903308
C  C249  1  0.47010000  0.55220000  0.02860000  0.37 -0.0726903308
C  C250  1  0.47010000  0.44780000  0.97140000  0.37 -0.0726903308
C  C251  1  0.52990000  0.55220000  0.97140000  0.37 -0.0726903308
C  C252  1  0.52990000  0.44780000  0.02860000  0.37 -0.0726903308
C  C253  1  0.48990000  0.09970000  0.96103000  0.63 -0.0290776834
C  C254  1  0.51010000  0.90030000  0.96103000  0.63 -0.0290776834
C  C255  1  0.51010000  0.09970000  0.03897000  0.63 -0.0290776834
C  C256  1  0.48990000  0.90030000  0.03897000  0.63 -0.0290776834
C  C257  1  0.96103000  0.48990000  0.09970000  0.63 -0.0290776834
C  C258  1  0.96103000  0.51010000  0.90030000  0.63 -0.0290776834
C  C259  1  0.03897000  0.51010000  0.09970000  0.63 -0.0290776834
C  C260  1  0.03897000  0.48990000  0.90030000  0.63 -0.0290776834
C  C261  1  0.09970000  0.96103000  0.48990000  0.63 -0.0290776834
C  C262  1  0.90030000  0.96103000  0.51010000  0.63 -0.0290776834
C  C263  1  0.09970000  0.03897000  0.51010000  0.63 -0.0290776834
C  C264  1  0.90030000  0.03897000  0.48990000  0.63 -0.0290776834
C  C265  1  0.59970000  0.98990000  0.46103000  0.63 -0.0290776834
C  C266  1  0.40030000  0.01010000  0.46103000  0.63 -0.0290776834
C  C267  1  0.59970000  0.01010000  0.53897000  0.63 -0.0290776834
C  C268  1  0.40030000  0.98990000  0.53897000  0.63 -0.0290776834
C  C269  1  0.98990000  0.46103000  0.59970000  0.63 -0.0290776834
C  C270  1  0.01010000  0.46103000  0.40030000  0.63 -0.0290776834
C  C271  1  0.01010000  0.53897000  0.59970000  0.63 -0.0290776834
C  C272  1  0.98990000  0.53897000  0.40030000  0.63 -0.0290776834
C  C273  1  0.46103000  0.59970000  0.98990000  0.63 -0.0290776834
C  C274  1  0.46103000  0.40030000  0.01010000  0.63 -0.0290776834
C  C275  1  0.53897000  0.59970000  0.01010000  0.63 -0.0290776834
C  C276  1  0.53897000  0.40030000  0.98990000  0.63 -0.0290776834
C  C277  1  0.49110000  0.05224000  0.96034000  0.63 -0.0893281573
C  C278  1  0.50890000  0.94776000  0.96034000  0.63 -0.0893281573
C  C279  1  0.50890000  0.05224000  0.03966000  0.63 -0.0846204895
C  C280  1  0.49110000  0.94776000  0.03966000  0.63 -0.0893281573
C  C281  1  0.96034000  0.49110000  0.05224000  0.63 -0.0893281573
C  C282  1  0.96034000  0.50890000  0.94776000  0.63 -0.0893281573
C  C283  1  0.03966000  0.50890000  0.05224000  0.63 -0.0846204895
C  C284  1  0.03966000  0.49110000  0.94776000  0.63 -0.0893281573
C  C285  1  0.05224000  0.96034000  0.49110000  0.63 -0.0893281573
C  C286  1  0.94776000  0.96034000  0.50890000  0.63 -0.0893281573
C  C287  1  0.05224000  0.03966000  0.50890000  0.63 -0.0846204895
C  C288  1  0.94776000  0.03966000  0.49110000  0.63 -0.0893281573
C  C289  1  0.55224000  0.99110000  0.46034000  0.63 -0.0846204895
C  C290  1  0.44776000  0.00890000  0.46034000  0.63 -0.0893281573
C  C291  1  0.55224000  0.00890000  0.53966000  0.63 -0.0893281573
C  C292  1  0.44776000  0.99110000  0.53966000  0.63 -0.0846204895
C  C293  1  0.99110000  0.46034000  0.55224000  0.63 -0.0846204895
C  C294  1  0.00890000  0.46034000  0.44776000  0.63 -0.0893281573
C  C295  1  0.00890000  0.53966000  0.55224000  0.63 -0.0893281573
C  C296  1  0.99110000  0.53966000  0.44776000  0.63 -0.0846204895
C  C297  1  0.46034000  0.55224000  0.99110000  0.63 -0.0846204895
C  C298  1  0.46034000  0.44776000  0.00890000  0.63 -0.0846204895
C  C299  1  0.53966000  0.55224000  0.00890000  0.63 -0.0846204895
C  C300  1  0.53966000  0.44776000  0.99110000  0.63 -0.0846204895
N  N1  1  0.50000000  0.12541000  0.00000000  1.0 -0.158155635
N  N2  1  0.50000000  0.87459000  0.00000000  1.0 -0.158155635
N  N3  1  0.00000000  0.50000000  0.12541000  1.0 -0.158155635
N  N4  1  0.00000000  0.50000000  0.87459000  1.0 -0.158155635
N  N5  1  0.12541000  0.00000000  0.50000000  1.0 -0.158155635
N  N6  1  0.87459000  0.00000000  0.50000000  1.0 -0.158155635
N  N7  1  0.62541000  0.00000000  0.50000000  1.0 -0.158155635
N  N8  1  0.37459000  0.00000000  0.50000000  1.0 -0.158155635
N  N9  1  0.00000000  0.50000000  0.62541000  1.0 -0.158155635
N  N10  1  0.00000000  0.50000000  0.37459000  1.0 -0.158155635
N  N11  1  0.50000000  0.62541000  0.00000000  1.0 -0.158155635
N  N12  1  0.50000000  0.37459000  0.00000000  1.0 -0.158155635
N  N13  1  0.63200000  0.24484000  0.26257000  1.0 -0.3527949938
N  N14  1  0.36800000  0.75516000  0.26257000  1.0 -0.3527949938
N  N15  1  0.36800000  0.24484000  0.73743000  1.0 -0.3527949938
N  N16  1  0.63200000  0.75516000  0.73743000  1.0 -0.3527949938
N  N17  1  0.26257000  0.63200000  0.24484000  1.0 -0.3527949938
N  N18  1  0.26257000  0.36800000  0.75516000  1.0 -0.3527949938
N  N19  1  0.73743000  0.36800000  0.24484000  1.0 -0.3527949938
N  N20  1  0.73743000  0.63200000  0.75516000  1.0 -0.3527949938
N  N21  1  0.24484000  0.26257000  0.63200000  1.0 -0.3527949938
N  N22  1  0.75516000  0.26257000  0.36800000  1.0 -0.3527949938
N  N23  1  0.24484000  0.73743000  0.36800000  1.0 -0.3527949938
N  N24  1  0.75516000  0.73743000  0.63200000  1.0 -0.3527949938
N  N25  1  0.74484000  0.13200000  0.76257000  1.0 -0.3527949938
N  N26  1  0.25516000  0.86800000  0.76257000  1.0 -0.3527949938
N  N27  1  0.74484000  0.86800000  0.23743000  1.0 -0.3527949938
N  N28  1  0.25516000  0.13200000  0.23743000  1.0 -0.3527949938
N  N29  1  0.13200000  0.76257000  0.74484000  1.0 -0.3527949938
N  N30  1  0.86800000  0.76257000  0.25516000  1.0 -0.3527949938
N  N31  1  0.86800000  0.23743000  0.74484000  1.0 -0.3527949938
N  N32  1  0.13200000  0.23743000  0.25516000  1.0 -0.3527949938
N  N33  1  0.76257000  0.74484000  0.13200000  1.0 -0.3527949938
N  N34  1  0.76257000  0.25516000  0.86800000  1.0 -0.3527949938
N  N35  1  0.23743000  0.74484000  0.86800000  1.0 -0.3527949938
N  N36  1  0.23743000  0.25516000  0.13200000  1.0 -0.3527949938
N  N37  1  0.68510000  0.30700000  0.25345000  1.0 -0.5596109046
N  N38  1  0.31490000  0.69300000  0.25345000  1.0 -0.5596109046
N  N39  1  0.31490000  0.30700000  0.74655000  1.0 -0.5596109046
N  N40  1  0.68510000  0.69300000  0.74655000  1.0 -0.5596109046
N  N41  1  0.25345000  0.68510000  0.30700000  1.0 -0.5596109046
N  N42  1  0.25345000  0.31490000  0.69300000  1.0 -0.5596109046
N  N43  1  0.74655000  0.31490000  0.30700000  1.0 -0.5596109046
N  N44  1  0.74655000  0.68510000  0.69300000  1.0 -0.5596109046
N  N45  1  0.30700000  0.25345000  0.68510000  1.0 -0.5596109046
N  N46  1  0.69300000  0.25345000  0.31490000  1.0 -0.5596109046
N  N47  1  0.30700000  0.74655000  0.31490000  1.0 -0.5596109046
N  N48  1  0.69300000  0.74655000  0.68510000  1.0 -0.5596109046
N  N49  1  0.80700000  0.18510000  0.75345000  1.0 -0.5596109046
N  N50  1  0.19300000  0.81490000  0.75345000  1.0 -0.5596109046
N  N51  1  0.80700000  0.81490000  0.24655000  1.0 -0.5596109046
N  N52  1  0.19300000  0.18510000  0.24655000  1.0 -0.5596109046
N  N53  1  0.18510000  0.75345000  0.80700000  1.0 -0.5596109046
N  N54  1  0.81490000  0.75345000  0.19300000  1.0 -0.5596109046
N  N55  1  0.81490000  0.24655000  0.80700000  1.0 -0.5596109046
N  N56  1  0.18510000  0.24655000  0.19300000  1.0 -0.5596109046
N  N57  1  0.75345000  0.80700000  0.18510000  1.0 -0.5596109046
N  N58  1  0.75345000  0.19300000  0.81490000  1.0 -0.5596109046
N  N59  1  0.24655000  0.80700000  0.81490000  1.0 -0.5596109046
N  N60  1  0.24655000  0.19300000  0.18510000  1.0 -0.5596109046
O  O1  1  0.52723000  0.20800000  0.06849000  1.0 -0.5293875645
O  O2  1  0.47277000  0.79200000  0.06849000  1.0 -0.5293875645
O  O3  1  0.47277000  0.20800000  0.93151000  1.0 -0.5293875645
O  O4  1  0.52723000  0.79200000  0.93151000  1.0 -0.5293875645
O  O5  1  0.06849000  0.52723000  0.20800000  1.0 -0.5293875645
O  O6  1  0.06849000  0.47277000  0.79200000  1.0 -0.5293875645
O  O7  1  0.93151000  0.47277000  0.20800000  1.0 -0.5293875645
O  O8  1  0.93151000  0.52723000  0.79200000  1.0 -0.5293875645
O  O9  1  0.20800000  0.06849000  0.52723000  1.0 -0.5293875645
O  O10  1  0.79200000  0.06849000  0.47277000  1.0 -0.5293875645
O  O11  1  0.20800000  0.93151000  0.47277000  1.0 -0.5293875645
O  O12  1  0.79200000  0.93151000  0.52723000  1.0 -0.5293875645
O  O13  1  0.70800000  0.02723000  0.56849000  1.0 -0.5293875645
O  O14  1  0.29200000  0.97277000  0.56849000  1.0 -0.5293875645
O  O15  1  0.70800000  0.97277000  0.43151000  1.0 -0.5293875645
O  O16  1  0.29200000  0.02723000  0.43151000  1.0 -0.5293875645
O  O17  1  0.02723000  0.56849000  0.70800000  1.0 -0.5293875645
O  O18  1  0.97277000  0.56849000  0.29200000  1.0 -0.5293875645
O  O19  1  0.97277000  0.43151000  0.70800000  1.0 -0.5293875645
O  O20  1  0.02723000  0.43151000  0.29200000  1.0 -0.5293875645
O  O21  1  0.56849000  0.70800000  0.02723000  1.0 -0.5293875645
O  O22  1  0.56849000  0.29200000  0.97277000  1.0 -0.5293875645
O  O23  1  0.43151000  0.70800000  0.97277000  1.0 -0.5293875645
O  O24  1  0.43151000  0.29200000  0.02723000  1.0 -0.5293875645
O  O25  1  0.52764000  0.28538000  0.06535000  1.0 -0.5352056834
O  O26  1  0.47236000  0.71462000  0.06535000  1.0 -0.5352056834
O  O27  1  0.47236000  0.28538000  0.93465000  1.0 -0.5293875645
O  O28  1  0.52764000  0.71462000  0.93465000  1.0 -0.5293875645
O  O29  1  0.06535000  0.52764000  0.28538000  1.0 -0.5352056834
O  O30  1  0.06535000  0.47236000  0.71462000  1.0 -0.5352056834
O  O31  1  0.93465000  0.47236000  0.28538000  1.0 -0.5352056834
O  O32  1  0.93465000  0.52764000  0.71462000  1.0 -0.5293875645
O  O33  1  0.28538000  0.06535000  0.52764000  1.0 -0.5352056834
O  O34  1  0.71462000  0.06535000  0.47236000  1.0 -0.5352056834
O  O35  1  0.28538000  0.93465000  0.47236000  1.0 -0.5352056834
O  O36  1  0.71462000  0.93465000  0.52764000  1.0 -0.5352056834
O  O37  1  0.78538000  0.02764000  0.56535000  1.0 -0.5293875645
O  O38  1  0.21462000  0.97236000  0.56535000  1.0 -0.5352056834
O  O39  1  0.78538000  0.97236000  0.43465000  1.0 -0.5352056834
O  O40  1  0.21462000  0.02764000  0.43465000  1.0 -0.5293875645
O  O41  1  0.02764000  0.56535000  0.78538000  1.0 -0.5352056834
O  O42  1  0.97236000  0.56535000  0.21462000  1.0 -0.5352056834
O  O43  1  0.97236000  0.43465000  0.78538000  1.0 -0.5352056834
O  O44  1  0.02764000  0.43465000  0.21462000  1.0 -0.5293875645
O  O45  1  0.56535000  0.78538000  0.02764000  1.0 -0.5352056834
O  O46  1  0.56535000  0.21462000  0.97236000  1.0 -0.5352056834
O  O47  1  0.43465000  0.78538000  0.97236000  1.0 -0.5352056834
O  O48  1  0.43465000  0.21462000  0.02764000  1.0 -0.5293875645
