# DDEC6 charges by PACMAN v1.1 (https://github.com/mtap-research/PACMAN-charge/)
data_ja7b02272_si_004_ASR_pacman
_symmetry_space_group_name_H-M   'P 1'
_cell_length_a   35.76300000
_cell_length_b   35.76300000
_cell_length_c   35.76300000
_cell_angle_alpha   90.00000000
_cell_angle_beta   90.00000000
_cell_angle_gamma   90.00000000
_symmetry_Int_Tables_number   1
_chemical_formula_structural   Zn2H12C20N9(ClO)2
_chemical_formula_sum   'Zn96 H576 C960 N432 Cl96 O96'
_cell_volume   45740.59693995
_cell_formula_units_Z   48
loop_
 _symmetry_equiv_pos_site_id
 _symmetry_equiv_pos_as_xyz
  1  'x, y, z'
loop_
 _atom_site_type_symbol
 _atom_site_label
 _atom_site_symmetry_multiplicity
 _atom_site_fract_x
 _atom_site_fract_y
 _atom_site_fract_z
 _atom_site_occupancy
 _atom_site_charge
Zn  Zn1  1  0.70095000  0.41696000  0.18027000  1.0 0.6574246591
Zn  Zn2  1  0.20095000  0.91696000  0.68027000  1.0 0.6574246591
Zn  Zn3  1  0.29905000  0.58304000  0.18027000  1.0 0.6574246591
Zn  Zn4  1  0.79905000  0.08304000  0.68027000  1.0 0.6574246591
Zn  Zn5  1  0.29905000  0.41696000  0.81973000  1.0 0.6574246591
Zn  Zn6  1  0.79905000  0.91696000  0.31973000  1.0 0.6574246591
Zn  Zn7  1  0.70095000  0.58304000  0.81973000  1.0 0.6574246591
Zn  Zn8  1  0.20095000  0.08304000  0.31973000  1.0 0.6574246591
Zn  Zn9  1  0.18027000  0.70095000  0.41696000  1.0 0.6574246591
Zn  Zn10  1  0.68027000  0.20095000  0.91696000  1.0 0.6574246591
Zn  Zn11  1  0.18027000  0.29905000  0.58304000  1.0 0.6574246591
Zn  Zn12  1  0.68027000  0.79905000  0.08304000  1.0 0.6574246591
Zn  Zn13  1  0.81973000  0.29905000  0.41696000  1.0 0.6574246591
Zn  Zn14  1  0.31973000  0.79905000  0.91696000  1.0 0.6574246591
Zn  Zn15  1  0.81973000  0.70095000  0.58304000  1.0 0.6574246591
Zn  Zn16  1  0.31973000  0.20095000  0.08304000  1.0 0.6574246591
Zn  Zn17  1  0.41696000  0.18027000  0.70095000  1.0 0.6574246591
Zn  Zn18  1  0.91696000  0.68027000  0.20095000  1.0 0.6574246591
Zn  Zn19  1  0.58304000  0.18027000  0.29905000  1.0 0.6574246591
Zn  Zn20  1  0.08304000  0.68027000  0.79905000  1.0 0.6574246591
Zn  Zn21  1  0.41696000  0.81973000  0.29905000  1.0 0.6574246591
Zn  Zn22  1  0.91696000  0.31973000  0.79905000  1.0 0.6574246591
Zn  Zn23  1  0.58304000  0.81973000  0.70095000  1.0 0.6574246591
Zn  Zn24  1  0.08304000  0.31973000  0.20095000  1.0 0.6574246591
Zn  Zn25  1  0.41696000  0.70095000  0.81973000  1.0 0.6574246591
Zn  Zn26  1  0.91696000  0.20095000  0.31973000  1.0 0.6574246591
Zn  Zn27  1  0.58304000  0.29905000  0.81973000  1.0 0.6574246591
Zn  Zn28  1  0.08304000  0.79905000  0.31973000  1.0 0.6574246591
Zn  Zn29  1  0.41696000  0.29905000  0.18027000  1.0 0.6574246591
Zn  Zn30  1  0.91696000  0.79905000  0.68027000  1.0 0.6574246591
Zn  Zn31  1  0.58304000  0.70095000  0.18027000  1.0 0.6574246591
Zn  Zn32  1  0.08304000  0.20095000  0.68027000  1.0 0.6574246591
Zn  Zn33  1  0.70095000  0.18027000  0.58304000  1.0 0.6574246591
Zn  Zn34  1  0.20095000  0.68027000  0.08304000  1.0 0.6574246591
Zn  Zn35  1  0.29905000  0.18027000  0.41696000  1.0 0.6574246591
Zn  Zn36  1  0.79905000  0.68027000  0.91696000  1.0 0.6574246591
Zn  Zn37  1  0.29905000  0.81973000  0.58304000  1.0 0.6574246591
Zn  Zn38  1  0.79905000  0.31973000  0.08304000  1.0 0.6574246591
Zn  Zn39  1  0.70095000  0.81973000  0.41696000  1.0 0.6574246591
Zn  Zn40  1  0.20095000  0.31973000  0.91696000  1.0 0.6574246591
Zn  Zn41  1  0.18027000  0.41696000  0.29905000  1.0 0.6574246591
Zn  Zn42  1  0.68027000  0.91696000  0.79905000  1.0 0.6574246591
Zn  Zn43  1  0.18027000  0.58304000  0.70095000  1.0 0.6574246591
Zn  Zn44  1  0.68027000  0.08304000  0.20095000  1.0 0.6574246591
Zn  Zn45  1  0.81973000  0.41696000  0.70095000  1.0 0.6574246591
Zn  Zn46  1  0.31973000  0.91696000  0.20095000  1.0 0.6574246591
Zn  Zn47  1  0.81973000  0.58304000  0.29905000  1.0 0.6574246591
Zn  Zn48  1  0.31973000  0.08304000  0.79905000  1.0 0.6574246591
Zn  Zn49  1  0.29905000  0.58304000  0.81973000  1.0 0.6574246591
Zn  Zn50  1  0.79905000  0.08304000  0.31973000  1.0 0.6574246591
Zn  Zn51  1  0.70095000  0.41696000  0.81973000  1.0 0.6574246591
Zn  Zn52  1  0.20095000  0.91696000  0.31973000  1.0 0.6574246591
Zn  Zn53  1  0.70095000  0.58304000  0.18027000  1.0 0.6574246591
Zn  Zn54  1  0.20095000  0.08304000  0.68027000  1.0 0.6574246591
Zn  Zn55  1  0.29905000  0.41696000  0.18027000  1.0 0.6574246591
Zn  Zn56  1  0.79905000  0.91696000  0.68027000  1.0 0.6574246591
Zn  Zn57  1  0.81973000  0.29905000  0.58304000  1.0 0.6574246591
Zn  Zn58  1  0.31973000  0.79905000  0.08304000  1.0 0.6574246591
Zn  Zn59  1  0.81973000  0.70095000  0.41696000  1.0 0.6574246591
Zn  Zn60  1  0.31973000  0.20095000  0.91696000  1.0 0.6574246591
Zn  Zn61  1  0.18027000  0.70095000  0.58304000  1.0 0.6574246591
Zn  Zn62  1  0.68027000  0.20095000  0.08304000  1.0 0.6574246591
Zn  Zn63  1  0.18027000  0.29905000  0.41696000  1.0 0.6574246591
Zn  Zn64  1  0.68027000  0.79905000  0.91696000  1.0 0.6574246591
Zn  Zn65  1  0.58304000  0.81973000  0.29905000  1.0 0.6574246591
Zn  Zn66  1  0.08304000  0.31973000  0.79905000  1.0 0.6574246591
Zn  Zn67  1  0.41696000  0.81973000  0.70095000  1.0 0.6574246591
Zn  Zn68  1  0.91696000  0.31973000  0.20095000  1.0 0.6574246591
Zn  Zn69  1  0.58304000  0.18027000  0.70095000  1.0 0.6574246591
Zn  Zn70  1  0.08304000  0.68027000  0.20095000  1.0 0.6574246591
Zn  Zn71  1  0.41696000  0.18027000  0.29905000  1.0 0.6574246591
Zn  Zn72  1  0.91696000  0.68027000  0.79905000  1.0 0.6574246591
Zn  Zn73  1  0.58304000  0.29905000  0.18027000  1.0 0.6574246591
Zn  Zn74  1  0.08304000  0.79905000  0.68027000  1.0 0.6574246591
Zn  Zn75  1  0.41696000  0.70095000  0.18027000  1.0 0.6574246591
Zn  Zn76  1  0.91696000  0.20095000  0.68027000  1.0 0.6574246591
Zn  Zn77  1  0.58304000  0.70095000  0.81973000  1.0 0.6574246591
Zn  Zn78  1  0.08304000  0.20095000  0.31973000  1.0 0.6574246591
Zn  Zn79  1  0.41696000  0.29905000  0.81973000  1.0 0.6574246591
Zn  Zn80  1  0.91696000  0.79905000  0.31973000  1.0 0.6574246591
Zn  Zn81  1  0.29905000  0.81973000  0.41696000  1.0 0.6574246591
Zn  Zn82  1  0.79905000  0.31973000  0.91696000  1.0 0.6574246591
Zn  Zn83  1  0.70095000  0.81973000  0.58304000  1.0 0.6574246591
Zn  Zn84  1  0.20095000  0.31973000  0.08304000  1.0 0.6574246591
Zn  Zn85  1  0.70095000  0.18027000  0.41696000  1.0 0.6574246591
Zn  Zn86  1  0.20095000  0.68027000  0.91696000  1.0 0.6574246591
Zn  Zn87  1  0.29905000  0.18027000  0.58304000  1.0 0.6574246591
Zn  Zn88  1  0.79905000  0.68027000  0.08304000  1.0 0.6574246591
Zn  Zn89  1  0.81973000  0.58304000  0.70095000  1.0 0.6574246591
Zn  Zn90  1  0.31973000  0.08304000  0.20095000  1.0 0.6574246591
Zn  Zn91  1  0.81973000  0.41696000  0.29905000  1.0 0.6574246591
Zn  Zn92  1  0.31973000  0.91696000  0.79905000  1.0 0.6574246591
Zn  Zn93  1  0.18027000  0.58304000  0.29905000  1.0 0.6574246591
Zn  Zn94  1  0.68027000  0.08304000  0.79905000  1.0 0.6574246591
Zn  Zn95  1  0.18027000  0.41696000  0.70095000  1.0 0.6574246591
Zn  Zn96  1  0.68027000  0.91696000  0.20095000  1.0 0.6574246591
H  H1  1  0.73050000  0.44010000  0.09880000  1.0 0.1305414196
H  H2  1  0.64550000  0.43350000  0.10520000  1.0 0.1364244676
H  H3  1  0.23050000  0.94010000  0.59880000  1.0 0.1305414196
H  H4  1  0.14550000  0.93350000  0.60520000  1.0 0.1364244676
H  H5  1  0.26950000  0.55990000  0.09880000  1.0 0.1305414196
H  H6  1  0.35450000  0.56650000  0.10520000  1.0 0.1364244676
H  H7  1  0.76950000  0.05990000  0.59880000  1.0 0.1305414196
H  H8  1  0.85450000  0.06650000  0.60520000  1.0 0.1364244676
H  H9  1  0.26950000  0.44010000  0.90120000  1.0 0.1305414196
H  H10  1  0.35450000  0.43350000  0.89480000  1.0 0.1364244676
H  H11  1  0.76950000  0.94010000  0.40120000  1.0 0.1305414196
H  H12  1  0.85450000  0.93350000  0.39480000  1.0 0.1364244676
H  H13  1  0.73050000  0.55990000  0.90120000  1.0 0.1305414196
H  H14  1  0.64550000  0.56650000  0.89480000  1.0 0.1364244676
H  H15  1  0.23050000  0.05990000  0.40120000  1.0 0.1305414196
H  H16  1  0.14550000  0.06650000  0.39480000  1.0 0.1364244676
H  H17  1  0.09880000  0.73050000  0.44010000  1.0 0.1305414196
H  H18  1  0.10520000  0.64550000  0.43350000  1.0 0.1364244676
H  H19  1  0.59880000  0.23050000  0.94010000  1.0 0.1305414196
H  H20  1  0.60520000  0.14550000  0.93350000  1.0 0.1364244676
H  H21  1  0.09880000  0.26950000  0.55990000  1.0 0.1305414196
H  H22  1  0.10520000  0.35450000  0.56650000  1.0 0.1364244676
H  H23  1  0.59880000  0.76950000  0.05990000  1.0 0.1305414196
H  H24  1  0.60520000  0.85450000  0.06650000  1.0 0.1364244676
H  H25  1  0.90120000  0.26950000  0.44010000  1.0 0.1305414196
H  H26  1  0.89480000  0.35450000  0.43350000  1.0 0.1364244676
H  H27  1  0.40120000  0.76950000  0.94010000  1.0 0.1305414196
H  H28  1  0.39480000  0.85450000  0.93350000  1.0 0.1364244676
H  H29  1  0.90120000  0.73050000  0.55990000  1.0 0.1305414196
H  H30  1  0.89480000  0.64550000  0.56650000  1.0 0.1364244676
H  H31  1  0.40120000  0.23050000  0.05990000  1.0 0.1305414196
H  H32  1  0.39480000  0.14550000  0.06650000  1.0 0.1364244676
H  H33  1  0.44010000  0.09880000  0.73050000  1.0 0.1305414196
H  H34  1  0.43350000  0.10520000  0.64550000  1.0 0.1364244676
H  H35  1  0.94010000  0.59880000  0.23050000  1.0 0.1305414196
H  H36  1  0.93350000  0.60520000  0.14550000  1.0 0.1364244676
H  H37  1  0.55990000  0.09880000  0.26950000  1.0 0.1305414196
H  H38  1  0.56650000  0.10520000  0.35450000  1.0 0.1364244676
H  H39  1  0.05990000  0.59880000  0.76950000  1.0 0.1305414196
H  H40  1  0.06650000  0.60520000  0.85450000  1.0 0.1364244676
H  H41  1  0.44010000  0.90120000  0.26950000  1.0 0.1305414196
H  H42  1  0.43350000  0.89480000  0.35450000  1.0 0.1364244676
H  H43  1  0.94010000  0.40120000  0.76950000  1.0 0.1305414196
H  H44  1  0.93350000  0.39480000  0.85450000  1.0 0.1364244676
H  H45  1  0.55990000  0.90120000  0.73050000  1.0 0.1305414196
H  H46  1  0.56650000  0.89480000  0.64550000  1.0 0.1364244676
H  H47  1  0.05990000  0.40120000  0.23050000  1.0 0.1305414196
H  H48  1  0.06650000  0.39480000  0.14550000  1.0 0.1364244676
H  H49  1  0.44010000  0.73050000  0.90120000  1.0 0.1305414196
H  H50  1  0.43350000  0.64550000  0.89480000  1.0 0.1364244676
H  H51  1  0.94010000  0.23050000  0.40120000  1.0 0.1305414196
H  H52  1  0.93350000  0.14550000  0.39480000  1.0 0.1364244676
H  H53  1  0.55990000  0.26950000  0.90120000  1.0 0.1305414196
H  H54  1  0.56650000  0.35450000  0.89480000  1.0 0.1364244676
H  H55  1  0.05990000  0.76950000  0.40120000  1.0 0.1305414196
H  H56  1  0.06650000  0.85450000  0.39480000  1.0 0.1364244676
H  H57  1  0.44010000  0.26950000  0.09880000  1.0 0.1305414196
H  H58  1  0.43350000  0.35450000  0.10520000  1.0 0.1364244676
H  H59  1  0.94010000  0.76950000  0.59880000  1.0 0.1305414196
H  H60  1  0.93350000  0.85450000  0.60520000  1.0 0.1364244676
H  H61  1  0.55990000  0.73050000  0.09880000  1.0 0.1305414196
H  H62  1  0.56650000  0.64550000  0.10520000  1.0 0.1364244676
H  H63  1  0.05990000  0.23050000  0.59880000  1.0 0.1305414196
H  H64  1  0.06650000  0.14550000  0.60520000  1.0 0.1364244676
H  H65  1  0.73050000  0.09880000  0.55990000  1.0 0.1305414196
H  H66  1  0.64550000  0.10520000  0.56650000  1.0 0.1364244676
H  H67  1  0.23050000  0.59880000  0.05990000  1.0 0.1305414196
H  H68  1  0.14550000  0.60520000  0.06650000  1.0 0.1364244676
H  H69  1  0.26950000  0.09880000  0.44010000  1.0 0.1305414196
H  H70  1  0.35450000  0.10520000  0.43350000  1.0 0.1364244676
H  H71  1  0.76950000  0.59880000  0.94010000  1.0 0.1305414196
H  H72  1  0.85450000  0.60520000  0.93350000  1.0 0.1364244676
H  H73  1  0.26950000  0.90120000  0.55990000  1.0 0.1305414196
H  H74  1  0.35450000  0.89480000  0.56650000  1.0 0.1364244676
H  H75  1  0.76950000  0.40120000  0.05990000  1.0 0.1305414196
H  H76  1  0.85450000  0.39480000  0.06650000  1.0 0.1364244676
H  H77  1  0.73050000  0.90120000  0.44010000  1.0 0.1305414196
H  H78  1  0.64550000  0.89480000  0.43350000  1.0 0.1364244676
H  H79  1  0.23050000  0.40120000  0.94010000  1.0 0.1305414196
H  H80  1  0.14550000  0.39480000  0.93350000  1.0 0.1364244676
H  H81  1  0.09880000  0.44010000  0.26950000  1.0 0.1305414196
H  H82  1  0.10520000  0.43350000  0.35450000  1.0 0.1364244676
H  H83  1  0.59880000  0.94010000  0.76950000  1.0 0.1305414196
H  H84  1  0.60520000  0.93350000  0.85450000  1.0 0.1364244676
H  H85  1  0.09880000  0.55990000  0.73050000  1.0 0.1305414196
H  H86  1  0.10520000  0.56650000  0.64550000  1.0 0.1364244676
H  H87  1  0.59880000  0.05990000  0.23050000  1.0 0.1305414196
H  H88  1  0.60520000  0.06650000  0.14550000  1.0 0.1364244676
H  H89  1  0.90120000  0.44010000  0.73050000  1.0 0.1305414196
H  H90  1  0.89480000  0.43350000  0.64550000  1.0 0.1364244676
H  H91  1  0.40120000  0.94010000  0.23050000  1.0 0.1305414196
H  H92  1  0.39480000  0.93350000  0.14550000  1.0 0.1364244676
H  H93  1  0.90120000  0.55990000  0.26950000  1.0 0.1305414196
H  H94  1  0.89480000  0.56650000  0.35450000  1.0 0.1364244676
H  H95  1  0.40120000  0.05990000  0.76950000  1.0 0.1305414196
H  H96  1  0.39480000  0.06650000  0.85450000  1.0 0.1364244676
H  H97  1  0.26950000  0.55990000  0.90120000  1.0 0.1305414196
H  H98  1  0.35450000  0.56650000  0.89480000  1.0 0.1364244676
H  H99  1  0.76950000  0.05990000  0.40120000  1.0 0.1305414196
H  H100  1  0.85450000  0.06650000  0.39480000  1.0 0.1364244676
H  H101  1  0.73050000  0.44010000  0.90120000  1.0 0.1305414196
H  H102  1  0.64550000  0.43350000  0.89480000  1.0 0.1364244676
H  H103  1  0.23050000  0.94010000  0.40120000  1.0 0.1305414196
H  H104  1  0.14550000  0.93350000  0.39480000  1.0 0.1364244676
H  H105  1  0.73050000  0.55990000  0.09880000  1.0 0.1305414196
H  H106  1  0.64550000  0.56650000  0.10520000  1.0 0.1364244676
H  H107  1  0.23050000  0.05990000  0.59880000  1.0 0.1305414196
H  H108  1  0.14550000  0.06650000  0.60520000  1.0 0.1364244676
H  H109  1  0.26950000  0.44010000  0.09880000  1.0 0.1305414196
H  H110  1  0.35450000  0.43350000  0.10520000  1.0 0.1364244676
H  H111  1  0.76950000  0.94010000  0.59880000  1.0 0.1305414196
H  H112  1  0.85450000  0.93350000  0.60520000  1.0 0.1364244676
H  H113  1  0.90120000  0.26950000  0.55990000  1.0 0.1305414196
H  H114  1  0.89480000  0.35450000  0.56650000  1.0 0.1364244676
H  H115  1  0.40120000  0.76950000  0.05990000  1.0 0.1305414196
H  H116  1  0.39480000  0.85450000  0.06650000  1.0 0.1364244676
H  H117  1  0.90120000  0.73050000  0.44010000  1.0 0.1305414196
H  H118  1  0.89480000  0.64550000  0.43350000  1.0 0.1364244676
H  H119  1  0.40120000  0.23050000  0.94010000  1.0 0.1305414196
H  H120  1  0.39480000  0.14550000  0.93350000  1.0 0.1364244676
H  H121  1  0.09880000  0.73050000  0.55990000  1.0 0.1305414196
H  H122  1  0.10520000  0.64550000  0.56650000  1.0 0.1364244676
H  H123  1  0.59880000  0.23050000  0.05990000  1.0 0.1305414196
H  H124  1  0.60520000  0.14550000  0.06650000  1.0 0.1364244676
H  H125  1  0.09880000  0.26950000  0.44010000  1.0 0.1305414196
H  H126  1  0.10520000  0.35450000  0.43350000  1.0 0.1364244676
H  H127  1  0.59880000  0.76950000  0.94010000  1.0 0.1305414196
H  H128  1  0.60520000  0.85450000  0.93350000  1.0 0.1364244676
H  H129  1  0.55990000  0.90120000  0.26950000  1.0 0.1305414196
H  H130  1  0.56650000  0.89480000  0.35450000  1.0 0.1364244676
H  H131  1  0.05990000  0.40120000  0.76950000  1.0 0.1305414196
H  H132  1  0.06650000  0.39480000  0.85450000  1.0 0.1364244676
H  H133  1  0.44010000  0.90120000  0.73050000  1.0 0.1305414196
H  H134  1  0.43350000  0.89480000  0.64550000  1.0 0.1364244676
H  H135  1  0.94010000  0.40120000  0.23050000  1.0 0.1305414196
H  H136  1  0.93350000  0.39480000  0.14550000  1.0 0.1364244676
H  H137  1  0.55990000  0.09880000  0.73050000  1.0 0.1305414196
H  H138  1  0.56650000  0.10520000  0.64550000  1.0 0.1364244676
H  H139  1  0.05990000  0.59880000  0.23050000  1.0 0.1305414196
H  H140  1  0.06650000  0.60520000  0.14550000  1.0 0.1364244676
H  H141  1  0.44010000  0.09880000  0.26950000  1.0 0.1305414196
H  H142  1  0.43350000  0.10520000  0.35450000  1.0 0.1364244676
H  H143  1  0.94010000  0.59880000  0.76950000  1.0 0.1305414196
H  H144  1  0.93350000  0.60520000  0.85450000  1.0 0.1364244676
H  H145  1  0.55990000  0.26950000  0.09880000  1.0 0.1305414196
H  H146  1  0.56650000  0.35450000  0.10520000  1.0 0.1364244676
H  H147  1  0.05990000  0.76950000  0.59880000  1.0 0.1305414196
H  H148  1  0.06650000  0.85450000  0.60520000  1.0 0.1364244676
H  H149  1  0.44010000  0.73050000  0.09880000  1.0 0.1305414196
H  H150  1  0.43350000  0.64550000  0.10520000  1.0 0.1364244676
H  H151  1  0.94010000  0.23050000  0.59880000  1.0 0.1305414196
H  H152  1  0.93350000  0.14550000  0.60520000  1.0 0.1364244676
H  H153  1  0.55990000  0.73050000  0.90120000  1.0 0.1305414196
H  H154  1  0.56650000  0.64550000  0.89480000  1.0 0.1364244676
H  H155  1  0.05990000  0.23050000  0.40120000  1.0 0.1305414196
H  H156  1  0.06650000  0.14550000  0.39480000  1.0 0.1364244676
H  H157  1  0.44010000  0.26950000  0.90120000  1.0 0.1305414196
H  H158  1  0.43350000  0.35450000  0.89480000  1.0 0.1364244676
H  H159  1  0.94010000  0.76950000  0.40120000  1.0 0.1305414196
H  H160  1  0.93350000  0.85450000  0.39480000  1.0 0.1364244676
H  H161  1  0.26950000  0.90120000  0.44010000  1.0 0.1305414196
H  H162  1  0.35450000  0.89480000  0.43350000  1.0 0.1364244676
H  H163  1  0.76950000  0.40120000  0.94010000  1.0 0.1305414196
H  H164  1  0.85450000  0.39480000  0.93350000  1.0 0.1364244676
H  H165  1  0.73050000  0.90120000  0.55990000  1.0 0.1305414196
H  H166  1  0.64550000  0.89480000  0.56650000  1.0 0.1364244676
H  H167  1  0.23050000  0.40120000  0.05990000  1.0 0.1305414196
H  H168  1  0.14550000  0.39480000  0.06650000  1.0 0.1364244676
H  H169  1  0.73050000  0.09880000  0.44010000  1.0 0.1305414196
H  H170  1  0.64550000  0.10520000  0.43350000  1.0 0.1364244676
H  H171  1  0.23050000  0.59880000  0.94010000  1.0 0.1305414196
H  H172  1  0.14550000  0.60520000  0.93350000  1.0 0.1364244676
H  H173  1  0.26950000  0.09880000  0.55990000  1.0 0.1305414196
H  H174  1  0.35450000  0.10520000  0.56650000  1.0 0.1364244676
H  H175  1  0.76950000  0.59880000  0.05990000  1.0 0.1305414196
H  H176  1  0.85450000  0.60520000  0.06650000  1.0 0.1364244676
H  H177  1  0.90120000  0.55990000  0.73050000  1.0 0.1305414196
H  H178  1  0.89480000  0.56650000  0.64550000  1.0 0.1364244676
H  H179  1  0.40120000  0.05990000  0.23050000  1.0 0.1305414196
H  H180  1  0.39480000  0.06650000  0.14550000  1.0 0.1364244676
H  H181  1  0.90120000  0.44010000  0.26950000  1.0 0.1305414196
H  H182  1  0.89480000  0.43350000  0.35450000  1.0 0.1364244676
H  H183  1  0.40120000  0.94010000  0.76950000  1.0 0.1305414196
H  H184  1  0.39480000  0.93350000  0.85450000  1.0 0.1364244676
H  H185  1  0.09880000  0.55990000  0.26950000  1.0 0.1305414196
H  H186  1  0.10520000  0.56650000  0.35450000  1.0 0.1364244676
H  H187  1  0.59880000  0.05990000  0.76950000  1.0 0.1305414196
H  H188  1  0.60520000  0.06650000  0.85450000  1.0 0.1364244676
H  H189  1  0.09880000  0.44010000  0.73050000  1.0 0.1305414196
H  H190  1  0.10520000  0.43350000  0.64550000  1.0 0.1364244676
H  H191  1  0.59880000  0.94010000  0.23050000  1.0 0.1305414196
H  H192  1  0.60520000  0.93350000  0.14550000  1.0 0.1364244676
H  H193  1  0.65960000  0.34040000  0.16970000  1.0 0.1047003573
H  H194  1  0.15960000  0.84040000  0.66970000  1.0 0.1047003573
H  H195  1  0.34040000  0.65960000  0.16970000  1.0 0.1047003573
H  H196  1  0.84040000  0.15960000  0.66970000  1.0 0.1047003573
H  H197  1  0.34040000  0.34040000  0.83030000  1.0 0.1047003573
H  H198  1  0.84040000  0.84040000  0.33030000  1.0 0.1047003573
H  H199  1  0.65960000  0.65960000  0.83030000  1.0 0.1047003573
H  H200  1  0.15960000  0.15960000  0.33030000  1.0 0.1047003573
H  H201  1  0.16970000  0.65960000  0.34040000  1.0 0.1047003573
H  H202  1  0.66970000  0.15960000  0.84040000  1.0 0.1047003573
H  H203  1  0.16970000  0.34040000  0.65960000  1.0 0.1047003573
H  H204  1  0.66970000  0.84040000  0.15960000  1.0 0.1047003573
H  H205  1  0.83030000  0.34040000  0.34040000  1.0 0.1047003573
H  H206  1  0.33030000  0.84040000  0.84040000  1.0 0.1047003573
H  H207  1  0.83030000  0.65960000  0.65960000  1.0 0.1047003573
H  H208  1  0.33030000  0.15960000  0.15960000  1.0 0.1047003573
H  H209  1  0.34040000  0.16970000  0.65960000  1.0 0.1047003573
H  H210  1  0.84040000  0.66970000  0.15960000  1.0 0.1047003573
H  H211  1  0.65960000  0.16970000  0.34040000  1.0 0.1047003573
H  H212  1  0.15960000  0.66970000  0.84040000  1.0 0.1047003573
H  H213  1  0.34040000  0.83030000  0.34040000  1.0 0.1047003573
H  H214  1  0.84040000  0.33030000  0.84040000  1.0 0.1047003573
H  H215  1  0.65960000  0.83030000  0.65960000  1.0 0.1047003573
H  H216  1  0.15960000  0.33030000  0.15960000  1.0 0.1047003573
H  H217  1  0.34040000  0.65960000  0.83030000  1.0 0.1047003573
H  H218  1  0.84040000  0.15960000  0.33030000  1.0 0.1047003573
H  H219  1  0.65960000  0.34040000  0.83030000  1.0 0.1047003573
H  H220  1  0.15960000  0.84040000  0.33030000  1.0 0.1047003573
H  H221  1  0.34040000  0.34040000  0.16970000  1.0 0.1047003573
H  H222  1  0.84040000  0.84040000  0.66970000  1.0 0.1047003573
H  H223  1  0.65960000  0.65960000  0.16970000  1.0 0.1047003573
H  H224  1  0.15960000  0.15960000  0.66970000  1.0 0.1047003573
H  H225  1  0.65960000  0.16970000  0.65960000  1.0 0.1047003573
H  H226  1  0.15960000  0.66970000  0.15960000  1.0 0.1047003573
H  H227  1  0.34040000  0.16970000  0.34040000  1.0 0.1047003573
H  H228  1  0.84040000  0.66970000  0.84040000  1.0 0.1047003573
H  H229  1  0.34040000  0.83030000  0.65960000  1.0 0.1047003573
H  H230  1  0.84040000  0.33030000  0.15960000  1.0 0.1047003573
H  H231  1  0.65960000  0.83030000  0.34040000  1.0 0.1047003573
H  H232  1  0.15960000  0.33030000  0.84040000  1.0 0.1047003573
H  H233  1  0.16970000  0.34040000  0.34040000  1.0 0.1047003573
H  H234  1  0.66970000  0.84040000  0.84040000  1.0 0.1047003573
H  H235  1  0.16970000  0.65960000  0.65960000  1.0 0.1047003573
H  H236  1  0.66970000  0.15960000  0.15960000  1.0 0.1047003573
H  H237  1  0.83030000  0.34040000  0.65960000  1.0 0.1047003573
H  H238  1  0.33030000  0.84040000  0.15960000  1.0 0.1047003573
H  H239  1  0.83030000  0.65960000  0.34040000  1.0 0.1047003573
H  H240  1  0.33030000  0.15960000  0.84040000  1.0 0.1047003573
H  H241  1  0.71820000  0.50000000  0.19780000  1.0 0.1092671206
H  H242  1  0.21820000  0.00000000  0.69780000  1.0 0.1092671206
H  H243  1  0.28180000  0.50000000  0.19780000  1.0 0.1092671206
H  H244  1  0.78180000  0.00000000  0.69780000  1.0 0.1092671206
H  H245  1  0.28180000  0.50000000  0.80220000  1.0 0.1092671206
H  H246  1  0.78180000  0.00000000  0.30220000  1.0 0.1092671206
H  H247  1  0.71820000  0.50000000  0.80220000  1.0 0.1092671206
H  H248  1  0.21820000  0.00000000  0.30220000  1.0 0.1092671206
H  H249  1  0.19780000  0.71820000  0.50000000  1.0 0.1092671206
H  H250  1  0.69780000  0.21820000  0.00000000  1.0 0.1092671206
H  H251  1  0.19780000  0.28180000  0.50000000  1.0 0.1092671206
H  H252  1  0.69780000  0.78180000  0.00000000  1.0 0.1092671206
H  H253  1  0.80220000  0.28180000  0.50000000  1.0 0.1092671206
H  H254  1  0.30220000  0.78180000  0.00000000  1.0 0.1092671206
H  H255  1  0.80220000  0.71820000  0.50000000  1.0 0.1092671206
H  H256  1  0.30220000  0.21820000  0.00000000  1.0 0.1092671206
H  H257  1  0.50000000  0.19780000  0.71820000  1.0 0.1092671206
H  H258  1  0.00000000  0.69780000  0.21820000  1.0 0.1092671206
H  H259  1  0.50000000  0.19780000  0.28180000  1.0 0.1092671206
H  H260  1  0.00000000  0.69780000  0.78180000  1.0 0.1092671206
H  H261  1  0.50000000  0.80220000  0.28180000  1.0 0.1092671206
H  H262  1  0.00000000  0.30220000  0.78180000  1.0 0.1092671206
H  H263  1  0.50000000  0.80220000  0.71820000  1.0 0.1092671206
H  H264  1  0.00000000  0.30220000  0.21820000  1.0 0.1092671206
H  H265  1  0.50000000  0.71820000  0.80220000  1.0 0.1092671206
H  H266  1  0.00000000  0.21820000  0.30220000  1.0 0.1092671206
H  H267  1  0.50000000  0.28180000  0.80220000  1.0 0.1092671206
H  H268  1  0.00000000  0.78180000  0.30220000  1.0 0.1092671206
H  H269  1  0.50000000  0.28180000  0.19780000  1.0 0.1092671206
H  H270  1  0.00000000  0.78180000  0.69780000  1.0 0.1092671206
H  H271  1  0.50000000  0.71820000  0.19780000  1.0 0.1092671206
H  H272  1  0.00000000  0.21820000  0.69780000  1.0 0.1092671206
H  H273  1  0.71820000  0.19780000  0.50000000  1.0 0.1092671206
H  H274  1  0.21820000  0.69780000  0.00000000  1.0 0.1092671206
H  H275  1  0.28180000  0.19780000  0.50000000  1.0 0.1092671206
H  H276  1  0.78180000  0.69780000  0.00000000  1.0 0.1092671206
H  H277  1  0.28180000  0.80220000  0.50000000  1.0 0.1092671206
H  H278  1  0.78180000  0.30220000  0.00000000  1.0 0.1092671206
H  H279  1  0.71820000  0.80220000  0.50000000  1.0 0.1092671206
H  H280  1  0.21820000  0.30220000  0.00000000  1.0 0.1092671206
H  H281  1  0.19780000  0.50000000  0.28180000  1.0 0.1092671206
H  H282  1  0.69780000  0.00000000  0.78180000  1.0 0.1092671206
H  H283  1  0.19780000  0.50000000  0.71820000  1.0 0.1092671206
H  H284  1  0.69780000  0.00000000  0.21820000  1.0 0.1092671206
H  H285  1  0.80220000  0.50000000  0.71820000  1.0 0.1092671206
H  H286  1  0.30220000  0.00000000  0.21820000  1.0 0.1092671206
H  H287  1  0.80220000  0.50000000  0.28180000  1.0 0.1092671206
H  H288  1  0.30220000  0.00000000  0.78180000  1.0 0.1092671206
H  H289  1  0.78150000  0.41260000  0.21850000  1.0 0.1092671206
H  H290  1  0.28150000  0.91260000  0.71850000  1.0 0.1092671206
H  H291  1  0.21850000  0.58740000  0.21850000  1.0 0.1092671206
H  H292  1  0.71850000  0.08740000  0.71850000  1.0 0.1092671206
H  H293  1  0.21850000  0.41260000  0.78150000  1.0 0.1092671206
H  H294  1  0.71850000  0.91260000  0.28150000  1.0 0.1092671206
H  H295  1  0.78150000  0.58740000  0.78150000  1.0 0.1092671206
H  H296  1  0.28150000  0.08740000  0.28150000  1.0 0.1092671206
H  H297  1  0.21850000  0.78150000  0.41260000  1.0 0.1092671206
H  H298  1  0.71850000  0.28150000  0.91260000  1.0 0.1092671206
H  H299  1  0.21850000  0.21850000  0.58740000  1.0 0.1092671206
H  H300  1  0.71850000  0.71850000  0.08740000  1.0 0.1092671206
H  H301  1  0.78150000  0.21850000  0.41260000  1.0 0.1092671206
H  H302  1  0.28150000  0.71850000  0.91260000  1.0 0.1092671206
H  H303  1  0.78150000  0.78150000  0.58740000  1.0 0.1092671206
H  H304  1  0.28150000  0.28150000  0.08740000  1.0 0.1092671206
H  H305  1  0.41260000  0.21850000  0.78150000  1.0 0.1092671206
H  H306  1  0.91260000  0.71850000  0.28150000  1.0 0.1092671206
H  H307  1  0.58740000  0.21850000  0.21850000  1.0 0.1092671206
H  H308  1  0.08740000  0.71850000  0.71850000  1.0 0.1092671206
H  H309  1  0.41260000  0.78150000  0.21850000  1.0 0.1092671206
H  H310  1  0.91260000  0.28150000  0.71850000  1.0 0.1092671206
H  H311  1  0.58740000  0.78150000  0.78150000  1.0 0.1092671206
H  H312  1  0.08740000  0.28150000  0.28150000  1.0 0.1092671206
H  H313  1  0.41260000  0.78150000  0.78150000  1.0 0.1092671206
H  H314  1  0.91260000  0.28150000  0.28150000  1.0 0.1092671206
H  H315  1  0.58740000  0.21850000  0.78150000  1.0 0.1092671206
H  H316  1  0.08740000  0.71850000  0.28150000  1.0 0.1092671206
H  H317  1  0.41260000  0.21850000  0.21850000  1.0 0.1092671206
H  H318  1  0.91260000  0.71850000  0.71850000  1.0 0.1092671206
H  H319  1  0.58740000  0.78150000  0.21850000  1.0 0.1092671206
H  H320  1  0.08740000  0.28150000  0.71850000  1.0 0.1092671206
H  H321  1  0.78150000  0.21850000  0.58740000  1.0 0.1092671206
H  H322  1  0.28150000  0.71850000  0.08740000  1.0 0.1092671206
H  H323  1  0.21850000  0.21850000  0.41260000  1.0 0.1092671206
H  H324  1  0.71850000  0.71850000  0.91260000  1.0 0.1092671206
H  H325  1  0.21850000  0.78150000  0.58740000  1.0 0.1092671206
H  H326  1  0.71850000  0.28150000  0.08740000  1.0 0.1092671206
H  H327  1  0.78150000  0.78150000  0.41260000  1.0 0.1092671206
H  H328  1  0.28150000  0.28150000  0.91260000  1.0 0.1092671206
H  H329  1  0.21850000  0.41260000  0.21850000  1.0 0.1092671206
H  H330  1  0.71850000  0.91260000  0.71850000  1.0 0.1092671206
H  H331  1  0.21850000  0.58740000  0.78150000  1.0 0.1092671206
H  H332  1  0.71850000  0.08740000  0.28150000  1.0 0.1092671206
H  H333  1  0.78150000  0.41260000  0.78150000  1.0 0.1092671206
H  H334  1  0.28150000  0.91260000  0.28150000  1.0 0.1092671206
H  H335  1  0.78150000  0.58740000  0.21850000  1.0 0.1092671206
H  H336  1  0.28150000  0.08740000  0.71850000  1.0 0.1092671206
H  H337  1  0.61480000  0.43380000  0.20410000  0.5 0.1190248005
H  H338  1  0.61080000  0.46830000  0.06190000  0.5 0.1716822375
H  H339  1  0.65740000  0.46370000  0.24540000  0.5 0.0807255159
H  H340  1  0.63100000  0.46220000  0.21790000  0.5 0.0807255159
H  H341  1  0.68350000  0.43630000  0.26650000  0.5 0.1092671206
H  H342  1  0.11480000  0.93380000  0.70410000  0.5 0.1190248005
H  H343  1  0.11080000  0.96830000  0.56190000  0.5 0.1716822375
H  H344  1  0.15740000  0.96370000  0.74540000  0.5 0.0807255159
H  H345  1  0.13100000  0.96220000  0.71790000  0.5 0.0807255159
H  H346  1  0.18350000  0.93630000  0.76650000  0.5 0.1092671206
H  H347  1  0.38520000  0.56620000  0.20410000  0.5 0.1190248005
H  H348  1  0.38920000  0.53170000  0.06190000  0.5 0.1716822375
H  H349  1  0.34260000  0.53630000  0.24540000  0.5 0.0807255159
H  H350  1  0.36900000  0.53780000  0.21790000  0.5 0.0807255159
H  H351  1  0.31650000  0.56370000  0.26650000  0.5 0.1092671206
H  H352  1  0.88520000  0.06620000  0.70410000  0.5 0.1190248005
H  H353  1  0.88920000  0.03170000  0.56190000  0.5 0.1716822375
H  H354  1  0.84260000  0.03630000  0.74540000  0.5 0.0807255159
H  H355  1  0.86900000  0.03780000  0.71790000  0.5 0.0807255159
H  H356  1  0.81650000  0.06370000  0.76650000  0.5 0.1092671206
H  H357  1  0.38520000  0.43380000  0.79590000  0.5 0.1190248005
H  H358  1  0.38920000  0.46830000  0.93810000  0.5 0.1716822375
H  H359  1  0.34260000  0.46370000  0.75460000  0.5 0.0807255159
H  H360  1  0.36900000  0.46220000  0.78210000  0.5 0.0807255159
H  H361  1  0.31650000  0.43630000  0.73350000  0.5 0.1092671206
H  H362  1  0.88520000  0.93380000  0.29590000  0.5 0.1190248005
H  H363  1  0.88920000  0.96830000  0.43810000  0.5 0.1716822375
H  H364  1  0.84260000  0.96370000  0.25460000  0.5 0.0807255159
H  H365  1  0.86900000  0.96220000  0.28210000  0.5 0.0807255159
H  H366  1  0.81650000  0.93630000  0.23350000  0.5 0.1092671206
H  H367  1  0.61480000  0.56620000  0.79590000  0.5 0.1190248005
H  H368  1  0.61080000  0.53170000  0.93810000  0.5 0.1716822375
H  H369  1  0.65740000  0.53630000  0.75460000  0.5 0.0807255159
H  H370  1  0.63100000  0.53780000  0.78210000  0.5 0.0807255159
H  H371  1  0.68350000  0.56370000  0.73350000  0.5 0.1092671206
H  H372  1  0.11480000  0.06620000  0.29590000  0.5 0.1190248005
H  H373  1  0.11080000  0.03170000  0.43810000  0.5 0.1716822375
H  H374  1  0.15740000  0.03630000  0.25460000  0.5 0.0807255159
H  H375  1  0.13100000  0.03780000  0.28210000  0.5 0.0807255159
H  H376  1  0.18350000  0.06370000  0.23350000  0.5 0.1092671206
H  H377  1  0.20410000  0.61480000  0.43380000  0.5 0.1190248005
H  H378  1  0.06190000  0.61080000  0.46830000  0.5 0.1716822375
H  H379  1  0.24540000  0.65740000  0.46370000  0.5 0.0807255159
H  H380  1  0.21790000  0.63100000  0.46220000  0.5 0.0807255159
H  H381  1  0.26650000  0.68350000  0.43630000  0.5 0.1092671206
H  H382  1  0.70410000  0.11480000  0.93380000  0.5 0.1190248005
H  H383  1  0.56190000  0.11080000  0.96830000  0.5 0.1716822375
H  H384  1  0.74540000  0.15740000  0.96370000  0.5 0.0807255159
H  H385  1  0.71790000  0.13100000  0.96220000  0.5 0.0807255159
H  H386  1  0.76650000  0.18350000  0.93630000  0.5 0.1092671206
H  H387  1  0.20410000  0.38520000  0.56620000  0.5 0.1190248005
H  H388  1  0.06190000  0.38920000  0.53170000  0.5 0.1716822375
H  H389  1  0.24540000  0.34260000  0.53630000  0.5 0.0807255159
H  H390  1  0.21790000  0.36900000  0.53780000  0.5 0.0807255159
H  H391  1  0.26650000  0.31650000  0.56370000  0.5 0.1092671206
H  H392  1  0.70410000  0.88520000  0.06620000  0.5 0.1190248005
H  H393  1  0.56190000  0.88920000  0.03170000  0.5 0.1716822375
H  H394  1  0.74540000  0.84260000  0.03630000  0.5 0.0807255159
H  H395  1  0.71790000  0.86900000  0.03780000  0.5 0.0807255159
H  H396  1  0.76650000  0.81650000  0.06370000  0.5 0.1092671206
H  H397  1  0.79590000  0.38520000  0.43380000  0.5 0.1190248005
H  H398  1  0.93810000  0.38920000  0.46830000  0.5 0.1716822375
H  H399  1  0.75460000  0.34260000  0.46370000  0.5 0.0807255159
H  H400  1  0.78210000  0.36900000  0.46220000  0.5 0.0807255159
H  H401  1  0.73350000  0.31650000  0.43630000  0.5 0.1092671206
H  H402  1  0.29590000  0.88520000  0.93380000  0.5 0.1190248005
H  H403  1  0.43810000  0.88920000  0.96830000  0.5 0.1716822375
H  H404  1  0.25460000  0.84260000  0.96370000  0.5 0.0807255159
H  H405  1  0.28210000  0.86900000  0.96220000  0.5 0.0807255159
H  H406  1  0.23350000  0.81650000  0.93630000  0.5 0.1092671206
H  H407  1  0.79590000  0.61480000  0.56620000  0.5 0.1190248005
H  H408  1  0.93810000  0.61080000  0.53170000  0.5 0.1716822375
H  H409  1  0.75460000  0.65740000  0.53630000  0.5 0.0807255159
H  H410  1  0.78210000  0.63100000  0.53780000  0.5 0.0807255159
H  H411  1  0.73350000  0.68350000  0.56370000  0.5 0.1092671206
H  H412  1  0.29590000  0.11480000  0.06620000  0.5 0.1190248005
H  H413  1  0.43810000  0.11080000  0.03170000  0.5 0.1716822375
H  H414  1  0.25460000  0.15740000  0.03630000  0.5 0.0807255159
H  H415  1  0.28210000  0.13100000  0.03780000  0.5 0.0807255159
H  H416  1  0.23350000  0.18350000  0.06370000  0.5 0.1092671206
H  H417  1  0.43380000  0.20410000  0.61480000  0.5 0.1190248005
H  H418  1  0.46830000  0.06190000  0.61080000  0.5 0.1716822375
H  H419  1  0.46370000  0.24540000  0.65740000  0.5 0.0807255159
H  H420  1  0.46220000  0.21790000  0.63100000  0.5 0.0807255159
H  H421  1  0.43630000  0.26650000  0.68350000  0.5 0.1092671206
H  H422  1  0.93380000  0.70410000  0.11480000  0.5 0.1190248005
H  H423  1  0.96830000  0.56190000  0.11080000  0.5 0.1716822375
H  H424  1  0.96370000  0.74540000  0.15740000  0.5 0.0807255159
H  H425  1  0.96220000  0.71790000  0.13100000  0.5 0.0807255159
H  H426  1  0.93630000  0.76650000  0.18350000  0.5 0.1092671206
H  H427  1  0.56620000  0.20410000  0.38520000  0.5 0.1190248005
H  H428  1  0.53170000  0.06190000  0.38920000  0.5 0.1716822375
H  H429  1  0.53630000  0.24540000  0.34260000  0.5 0.0807255159
H  H430  1  0.53780000  0.21790000  0.36900000  0.5 0.0807255159
H  H431  1  0.56370000  0.26650000  0.31650000  0.5 0.1092671206
H  H432  1  0.06620000  0.70410000  0.88520000  0.5 0.1190248005
H  H433  1  0.03170000  0.56190000  0.88920000  0.5 0.1716822375
H  H434  1  0.03630000  0.74540000  0.84260000  0.5 0.0807255159
H  H435  1  0.03780000  0.71790000  0.86900000  0.5 0.0807255159
H  H436  1  0.06370000  0.76650000  0.81650000  0.5 0.1092671206
H  H437  1  0.43380000  0.79590000  0.38520000  0.5 0.1190248005
H  H438  1  0.46830000  0.93810000  0.38920000  0.5 0.1716822375
H  H439  1  0.46370000  0.75460000  0.34260000  0.5 0.0807255159
H  H440  1  0.46220000  0.78210000  0.36900000  0.5 0.0807255159
H  H441  1  0.43630000  0.73350000  0.31650000  0.5 0.1092671206
H  H442  1  0.93380000  0.29590000  0.88520000  0.5 0.1190248005
H  H443  1  0.96830000  0.43810000  0.88920000  0.5 0.1716822375
H  H444  1  0.96370000  0.25460000  0.84260000  0.5 0.0807255159
H  H445  1  0.96220000  0.28210000  0.86900000  0.5 0.0807255159
H  H446  1  0.93630000  0.23350000  0.81650000  0.5 0.1092671206
H  H447  1  0.56620000  0.79590000  0.61480000  0.5 0.1190248005
H  H448  1  0.53170000  0.93810000  0.61080000  0.5 0.1716822375
H  H449  1  0.53630000  0.75460000  0.65740000  0.5 0.0807255159
H  H450  1  0.53780000  0.78210000  0.63100000  0.5 0.0807255159
H  H451  1  0.56370000  0.73350000  0.68350000  0.5 0.1092671206
H  H452  1  0.06620000  0.29590000  0.11480000  0.5 0.1190248005
H  H453  1  0.03170000  0.43810000  0.11080000  0.5 0.1716822375
H  H454  1  0.03630000  0.25460000  0.15740000  0.5 0.0807255159
H  H455  1  0.03780000  0.28210000  0.13100000  0.5 0.0807255159
H  H456  1  0.06370000  0.23350000  0.18350000  0.5 0.1092671206
H  H457  1  0.43380000  0.61480000  0.79590000  0.5 0.1190248005
H  H458  1  0.46830000  0.61080000  0.93810000  0.5 0.1716822375
H  H459  1  0.46370000  0.65740000  0.75460000  0.5 0.0807255159
H  H460  1  0.46220000  0.63100000  0.78210000  0.5 0.0807255159
H  H461  1  0.43630000  0.68350000  0.73350000  0.5 0.1092671206
H  H462  1  0.93380000  0.11480000  0.29590000  0.5 0.1190248005
H  H463  1  0.96830000  0.11080000  0.43810000  0.5 0.1716822375
H  H464  1  0.96370000  0.15740000  0.25460000  0.5 0.0807255159
H  H465  1  0.96220000  0.13100000  0.28210000  0.5 0.0807255159
H  H466  1  0.93630000  0.18350000  0.23350000  0.5 0.1092671206
H  H467  1  0.56620000  0.38520000  0.79590000  0.5 0.1190248005
H  H468  1  0.53170000  0.38920000  0.93810000  0.5 0.1716822375
H  H469  1  0.53630000  0.34260000  0.75460000  0.5 0.0807255159
H  H470  1  0.53780000  0.36900000  0.78210000  0.5 0.0807255159
H  H471  1  0.56370000  0.31650000  0.73350000  0.5 0.1092671206
H  H472  1  0.06620000  0.88520000  0.29590000  0.5 0.1190248005
H  H473  1  0.03170000  0.88920000  0.43810000  0.5 0.1716822375
H  H474  1  0.03630000  0.84260000  0.25460000  0.5 0.0807255159
H  H475  1  0.03780000  0.86900000  0.28210000  0.5 0.0807255159
H  H476  1  0.06370000  0.81650000  0.23350000  0.5 0.1092671206
H  H477  1  0.43380000  0.38520000  0.20410000  0.5 0.1190248005
H  H478  1  0.46830000  0.38920000  0.06190000  0.5 0.1716822375
H  H479  1  0.46370000  0.34260000  0.24540000  0.5 0.0807255159
H  H480  1  0.46220000  0.36900000  0.21790000  0.5 0.0807255159
H  H481  1  0.43630000  0.31650000  0.26650000  0.5 0.1092671206
H  H482  1  0.93380000  0.88520000  0.70410000  0.5 0.1190248005
H  H483  1  0.96830000  0.88920000  0.56190000  0.5 0.1716822375
H  H484  1  0.96370000  0.84260000  0.74540000  0.5 0.0807255159
H  H485  1  0.96220000  0.86900000  0.71790000  0.5 0.0807255159
H  H486  1  0.93630000  0.81650000  0.76650000  0.5 0.1092671206
H  H487  1  0.56620000  0.61480000  0.20410000  0.5 0.1190248005
H  H488  1  0.53170000  0.61080000  0.06190000  0.5 0.1716822375
H  H489  1  0.53630000  0.65740000  0.24540000  0.5 0.0807255159
H  H490  1  0.53780000  0.63100000  0.21790000  0.5 0.0807255159
H  H491  1  0.56370000  0.68350000  0.26650000  0.5 0.1092671206
H  H492  1  0.06620000  0.11480000  0.70410000  0.5 0.1190248005
H  H493  1  0.03170000  0.11080000  0.56190000  0.5 0.1716822375
H  H494  1  0.03630000  0.15740000  0.74540000  0.5 0.0807255159
H  H495  1  0.03780000  0.13100000  0.71790000  0.5 0.0807255159
H  H496  1  0.06370000  0.18350000  0.76650000  0.5 0.1092671206
H  H497  1  0.61480000  0.20410000  0.56620000  0.5 0.1190248005
H  H498  1  0.61080000  0.06190000  0.53170000  0.5 0.1716822375
H  H499  1  0.65740000  0.24540000  0.53630000  0.5 0.0807255159
H  H500  1  0.63100000  0.21790000  0.53780000  0.5 0.0807255159
H  H501  1  0.68350000  0.26650000  0.56370000  0.5 0.1092671206
H  H502  1  0.11480000  0.70410000  0.06620000  0.5 0.1190248005
H  H503  1  0.11080000  0.56190000  0.03170000  0.5 0.1716822375
H  H504  1  0.15740000  0.74540000  0.03630000  0.5 0.0807255159
H  H505  1  0.13100000  0.71790000  0.03780000  0.5 0.0807255159
H  H506  1  0.18350000  0.76650000  0.06370000  0.5 0.1092671206
H  H507  1  0.38520000  0.20410000  0.43380000  0.5 0.1190248005
H  H508  1  0.38920000  0.06190000  0.46830000  0.5 0.1716822375
H  H509  1  0.34260000  0.24540000  0.46370000  0.5 0.0807255159
H  H510  1  0.36900000  0.21790000  0.46220000  0.5 0.0807255159
H  H511  1  0.31650000  0.26650000  0.43630000  0.5 0.1092671206
H  H512  1  0.88520000  0.70410000  0.93380000  0.5 0.1190248005
H  H513  1  0.88920000  0.56190000  0.96830000  0.5 0.1716822375
H  H514  1  0.84260000  0.74540000  0.96370000  0.5 0.0807255159
H  H515  1  0.86900000  0.71790000  0.96220000  0.5 0.0807255159
H  H516  1  0.81650000  0.76650000  0.93630000  0.5 0.1092671206
H  H517  1  0.38520000  0.79590000  0.56620000  0.5 0.1190248005
H  H518  1  0.38920000  0.93810000  0.53170000  0.5 0.1716822375
H  H519  1  0.34260000  0.75460000  0.53630000  0.5 0.0807255159
H  H520  1  0.36900000  0.78210000  0.53780000  0.5 0.0807255159
H  H521  1  0.31650000  0.73350000  0.56370000  0.5 0.1092671206
H  H522  1  0.88520000  0.29590000  0.06620000  0.5 0.1190248005
H  H523  1  0.88920000  0.43810000  0.03170000  0.5 0.1716822375
H  H524  1  0.84260000  0.25460000  0.03630000  0.5 0.0807255159
H  H525  1  0.86900000  0.28210000  0.03780000  0.5 0.0807255159
H  H526  1  0.81650000  0.23350000  0.06370000  0.5 0.1092671206
H  H527  1  0.61480000  0.79590000  0.43380000  0.5 0.1190248005
H  H528  1  0.61080000  0.93810000  0.46830000  0.5 0.1716822375
H  H529  1  0.65740000  0.75460000  0.46370000  0.5 0.0807255159
H  H530  1  0.63100000  0.78210000  0.46220000  0.5 0.0807255159
H  H531  1  0.68350000  0.73350000  0.43630000  0.5 0.1092671206
H  H532  1  0.11480000  0.29590000  0.93380000  0.5 0.1190248005
H  H533  1  0.11080000  0.43810000  0.96830000  0.5 0.1716822375
H  H534  1  0.15740000  0.25460000  0.96370000  0.5 0.0807255159
H  H535  1  0.13100000  0.28210000  0.96220000  0.5 0.0807255159
H  H536  1  0.18350000  0.23350000  0.93630000  0.5 0.1092671206
H  H537  1  0.20410000  0.43380000  0.38520000  0.5 0.1190248005
H  H538  1  0.06190000  0.46830000  0.38920000  0.5 0.1716822375
H  H539  1  0.24540000  0.46370000  0.34260000  0.5 0.0807255159
H  H540  1  0.21790000  0.46220000  0.36900000  0.5 0.0807255159
H  H541  1  0.26650000  0.43630000  0.31650000  0.5 0.1092671206
H  H542  1  0.70410000  0.93380000  0.88520000  0.5 0.1190248005
H  H543  1  0.56190000  0.96830000  0.88920000  0.5 0.1716822375
H  H544  1  0.74540000  0.96370000  0.84260000  0.5 0.0807255159
H  H545  1  0.71790000  0.96220000  0.86900000  0.5 0.0807255159
H  H546  1  0.76650000  0.93630000  0.81650000  0.5 0.1092671206
H  H547  1  0.20410000  0.56620000  0.61480000  0.5 0.1190248005
H  H548  1  0.06190000  0.53170000  0.61080000  0.5 0.1716822375
H  H549  1  0.24540000  0.53630000  0.65740000  0.5 0.0807255159
H  H550  1  0.21790000  0.53780000  0.63100000  0.5 0.0807255159
H  H551  1  0.26650000  0.56370000  0.68350000  0.5 0.1092671206
H  H552  1  0.70410000  0.06620000  0.11480000  0.5 0.1190248005
H  H553  1  0.56190000  0.03170000  0.11080000  0.5 0.1716822375
H  H554  1  0.74540000  0.03630000  0.15740000  0.5 0.0807255159
H  H555  1  0.71790000  0.03780000  0.13100000  0.5 0.0807255159
H  H556  1  0.76650000  0.06370000  0.18350000  0.5 0.1092671206
H  H557  1  0.79590000  0.43380000  0.61480000  0.5 0.1190248005
H  H558  1  0.93810000  0.46830000  0.61080000  0.5 0.1716822375
H  H559  1  0.75460000  0.46370000  0.65740000  0.5 0.0807255159
H  H560  1  0.78210000  0.46220000  0.63100000  0.5 0.0807255159
H  H561  1  0.73350000  0.43630000  0.68350000  0.5 0.1092671206
H  H562  1  0.29590000  0.93380000  0.11480000  0.5 0.1190248005
H  H563  1  0.43810000  0.96830000  0.11080000  0.5 0.1716822375
H  H564  1  0.25460000  0.96370000  0.15740000  0.5 0.0807255159
H  H565  1  0.28210000  0.96220000  0.13100000  0.5 0.0807255159
H  H566  1  0.23350000  0.93630000  0.18350000  0.5 0.1092671206
H  H567  1  0.79590000  0.56620000  0.38520000  0.5 0.1190248005
H  H568  1  0.93810000  0.53170000  0.38920000  0.5 0.1716822375
H  H569  1  0.75460000  0.53630000  0.34260000  0.5 0.0807255159
H  H570  1  0.78210000  0.53780000  0.36900000  0.5 0.0807255159
H  H571  1  0.73350000  0.56370000  0.31650000  0.5 0.1092671206
H  H572  1  0.29590000  0.06620000  0.88520000  0.5 0.1190248005
H  H573  1  0.43810000  0.03170000  0.88920000  0.5 0.1716822375
H  H574  1  0.25460000  0.03630000  0.84260000  0.5 0.0807255159
H  H575  1  0.28210000  0.03780000  0.86900000  0.5 0.0807255159
H  H576  1  0.23350000  0.06370000  0.81650000  0.5 0.1092671206
H  H577  1  0.38520000  0.56620000  0.79590000  0.5 0.1190248005
H  H578  1  0.38920000  0.53170000  0.93810000  0.5 0.1716822375
H  H579  1  0.34260000  0.53630000  0.75460000  0.5 0.0807255159
H  H580  1  0.36900000  0.53780000  0.78210000  0.5 0.0807255159
H  H581  1  0.31650000  0.56370000  0.73350000  0.5 0.1092671206
H  H582  1  0.88520000  0.06620000  0.29590000  0.5 0.1190248005
H  H583  1  0.88920000  0.03170000  0.43810000  0.5 0.1716822375
H  H584  1  0.84260000  0.03630000  0.25460000  0.5 0.0807255159
H  H585  1  0.86900000  0.03780000  0.28210000  0.5 0.0807255159
H  H586  1  0.81650000  0.06370000  0.23350000  0.5 0.1092671206
H  H587  1  0.61480000  0.43380000  0.79590000  0.5 0.1190248005
H  H588  1  0.61080000  0.46830000  0.93810000  0.5 0.1716822375
H  H589  1  0.65740000  0.46370000  0.75460000  0.5 0.0807255159
H  H590  1  0.63100000  0.46220000  0.78210000  0.5 0.0807255159
H  H591  1  0.68350000  0.43630000  0.73350000  0.5 0.1092671206
H  H592  1  0.11480000  0.93380000  0.29590000  0.5 0.1190248005
H  H593  1  0.11080000  0.96830000  0.43810000  0.5 0.1716822375
H  H594  1  0.15740000  0.96370000  0.25460000  0.5 0.0807255159
H  H595  1  0.13100000  0.96220000  0.28210000  0.5 0.0807255159
H  H596  1  0.18350000  0.93630000  0.23350000  0.5 0.1092671206
H  H597  1  0.61480000  0.56620000  0.20410000  0.5 0.1190248005
H  H598  1  0.61080000  0.53170000  0.06190000  0.5 0.1716822375
H  H599  1  0.65740000  0.53630000  0.24540000  0.5 0.0807255159
H  H600  1  0.63100000  0.53780000  0.21790000  0.5 0.0807255159
H  H601  1  0.68350000  0.56370000  0.26650000  0.5 0.1092671206
H  H602  1  0.11480000  0.06620000  0.70410000  0.5 0.1190248005
H  H603  1  0.11080000  0.03170000  0.56190000  0.5 0.1716822375
H  H604  1  0.15740000  0.03630000  0.74540000  0.5 0.0807255159
H  H605  1  0.13100000  0.03780000  0.71790000  0.5 0.0807255159
H  H606  1  0.18350000  0.06370000  0.76650000  0.5 0.1092671206
H  H607  1  0.38520000  0.43380000  0.20410000  0.5 0.1190248005
H  H608  1  0.38920000  0.46830000  0.06190000  0.5 0.1716822375
H  H609  1  0.34260000  0.46370000  0.24540000  0.5 0.0807255159
H  H610  1  0.36900000  0.46220000  0.21790000  0.5 0.0807255159
H  H611  1  0.31650000  0.43630000  0.26650000  0.5 0.1092671206
H  H612  1  0.88520000  0.93380000  0.70410000  0.5 0.1190248005
H  H613  1  0.88920000  0.96830000  0.56190000  0.5 0.1716822375
H  H614  1  0.84260000  0.96370000  0.74540000  0.5 0.0807255159
H  H615  1  0.86900000  0.96220000  0.71790000  0.5 0.0807255159
H  H616  1  0.81650000  0.93630000  0.76650000  0.5 0.1092671206
H  H617  1  0.79590000  0.38520000  0.56620000  0.5 0.1190248005
H  H618  1  0.93810000  0.38920000  0.53170000  0.5 0.1716822375
H  H619  1  0.75460000  0.34260000  0.53630000  0.5 0.0807255159
H  H620  1  0.78210000  0.36900000  0.53780000  0.5 0.0807255159
H  H621  1  0.73350000  0.31650000  0.56370000  0.5 0.1092671206
H  H622  1  0.29590000  0.88520000  0.06620000  0.5 0.1190248005
H  H623  1  0.43810000  0.88920000  0.03170000  0.5 0.1716822375
H  H624  1  0.25460000  0.84260000  0.03630000  0.5 0.0807255159
H  H625  1  0.28210000  0.86900000  0.03780000  0.5 0.0807255159
H  H626  1  0.23350000  0.81650000  0.06370000  0.5 0.1092671206
H  H627  1  0.79590000  0.61480000  0.43380000  0.5 0.1190248005
H  H628  1  0.93810000  0.61080000  0.46830000  0.5 0.1716822375
H  H629  1  0.75460000  0.65740000  0.46370000  0.5 0.0807255159
H  H630  1  0.78210000  0.63100000  0.46220000  0.5 0.0807255159
H  H631  1  0.73350000  0.68350000  0.43630000  0.5 0.1092671206
H  H632  1  0.29590000  0.11480000  0.93380000  0.5 0.1190248005
H  H633  1  0.43810000  0.11080000  0.96830000  0.5 0.1716822375
H  H634  1  0.25460000  0.15740000  0.96370000  0.5 0.0807255159
H  H635  1  0.28210000  0.13100000  0.96220000  0.5 0.0807255159
H  H636  1  0.23350000  0.18350000  0.93630000  0.5 0.1092671206
H  H637  1  0.20410000  0.61480000  0.56620000  0.5 0.1190248005
H  H638  1  0.06190000  0.61080000  0.53170000  0.5 0.1716822375
H  H639  1  0.24540000  0.65740000  0.53630000  0.5 0.0807255159
H  H640  1  0.21790000  0.63100000  0.53780000  0.5 0.0807255159
H  H641  1  0.26650000  0.68350000  0.56370000  0.5 0.1092671206
H  H642  1  0.70410000  0.11480000  0.06620000  0.5 0.1190248005
H  H643  1  0.56190000  0.11080000  0.03170000  0.5 0.1716822375
H  H644  1  0.74540000  0.15740000  0.03630000  0.5 0.0807255159
H  H645  1  0.71790000  0.13100000  0.03780000  0.5 0.0807255159
H  H646  1  0.76650000  0.18350000  0.06370000  0.5 0.1092671206
H  H647  1  0.20410000  0.38520000  0.43380000  0.5 0.1190248005
H  H648  1  0.06190000  0.38920000  0.46830000  0.5 0.1716822375
H  H649  1  0.24540000  0.34260000  0.46370000  0.5 0.0807255159
H  H650  1  0.21790000  0.36900000  0.46220000  0.5 0.0807255159
H  H651  1  0.26650000  0.31650000  0.43630000  0.5 0.1092671206
H  H652  1  0.70410000  0.88520000  0.93380000  0.5 0.1190248005
H  H653  1  0.56190000  0.88920000  0.96830000  0.5 0.1716822375
H  H654  1  0.74540000  0.84260000  0.96370000  0.5 0.0807255159
H  H655  1  0.71790000  0.86900000  0.96220000  0.5 0.0807255159
H  H656  1  0.76650000  0.81650000  0.93630000  0.5 0.1092671206
H  H657  1  0.56620000  0.79590000  0.38520000  0.5 0.1190248005
H  H658  1  0.53170000  0.93810000  0.38920000  0.5 0.1716822375
H  H659  1  0.53630000  0.75460000  0.34260000  0.5 0.0807255159
H  H660  1  0.53780000  0.78210000  0.36900000  0.5 0.0807255159
H  H661  1  0.56370000  0.73350000  0.31650000  0.5 0.1092671206
H  H662  1  0.06620000  0.29590000  0.88520000  0.5 0.1190248005
H  H663  1  0.03170000  0.43810000  0.88920000  0.5 0.1716822375
H  H664  1  0.03630000  0.25460000  0.84260000  0.5 0.0807255159
H  H665  1  0.03780000  0.28210000  0.86900000  0.5 0.0807255159
H  H666  1  0.06370000  0.23350000  0.81650000  0.5 0.1092671206
H  H667  1  0.43380000  0.79590000  0.61480000  0.5 0.1190248005
H  H668  1  0.46830000  0.93810000  0.61080000  0.5 0.1716822375
H  H669  1  0.46370000  0.75460000  0.65740000  0.5 0.0807255159
H  H670  1  0.46220000  0.78210000  0.63100000  0.5 0.0807255159
H  H671  1  0.43630000  0.73350000  0.68350000  0.5 0.1092671206
H  H672  1  0.93380000  0.29590000  0.11480000  0.5 0.1190248005
H  H673  1  0.96830000  0.43810000  0.11080000  0.5 0.1716822375
H  H674  1  0.96370000  0.25460000  0.15740000  0.5 0.0807255159
H  H675  1  0.96220000  0.28210000  0.13100000  0.5 0.0807255159
H  H676  1  0.93630000  0.23350000  0.18350000  0.5 0.1092671206
H  H677  1  0.56620000  0.20410000  0.61480000  0.5 0.1190248005
H  H678  1  0.53170000  0.06190000  0.61080000  0.5 0.1716822375
H  H679  1  0.53630000  0.24540000  0.65740000  0.5 0.0807255159
H  H680  1  0.53780000  0.21790000  0.63100000  0.5 0.0807255159
H  H681  1  0.56370000  0.26650000  0.68350000  0.5 0.1092671206
H  H682  1  0.06620000  0.70410000  0.11480000  0.5 0.1190248005
H  H683  1  0.03170000  0.56190000  0.11080000  0.5 0.1716822375
H  H684  1  0.03630000  0.74540000  0.15740000  0.5 0.0807255159
H  H685  1  0.03780000  0.71790000  0.13100000  0.5 0.0807255159
H  H686  1  0.06370000  0.76650000  0.18350000  0.5 0.1092671206
H  H687  1  0.43380000  0.20410000  0.38520000  0.5 0.1190248005
H  H688  1  0.46830000  0.06190000  0.38920000  0.5 0.1716822375
H  H689  1  0.46370000  0.24540000  0.34260000  0.5 0.0807255159
H  H690  1  0.46220000  0.21790000  0.36900000  0.5 0.0807255159
H  H691  1  0.43630000  0.26650000  0.31650000  0.5 0.1092671206
H  H692  1  0.93380000  0.70410000  0.88520000  0.5 0.1190248005
H  H693  1  0.96830000  0.56190000  0.88920000  0.5 0.1716822375
H  H694  1  0.96370000  0.74540000  0.84260000  0.5 0.0807255159
H  H695  1  0.96220000  0.71790000  0.86900000  0.5 0.0807255159
H  H696  1  0.93630000  0.76650000  0.81650000  0.5 0.1092671206
H  H697  1  0.56620000  0.38520000  0.20410000  0.5 0.1190248005
H  H698  1  0.53170000  0.38920000  0.06190000  0.5 0.1716822375
H  H699  1  0.53630000  0.34260000  0.24540000  0.5 0.0807255159
H  H700  1  0.53780000  0.36900000  0.21790000  0.5 0.0807255159
H  H701  1  0.56370000  0.31650000  0.26650000  0.5 0.1092671206
H  H702  1  0.06620000  0.88520000  0.70410000  0.5 0.1190248005
H  H703  1  0.03170000  0.88920000  0.56190000  0.5 0.1716822375
H  H704  1  0.03630000  0.84260000  0.74540000  0.5 0.0807255159
H  H705  1  0.03780000  0.86900000  0.71790000  0.5 0.0807255159
H  H706  1  0.06370000  0.81650000  0.76650000  0.5 0.1092671206
H  H707  1  0.43380000  0.61480000  0.20410000  0.5 0.1190248005
H  H708  1  0.46830000  0.61080000  0.06190000  0.5 0.1716822375
H  H709  1  0.46370000  0.65740000  0.24540000  0.5 0.0807255159
H  H710  1  0.46220000  0.63100000  0.21790000  0.5 0.0807255159
H  H711  1  0.43630000  0.68350000  0.26650000  0.5 0.1092671206
H  H712  1  0.93380000  0.11480000  0.70410000  0.5 0.1190248005
H  H713  1  0.96830000  0.11080000  0.56190000  0.5 0.1716822375
H  H714  1  0.96370000  0.15740000  0.74540000  0.5 0.0807255159
H  H715  1  0.96220000  0.13100000  0.71790000  0.5 0.0807255159
H  H716  1  0.93630000  0.18350000  0.76650000  0.5 0.1092671206
H  H717  1  0.56620000  0.61480000  0.79590000  0.5 0.1190248005
H  H718  1  0.53170000  0.61080000  0.93810000  0.5 0.1716822375
H  H719  1  0.53630000  0.65740000  0.75460000  0.5 0.0807255159
H  H720  1  0.53780000  0.63100000  0.78210000  0.5 0.0807255159
H  H721  1  0.56370000  0.68350000  0.73350000  0.5 0.1092671206
H  H722  1  0.06620000  0.11480000  0.29590000  0.5 0.1190248005
H  H723  1  0.03170000  0.11080000  0.43810000  0.5 0.1716822375
H  H724  1  0.03630000  0.15740000  0.25460000  0.5 0.0807255159
H  H725  1  0.03780000  0.13100000  0.28210000  0.5 0.0807255159
H  H726  1  0.06370000  0.18350000  0.23350000  0.5 0.1092671206
H  H727  1  0.43380000  0.38520000  0.79590000  0.5 0.1190248005
H  H728  1  0.46830000  0.38920000  0.93810000  0.5 0.1716822375
H  H729  1  0.46370000  0.34260000  0.75460000  0.5 0.0807255159
H  H730  1  0.46220000  0.36900000  0.78210000  0.5 0.0807255159
H  H731  1  0.43630000  0.31650000  0.73350000  0.5 0.1092671206
H  H732  1  0.93380000  0.88520000  0.29590000  0.5 0.1190248005
H  H733  1  0.96830000  0.88920000  0.43810000  0.5 0.1716822375
H  H734  1  0.96370000  0.84260000  0.25460000  0.5 0.0807255159
H  H735  1  0.96220000  0.86900000  0.28210000  0.5 0.0807255159
H  H736  1  0.93630000  0.81650000  0.23350000  0.5 0.1092671206
H  H737  1  0.38520000  0.79590000  0.43380000  0.5 0.1190248005
H  H738  1  0.38920000  0.93810000  0.46830000  0.5 0.1716822375
H  H739  1  0.34260000  0.75460000  0.46370000  0.5 0.0807255159
H  H740  1  0.36900000  0.78210000  0.46220000  0.5 0.0807255159
H  H741  1  0.31650000  0.73350000  0.43630000  0.5 0.1092671206
H  H742  1  0.88520000  0.29590000  0.93380000  0.5 0.1190248005
H  H743  1  0.88920000  0.43810000  0.96830000  0.5 0.1716822375
H  H744  1  0.84260000  0.25460000  0.96370000  0.5 0.0807255159
H  H745  1  0.86900000  0.28210000  0.96220000  0.5 0.0807255159
H  H746  1  0.81650000  0.23350000  0.93630000  0.5 0.1092671206
H  H747  1  0.61480000  0.79590000  0.56620000  0.5 0.1190248005
H  H748  1  0.61080000  0.93810000  0.53170000  0.5 0.1716822375
H  H749  1  0.65740000  0.75460000  0.53630000  0.5 0.0807255159
H  H750  1  0.63100000  0.78210000  0.53780000  0.5 0.0807255159
H  H751  1  0.68350000  0.73350000  0.56370000  0.5 0.1092671206
H  H752  1  0.11480000  0.29590000  0.06620000  0.5 0.1190248005
H  H753  1  0.11080000  0.43810000  0.03170000  0.5 0.1716822375
H  H754  1  0.15740000  0.25460000  0.03630000  0.5 0.0807255159
H  H755  1  0.13100000  0.28210000  0.03780000  0.5 0.0807255159
H  H756  1  0.18350000  0.23350000  0.06370000  0.5 0.1092671206
H  H757  1  0.61480000  0.20410000  0.43380000  0.5 0.1190248005
H  H758  1  0.61080000  0.06190000  0.46830000  0.5 0.1716822375
H  H759  1  0.65740000  0.24540000  0.46370000  0.5 0.0807255159
H  H760  1  0.63100000  0.21790000  0.46220000  0.5 0.0807255159
H  H761  1  0.68350000  0.26650000  0.43630000  0.5 0.1092671206
H  H762  1  0.11480000  0.70410000  0.93380000  0.5 0.1190248005
H  H763  1  0.11080000  0.56190000  0.96830000  0.5 0.1716822375
H  H764  1  0.15740000  0.74540000  0.96370000  0.5 0.0807255159
H  H765  1  0.13100000  0.71790000  0.96220000  0.5 0.0807255159
H  H766  1  0.18350000  0.76650000  0.93630000  0.5 0.1092671206
H  H767  1  0.38520000  0.20410000  0.56620000  0.5 0.1190248005
H  H768  1  0.38920000  0.06190000  0.53170000  0.5 0.1716822375
H  H769  1  0.34260000  0.24540000  0.53630000  0.5 0.0807255159
H  H770  1  0.36900000  0.21790000  0.53780000  0.5 0.0807255159
H  H771  1  0.31650000  0.26650000  0.56370000  0.5 0.1092671206
H  H772  1  0.88520000  0.70410000  0.06620000  0.5 0.1190248005
H  H773  1  0.88920000  0.56190000  0.03170000  0.5 0.1716822375
H  H774  1  0.84260000  0.74540000  0.03630000  0.5 0.0807255159
H  H775  1  0.86900000  0.71790000  0.03780000  0.5 0.0807255159
H  H776  1  0.81650000  0.76650000  0.06370000  0.5 0.1092671206
H  H777  1  0.79590000  0.56620000  0.61480000  0.5 0.1190248005
H  H778  1  0.93810000  0.53170000  0.61080000  0.5 0.1716822375
H  H779  1  0.75460000  0.53630000  0.65740000  0.5 0.0807255159
H  H780  1  0.78210000  0.53780000  0.63100000  0.5 0.0807255159
H  H781  1  0.73350000  0.56370000  0.68350000  0.5 0.1092671206
H  H782  1  0.29590000  0.06620000  0.11480000  0.5 0.1190248005
H  H783  1  0.43810000  0.03170000  0.11080000  0.5 0.1716822375
H  H784  1  0.25460000  0.03630000  0.15740000  0.5 0.0807255159
H  H785  1  0.28210000  0.03780000  0.13100000  0.5 0.0807255159
H  H786  1  0.23350000  0.06370000  0.18350000  0.5 0.1092671206
H  H787  1  0.79590000  0.43380000  0.38520000  0.5 0.1190248005
H  H788  1  0.93810000  0.46830000  0.38920000  0.5 0.1716822375
H  H789  1  0.75460000  0.46370000  0.34260000  0.5 0.0807255159
H  H790  1  0.78210000  0.46220000  0.36900000  0.5 0.0807255159
H  H791  1  0.73350000  0.43630000  0.31650000  0.5 0.1092671206
H  H792  1  0.29590000  0.93380000  0.88520000  0.5 0.1190248005
H  H793  1  0.43810000  0.96830000  0.88920000  0.5 0.1716822375
H  H794  1  0.25460000  0.96370000  0.84260000  0.5 0.0807255159
H  H795  1  0.28210000  0.96220000  0.86900000  0.5 0.0807255159
H  H796  1  0.23350000  0.93630000  0.81650000  0.5 0.1092671206
H  H797  1  0.20410000  0.56620000  0.38520000  0.5 0.1190248005
H  H798  1  0.06190000  0.53170000  0.38920000  0.5 0.1716822375
H  H799  1  0.24540000  0.53630000  0.34260000  0.5 0.0807255159
H  H800  1  0.21790000  0.53780000  0.36900000  0.5 0.0807255159
H  H801  1  0.26650000  0.56370000  0.31650000  0.5 0.1092671206
H  H802  1  0.70410000  0.06620000  0.88520000  0.5 0.1190248005
H  H803  1  0.56190000  0.03170000  0.88920000  0.5 0.1716822375
H  H804  1  0.74540000  0.03630000  0.84260000  0.5 0.0807255159
H  H805  1  0.71790000  0.03780000  0.86900000  0.5 0.0807255159
H  H806  1  0.76650000  0.06370000  0.81650000  0.5 0.1092671206
H  H807  1  0.20410000  0.43380000  0.61480000  0.5 0.1190248005
H  H808  1  0.06190000  0.46830000  0.61080000  0.5 0.1716822375
H  H809  1  0.24540000  0.46370000  0.65740000  0.5 0.0807255159
H  H810  1  0.21790000  0.46220000  0.63100000  0.5 0.0807255159
H  H811  1  0.26650000  0.43630000  0.68350000  0.5 0.1092671206
H  H812  1  0.70410000  0.93380000  0.11480000  0.5 0.1190248005
H  H813  1  0.56190000  0.96830000  0.11080000  0.5 0.1716822375
H  H814  1  0.74540000  0.96370000  0.15740000  0.5 0.0807255159
H  H815  1  0.71790000  0.96220000  0.13100000  0.5 0.0807255159
H  H816  1  0.76650000  0.93630000  0.18350000  0.5 0.1092671206
C  C1  1  0.61830000  0.40830000  0.19760000  1.0 0.0695106266
C  C2  1  0.73930000  0.41590000  0.10540000  1.0 -0.0312043704
C  C3  1  0.66550000  0.48070000  0.13320000  1.0 0.1305414196
C  C4  1  0.64520000  0.46010000  0.10580000  1.0 -0.2110415806
C  C5  1  0.62520000  0.48100000  0.08020000  1.0 -0.0312043704
C  C6  1  0.11830000  0.90830000  0.69760000  1.0 0.0695106266
C  C7  1  0.23930000  0.91590000  0.60540000  1.0 -0.0312043704
C  C8  1  0.16550000  0.98070000  0.63320000  1.0 0.1305414196
C  C9  1  0.14520000  0.96010000  0.60580000  1.0 -0.2110415806
C  C10  1  0.12520000  0.98100000  0.58020000  1.0 -0.0312043704
C  C11  1  0.38170000  0.59170000  0.19760000  1.0 0.0695106266
C  C12  1  0.26070000  0.58410000  0.10540000  1.0 -0.0312043704
C  C13  1  0.33450000  0.51930000  0.13320000  1.0 0.1305414196
C  C14  1  0.35480000  0.53990000  0.10580000  1.0 -0.2110415806
C  C15  1  0.37480000  0.51900000  0.08020000  1.0 -0.0312043704
C  C16  1  0.88170000  0.09170000  0.69760000  1.0 0.0695106266
C  C17  1  0.76070000  0.08410000  0.60540000  1.0 -0.0312043704
C  C18  1  0.83450000  0.01930000  0.63320000  1.0 0.1305414196
C  C19  1  0.85480000  0.03990000  0.60580000  1.0 -0.2110415806
C  C20  1  0.87480000  0.01900000  0.58020000  1.0 -0.0312043704
C  C21  1  0.38170000  0.40830000  0.80240000  1.0 0.0695106266
C  C22  1  0.26070000  0.41590000  0.89460000  1.0 -0.0312043704
C  C23  1  0.33450000  0.48070000  0.86680000  1.0 0.1305414196
C  C24  1  0.35480000  0.46010000  0.89420000  1.0 -0.2110415806
C  C25  1  0.37480000  0.48100000  0.91980000  1.0 -0.0312043704
C  C26  1  0.88170000  0.90830000  0.30240000  1.0 0.0695106266
C  C27  1  0.76070000  0.91590000  0.39460000  1.0 -0.0312043704
C  C28  1  0.83450000  0.98070000  0.36680000  1.0 0.1305414196
C  C29  1  0.85480000  0.96010000  0.39420000  1.0 -0.2110415806
C  C30  1  0.87480000  0.98100000  0.41980000  1.0 -0.0312043704
C  C31  1  0.61830000  0.59170000  0.80240000  1.0 0.0695106266
C  C32  1  0.73930000  0.58410000  0.89460000  1.0 -0.0312043704
C  C33  1  0.66550000  0.51930000  0.86680000  1.0 0.1305414196
C  C34  1  0.64520000  0.53990000  0.89420000  1.0 -0.2110415806
C  C35  1  0.62520000  0.51900000  0.91980000  1.0 -0.0312043704
C  C36  1  0.11830000  0.09170000  0.30240000  1.0 0.0695106266
C  C37  1  0.23930000  0.08410000  0.39460000  1.0 -0.0312043704
C  C38  1  0.16550000  0.01930000  0.36680000  1.0 0.1305414196
C  C39  1  0.14520000  0.03990000  0.39420000  1.0 -0.2110415806
C  C40  1  0.12520000  0.01900000  0.41980000  1.0 -0.0312043704
C  C41  1  0.19760000  0.61830000  0.40830000  1.0 0.0695106266
C  C42  1  0.10540000  0.73930000  0.41590000  1.0 -0.0312043704
C  C43  1  0.13320000  0.66550000  0.48070000  1.0 0.1305414196
C  C44  1  0.10580000  0.64520000  0.46010000  1.0 -0.2110415806
C  C45  1  0.08020000  0.62520000  0.48100000  1.0 -0.0312043704
C  C46  1  0.69760000  0.11830000  0.90830000  1.0 0.0695106266
C  C47  1  0.60540000  0.23930000  0.91590000  1.0 -0.0312043704
C  C48  1  0.63320000  0.16550000  0.98070000  1.0 0.1305414196
C  C49  1  0.60580000  0.14520000  0.96010000  1.0 -0.2110415806
C  C50  1  0.58020000  0.12520000  0.98100000  1.0 -0.0312043704
C  C51  1  0.19760000  0.38170000  0.59170000  1.0 0.0695106266
C  C52  1  0.10540000  0.26070000  0.58410000  1.0 -0.0312043704
C  C53  1  0.13320000  0.33450000  0.51930000  1.0 0.1305414196
C  C54  1  0.10580000  0.35480000  0.53990000  1.0 -0.2110415806
C  C55  1  0.08020000  0.37480000  0.51900000  1.0 -0.0312043704
C  C56  1  0.69760000  0.88170000  0.09170000  1.0 0.0695106266
C  C57  1  0.60540000  0.76070000  0.08410000  1.0 -0.0312043704
C  C58  1  0.63320000  0.83450000  0.01930000  1.0 0.1305414196
C  C59  1  0.60580000  0.85480000  0.03990000  1.0 -0.2110415806
C  C60  1  0.58020000  0.87480000  0.01900000  1.0 -0.0312043704
C  C61  1  0.80240000  0.38170000  0.40830000  1.0 0.0695106266
C  C62  1  0.89460000  0.26070000  0.41590000  1.0 -0.0312043704
C  C63  1  0.86680000  0.33450000  0.48070000  1.0 0.1305414196
C  C64  1  0.89420000  0.35480000  0.46010000  1.0 -0.2110415806
C  C65  1  0.91980000  0.37480000  0.48100000  1.0 -0.0312043704
C  C66  1  0.30240000  0.88170000  0.90830000  1.0 0.0695106266
C  C67  1  0.39460000  0.76070000  0.91590000  1.0 -0.0312043704
C  C68  1  0.36680000  0.83450000  0.98070000  1.0 0.1305414196
C  C69  1  0.39420000  0.85480000  0.96010000  1.0 -0.2110415806
C  C70  1  0.41980000  0.87480000  0.98100000  1.0 -0.0312043704
C  C71  1  0.80240000  0.61830000  0.59170000  1.0 0.0695106266
C  C72  1  0.89460000  0.73930000  0.58410000  1.0 -0.0312043704
C  C73  1  0.86680000  0.66550000  0.51930000  1.0 0.1305414196
C  C74  1  0.89420000  0.64520000  0.53990000  1.0 -0.2110415806
C  C75  1  0.91980000  0.62520000  0.51900000  1.0 -0.0312043704
C  C76  1  0.30240000  0.11830000  0.09170000  1.0 0.0695106266
C  C77  1  0.39460000  0.23930000  0.08410000  1.0 -0.0312043704
C  C78  1  0.36680000  0.16550000  0.01930000  1.0 0.1305414196
C  C79  1  0.39420000  0.14520000  0.03990000  1.0 -0.2110415806
C  C80  1  0.41980000  0.12520000  0.01900000  1.0 -0.0312043704
C  C81  1  0.40830000  0.19760000  0.61830000  1.0 0.0695106266
C  C82  1  0.41590000  0.10540000  0.73930000  1.0 -0.0312043704
C  C83  1  0.48070000  0.13320000  0.66550000  1.0 0.1305414196
C  C84  1  0.46010000  0.10580000  0.64520000  1.0 -0.2110415806
C  C85  1  0.48100000  0.08020000  0.62520000  1.0 -0.0312043704
C  C86  1  0.90830000  0.69760000  0.11830000  1.0 0.0695106266
C  C87  1  0.91590000  0.60540000  0.23930000  1.0 -0.0312043704
C  C88  1  0.98070000  0.63320000  0.16550000  1.0 0.1305414196
C  C89  1  0.96010000  0.60580000  0.14520000  1.0 -0.2110415806
C  C90  1  0.98100000  0.58020000  0.12520000  1.0 -0.0312043704
C  C91  1  0.59170000  0.19760000  0.38170000  1.0 0.0695106266
C  C92  1  0.58410000  0.10540000  0.26070000  1.0 -0.0312043704
C  C93  1  0.51930000  0.13320000  0.33450000  1.0 0.1305414196
C  C94  1  0.53990000  0.10580000  0.35480000  1.0 -0.2110415806
C  C95  1  0.51900000  0.08020000  0.37480000  1.0 -0.0312043704
C  C96  1  0.09170000  0.69760000  0.88170000  1.0 0.0695106266
C  C97  1  0.08410000  0.60540000  0.76070000  1.0 -0.0312043704
C  C98  1  0.01930000  0.63320000  0.83450000  1.0 0.1305414196
C  C99  1  0.03990000  0.60580000  0.85480000  1.0 -0.2110415806
C  C100  1  0.01900000  0.58020000  0.87480000  1.0 -0.0312043704
C  C101  1  0.40830000  0.80240000  0.38170000  1.0 0.0695106266
C  C102  1  0.41590000  0.89460000  0.26070000  1.0 -0.0312043704
C  C103  1  0.48070000  0.86680000  0.33450000  1.0 0.1305414196
C  C104  1  0.46010000  0.89420000  0.35480000  1.0 -0.2110415806
C  C105  1  0.48100000  0.91980000  0.37480000  1.0 -0.0312043704
C  C106  1  0.90830000  0.30240000  0.88170000  1.0 0.0695106266
C  C107  1  0.91590000  0.39460000  0.76070000  1.0 -0.0312043704
C  C108  1  0.98070000  0.36680000  0.83450000  1.0 0.1305414196
C  C109  1  0.96010000  0.39420000  0.85480000  1.0 -0.2110415806
C  C110  1  0.98100000  0.41980000  0.87480000  1.0 -0.0312043704
C  C111  1  0.59170000  0.80240000  0.61830000  1.0 0.0695106266
C  C112  1  0.58410000  0.89460000  0.73930000  1.0 -0.0312043704
C  C113  1  0.51930000  0.86680000  0.66550000  1.0 0.1305414196
C  C114  1  0.53990000  0.89420000  0.64520000  1.0 -0.2110415806
C  C115  1  0.51900000  0.91980000  0.62520000  1.0 -0.0312043704
C  C116  1  0.09170000  0.30240000  0.11830000  1.0 0.0695106266
C  C117  1  0.08410000  0.39460000  0.23930000  1.0 -0.0312043704
C  C118  1  0.01930000  0.36680000  0.16550000  1.0 0.1305414196
C  C119  1  0.03990000  0.39420000  0.14520000  1.0 -0.2110415806
C  C120  1  0.01900000  0.41980000  0.12520000  1.0 -0.0312043704
C  C121  1  0.40830000  0.61830000  0.80240000  1.0 0.0695106266
C  C122  1  0.41590000  0.73930000  0.89460000  1.0 -0.0312043704
C  C123  1  0.48070000  0.66550000  0.86680000  1.0 0.1305414196
C  C124  1  0.46010000  0.64520000  0.89420000  1.0 -0.2110415806
C  C125  1  0.48100000  0.62520000  0.91980000  1.0 -0.0312043704
C  C126  1  0.90830000  0.11830000  0.30240000  1.0 0.0695106266
C  C127  1  0.91590000  0.23930000  0.39460000  1.0 -0.0312043704
C  C128  1  0.98070000  0.16550000  0.36680000  1.0 0.1305414196
C  C129  1  0.96010000  0.14520000  0.39420000  1.0 -0.2110415806
C  C130  1  0.98100000  0.12520000  0.41980000  1.0 -0.0312043704
C  C131  1  0.59170000  0.38170000  0.80240000  1.0 0.0695106266
C  C132  1  0.58410000  0.26070000  0.89460000  1.0 -0.0312043704
C  C133  1  0.51930000  0.33450000  0.86680000  1.0 0.1305414196
C  C134  1  0.53990000  0.35480000  0.89420000  1.0 -0.2110415806
C  C135  1  0.51900000  0.37480000  0.91980000  1.0 -0.0312043704
C  C136  1  0.09170000  0.88170000  0.30240000  1.0 0.0695106266
C  C137  1  0.08410000  0.76070000  0.39460000  1.0 -0.0312043704
C  C138  1  0.01930000  0.83450000  0.36680000  1.0 0.1305414196
C  C139  1  0.03990000  0.85480000  0.39420000  1.0 -0.2110415806
C  C140  1  0.01900000  0.87480000  0.41980000  1.0 -0.0312043704
C  C141  1  0.40830000  0.38170000  0.19760000  1.0 0.0695106266
C  C142  1  0.41590000  0.26070000  0.10540000  1.0 -0.0312043704
C  C143  1  0.48070000  0.33450000  0.13320000  1.0 0.1305414196
C  C144  1  0.46010000  0.35480000  0.10580000  1.0 -0.2110415806
C  C145  1  0.48100000  0.37480000  0.08020000  1.0 -0.0312043704
C  C146  1  0.90830000  0.88170000  0.69760000  1.0 0.0695106266
C  C147  1  0.91590000  0.76070000  0.60540000  1.0 -0.0312043704
C  C148  1  0.98070000  0.83450000  0.63320000  1.0 0.1305414196
C  C149  1  0.96010000  0.85480000  0.60580000  1.0 -0.2110415806
C  C150  1  0.98100000  0.87480000  0.58020000  1.0 -0.0312043704
C  C151  1  0.59170000  0.61830000  0.19760000  1.0 0.0695106266
C  C152  1  0.58410000  0.73930000  0.10540000  1.0 -0.0312043704
C  C153  1  0.51930000  0.66550000  0.13320000  1.0 0.1305414196
C  C154  1  0.53990000  0.64520000  0.10580000  1.0 -0.2110415806
C  C155  1  0.51900000  0.62520000  0.08020000  1.0 -0.0312043704
C  C156  1  0.09170000  0.11830000  0.69760000  1.0 0.0695106266
C  C157  1  0.08410000  0.23930000  0.60540000  1.0 -0.0312043704
C  C158  1  0.01930000  0.16550000  0.63320000  1.0 0.1305414196
C  C159  1  0.03990000  0.14520000  0.60580000  1.0 -0.2110415806
C  C160  1  0.01900000  0.12520000  0.58020000  1.0 -0.0312043704
C  C161  1  0.61830000  0.19760000  0.59170000  1.0 0.0695106266
C  C162  1  0.73930000  0.10540000  0.58410000  1.0 -0.0312043704
C  C163  1  0.66550000  0.13320000  0.51930000  1.0 0.1305414196
C  C164  1  0.64520000  0.10580000  0.53990000  1.0 -0.2110415806
C  C165  1  0.62520000  0.08020000  0.51900000  1.0 -0.0312043704
C  C166  1  0.11830000  0.69760000  0.09170000  1.0 0.0695106266
C  C167  1  0.23930000  0.60540000  0.08410000  1.0 -0.0312043704
C  C168  1  0.16550000  0.63320000  0.01930000  1.0 0.1305414196
C  C169  1  0.14520000  0.60580000  0.03990000  1.0 -0.2110415806
C  C170  1  0.12520000  0.58020000  0.01900000  1.0 -0.0312043704
C  C171  1  0.38170000  0.19760000  0.40830000  1.0 0.0695106266
C  C172  1  0.26070000  0.10540000  0.41590000  1.0 -0.0312043704
C  C173  1  0.33450000  0.13320000  0.48070000  1.0 0.1305414196
C  C174  1  0.35480000  0.10580000  0.46010000  1.0 -0.2110415806
C  C175  1  0.37480000  0.08020000  0.48100000  1.0 -0.0312043704
C  C176  1  0.88170000  0.69760000  0.90830000  1.0 0.0695106266
C  C177  1  0.76070000  0.60540000  0.91590000  1.0 -0.0312043704
C  C178  1  0.83450000  0.63320000  0.98070000  1.0 0.1305414196
C  C179  1  0.85480000  0.60580000  0.96010000  1.0 -0.2110415806
C  C180  1  0.87480000  0.58020000  0.98100000  1.0 -0.0312043704
C  C181  1  0.38170000  0.80240000  0.59170000  1.0 0.0695106266
C  C182  1  0.26070000  0.89460000  0.58410000  1.0 -0.0312043704
C  C183  1  0.33450000  0.86680000  0.51930000  1.0 0.1305414196
C  C184  1  0.35480000  0.89420000  0.53990000  1.0 -0.2110415806
C  C185  1  0.37480000  0.91980000  0.51900000  1.0 -0.0312043704
C  C186  1  0.88170000  0.30240000  0.09170000  1.0 0.0695106266
C  C187  1  0.76070000  0.39460000  0.08410000  1.0 -0.0312043704
C  C188  1  0.83450000  0.36680000  0.01930000  1.0 0.1305414196
C  C189  1  0.85480000  0.39420000  0.03990000  1.0 -0.2110415806
C  C190  1  0.87480000  0.41980000  0.01900000  1.0 -0.0312043704
C  C191  1  0.61830000  0.80240000  0.40830000  1.0 0.0695106266
C  C192  1  0.73930000  0.89460000  0.41590000  1.0 -0.0312043704
C  C193  1  0.66550000  0.86680000  0.48070000  1.0 0.1305414196
C  C194  1  0.64520000  0.89420000  0.46010000  1.0 -0.2110415806
C  C195  1  0.62520000  0.91980000  0.48100000  1.0 -0.0312043704
C  C196  1  0.11830000  0.30240000  0.90830000  1.0 0.0695106266
C  C197  1  0.23930000  0.39460000  0.91590000  1.0 -0.0312043704
C  C198  1  0.16550000  0.36680000  0.98070000  1.0 0.1305414196
C  C199  1  0.14520000  0.39420000  0.96010000  1.0 -0.2110415806
C  C200  1  0.12520000  0.41980000  0.98100000  1.0 -0.0312043704
C  C201  1  0.19760000  0.40830000  0.38170000  1.0 0.0695106266
C  C202  1  0.10540000  0.41590000  0.26070000  1.0 -0.0312043704
C  C203  1  0.13320000  0.48070000  0.33450000  1.0 0.1305414196
C  C204  1  0.10580000  0.46010000  0.35480000  1.0 -0.2110415806
C  C205  1  0.08020000  0.48100000  0.37480000  1.0 -0.0312043704
C  C206  1  0.69760000  0.90830000  0.88170000  1.0 0.0695106266
C  C207  1  0.60540000  0.91590000  0.76070000  1.0 -0.0312043704
C  C208  1  0.63320000  0.98070000  0.83450000  1.0 0.1305414196
C  C209  1  0.60580000  0.96010000  0.85480000  1.0 -0.2110415806
C  C210  1  0.58020000  0.98100000  0.87480000  1.0 -0.0312043704
C  C211  1  0.19760000  0.59170000  0.61830000  1.0 0.0695106266
C  C212  1  0.10540000  0.58410000  0.73930000  1.0 -0.0312043704
C  C213  1  0.13320000  0.51930000  0.66550000  1.0 0.1305414196
C  C214  1  0.10580000  0.53990000  0.64520000  1.0 -0.2110415806
C  C215  1  0.08020000  0.51900000  0.62520000  1.0 -0.0312043704
C  C216  1  0.69760000  0.09170000  0.11830000  1.0 0.0695106266
C  C217  1  0.60540000  0.08410000  0.23930000  1.0 -0.0312043704
C  C218  1  0.63320000  0.01930000  0.16550000  1.0 0.1305414196
C  C219  1  0.60580000  0.03990000  0.14520000  1.0 -0.2110415806
C  C220  1  0.58020000  0.01900000  0.12520000  1.0 -0.0312043704
C  C221  1  0.80240000  0.40830000  0.61830000  1.0 0.0695106266
C  C222  1  0.89460000  0.41590000  0.73930000  1.0 -0.0312043704
C  C223  1  0.86680000  0.48070000  0.66550000  1.0 0.1305414196
C  C224  1  0.89420000  0.46010000  0.64520000  1.0 -0.2110415806
C  C225  1  0.91980000  0.48100000  0.62520000  1.0 -0.0312043704
C  C226  1  0.30240000  0.90830000  0.11830000  1.0 0.0695106266
C  C227  1  0.39460000  0.91590000  0.23930000  1.0 -0.0312043704
C  C228  1  0.36680000  0.98070000  0.16550000  1.0 0.1305414196
C  C229  1  0.39420000  0.96010000  0.14520000  1.0 -0.2110415806
C  C230  1  0.41980000  0.98100000  0.12520000  1.0 -0.0312043704
C  C231  1  0.80240000  0.59170000  0.38170000  1.0 0.0695106266
C  C232  1  0.89460000  0.58410000  0.26070000  1.0 -0.0312043704
C  C233  1  0.86680000  0.51930000  0.33450000  1.0 0.1305414196
C  C234  1  0.89420000  0.53990000  0.35480000  1.0 -0.2110415806
C  C235  1  0.91980000  0.51900000  0.37480000  1.0 -0.0312043704
C  C236  1  0.30240000  0.09170000  0.88170000  1.0 0.0695106266
C  C237  1  0.39460000  0.08410000  0.76070000  1.0 -0.0312043704
C  C238  1  0.36680000  0.01930000  0.83450000  1.0 0.1305414196
C  C239  1  0.39420000  0.03990000  0.85480000  1.0 -0.2110415806
C  C240  1  0.41980000  0.01900000  0.87480000  1.0 -0.0312043704
C  C241  1  0.38170000  0.59170000  0.80240000  1.0 0.0695106266
C  C242  1  0.26070000  0.58410000  0.89460000  1.0 -0.0312043704
C  C243  1  0.33450000  0.51930000  0.86680000  1.0 0.1305414196
C  C244  1  0.35480000  0.53990000  0.89420000  1.0 -0.2110415806
C  C245  1  0.37480000  0.51900000  0.91980000  1.0 -0.0312043704
C  C246  1  0.88170000  0.09170000  0.30240000  1.0 0.0695106266
C  C247  1  0.76070000  0.08410000  0.39460000  1.0 -0.0312043704
C  C248  1  0.83450000  0.01930000  0.36680000  1.0 0.1305414196
C  C249  1  0.85480000  0.03990000  0.39420000  1.0 -0.2110415806
C  C250  1  0.87480000  0.01900000  0.41980000  1.0 -0.0312043704
C  C251  1  0.61830000  0.40830000  0.80240000  1.0 0.0695106266
C  C252  1  0.73930000  0.41590000  0.89460000  1.0 -0.0312043704
C  C253  1  0.66550000  0.48070000  0.86680000  1.0 0.1305414196
C  C254  1  0.64520000  0.46010000  0.89420000  1.0 -0.2110415806
C  C255  1  0.62520000  0.48100000  0.91980000  1.0 -0.0312043704
C  C256  1  0.11830000  0.90830000  0.30240000  1.0 0.0695106266
C  C257  1  0.23930000  0.91590000  0.39460000  1.0 -0.0312043704
C  C258  1  0.16550000  0.98070000  0.36680000  1.0 0.1305414196
C  C259  1  0.14520000  0.96010000  0.39420000  1.0 -0.2110415806
C  C260  1  0.12520000  0.98100000  0.41980000  1.0 -0.0312043704
C  C261  1  0.61830000  0.59170000  0.19760000  1.0 0.0695106266
C  C262  1  0.73930000  0.58410000  0.10540000  1.0 -0.0312043704
C  C263  1  0.66550000  0.51930000  0.13320000  1.0 0.1305414196
C  C264  1  0.64520000  0.53990000  0.10580000  1.0 -0.2110415806
C  C265  1  0.62520000  0.51900000  0.08020000  1.0 -0.0312043704
C  C266  1  0.11830000  0.09170000  0.69760000  1.0 0.0695106266
C  C267  1  0.23930000  0.08410000  0.60540000  1.0 -0.0312043704
C  C268  1  0.16550000  0.01930000  0.63320000  1.0 0.1305414196
C  C269  1  0.14520000  0.03990000  0.60580000  1.0 -0.2110415806
C  C270  1  0.12520000  0.01900000  0.58020000  1.0 -0.0312043704
C  C271  1  0.38170000  0.40830000  0.19760000  1.0 0.0695106266
C  C272  1  0.26070000  0.41590000  0.10540000  1.0 -0.0312043704
C  C273  1  0.33450000  0.48070000  0.13320000  1.0 0.1305414196
C  C274  1  0.35480000  0.46010000  0.10580000  1.0 -0.2110415806
C  C275  1  0.37480000  0.48100000  0.08020000  1.0 -0.0312043704
C  C276  1  0.88170000  0.90830000  0.69760000  1.0 0.0695106266
C  C277  1  0.76070000  0.91590000  0.60540000  1.0 -0.0312043704
C  C278  1  0.83450000  0.98070000  0.63320000  1.0 0.1305414196
C  C279  1  0.85480000  0.96010000  0.60580000  1.0 -0.2110415806
C  C280  1  0.87480000  0.98100000  0.58020000  1.0 -0.0312043704
C  C281  1  0.80240000  0.38170000  0.59170000  1.0 0.0695106266
C  C282  1  0.89460000  0.26070000  0.58410000  1.0 -0.0312043704
C  C283  1  0.86680000  0.33450000  0.51930000  1.0 0.1305414196
C  C284  1  0.89420000  0.35480000  0.53990000  1.0 -0.2110415806
C  C285  1  0.91980000  0.37480000  0.51900000  1.0 -0.0312043704
C  C286  1  0.30240000  0.88170000  0.09170000  1.0 0.0695106266
C  C287  1  0.39460000  0.76070000  0.08410000  1.0 -0.0312043704
C  C288  1  0.36680000  0.83450000  0.01930000  1.0 0.1305414196
C  C289  1  0.39420000  0.85480000  0.03990000  1.0 -0.2110415806
C  C290  1  0.41980000  0.87480000  0.01900000  1.0 -0.0312043704
C  C291  1  0.80240000  0.61830000  0.40830000  1.0 0.0695106266
C  C292  1  0.89460000  0.73930000  0.41590000  1.0 -0.0312043704
C  C293  1  0.86680000  0.66550000  0.48070000  1.0 0.1305414196
C  C294  1  0.89420000  0.64520000  0.46010000  1.0 -0.2110415806
C  C295  1  0.91980000  0.62520000  0.48100000  1.0 -0.0312043704
C  C296  1  0.30240000  0.11830000  0.90830000  1.0 0.0695106266
C  C297  1  0.39460000  0.23930000  0.91590000  1.0 -0.0312043704
C  C298  1  0.36680000  0.16550000  0.98070000  1.0 0.1305414196
C  C299  1  0.39420000  0.14520000  0.96010000  1.0 -0.2110415806
C  C300  1  0.41980000  0.12520000  0.98100000  1.0 -0.0312043704
C  C301  1  0.19760000  0.61830000  0.59170000  1.0 0.0695106266
C  C302  1  0.10540000  0.73930000  0.58410000  1.0 -0.0312043704
C  C303  1  0.13320000  0.66550000  0.51930000  1.0 0.1305414196
C  C304  1  0.10580000  0.64520000  0.53990000  1.0 -0.2110415806
C  C305  1  0.08020000  0.62520000  0.51900000  1.0 -0.0312043704
C  C306  1  0.69760000  0.11830000  0.09170000  1.0 0.0695106266
C  C307  1  0.60540000  0.23930000  0.08410000  1.0 -0.0312043704
C  C308  1  0.63320000  0.16550000  0.01930000  1.0 0.1305414196
C  C309  1  0.60580000  0.14520000  0.03990000  1.0 -0.2110415806
C  C310  1  0.58020000  0.12520000  0.01900000  1.0 -0.0312043704
C  C311  1  0.19760000  0.38170000  0.40830000  1.0 0.0695106266
C  C312  1  0.10540000  0.26070000  0.41590000  1.0 -0.0312043704
C  C313  1  0.13320000  0.33450000  0.48070000  1.0 0.1305414196
C  C314  1  0.10580000  0.35480000  0.46010000  1.0 -0.2110415806
C  C315  1  0.08020000  0.37480000  0.48100000  1.0 -0.0312043704
C  C316  1  0.69760000  0.88170000  0.90830000  1.0 0.0695106266
C  C317  1  0.60540000  0.76070000  0.91590000  1.0 -0.0312043704
C  C318  1  0.63320000  0.83450000  0.98070000  1.0 0.1305414196
C  C319  1  0.60580000  0.85480000  0.96010000  1.0 -0.2110415806
C  C320  1  0.58020000  0.87480000  0.98100000  1.0 -0.0312043704
C  C321  1  0.59170000  0.80240000  0.38170000  1.0 0.0695106266
C  C322  1  0.58410000  0.89460000  0.26070000  1.0 -0.0312043704
C  C323  1  0.51930000  0.86680000  0.33450000  1.0 0.1305414196
C  C324  1  0.53990000  0.89420000  0.35480000  1.0 -0.2110415806
C  C325  1  0.51900000  0.91980000  0.37480000  1.0 -0.0312043704
C  C326  1  0.09170000  0.30240000  0.88170000  1.0 0.0695106266
C  C327  1  0.08410000  0.39460000  0.76070000  1.0 -0.0312043704
C  C328  1  0.01930000  0.36680000  0.83450000  1.0 0.1305414196
C  C329  1  0.03990000  0.39420000  0.85480000  1.0 -0.2110415806
C  C330  1  0.01900000  0.41980000  0.87480000  1.0 -0.0312043704
C  C331  1  0.40830000  0.80240000  0.61830000  1.0 0.0695106266
C  C332  1  0.41590000  0.89460000  0.73930000  1.0 -0.0312043704
C  C333  1  0.48070000  0.86680000  0.66550000  1.0 0.1305414196
C  C334  1  0.46010000  0.89420000  0.64520000  1.0 -0.2110415806
C  C335  1  0.48100000  0.91980000  0.62520000  1.0 -0.0312043704
C  C336  1  0.90830000  0.30240000  0.11830000  1.0 0.0695106266
C  C337  1  0.91590000  0.39460000  0.23930000  1.0 -0.0312043704
C  C338  1  0.98070000  0.36680000  0.16550000  1.0 0.1305414196
C  C339  1  0.96010000  0.39420000  0.14520000  1.0 -0.2110415806
C  C340  1  0.98100000  0.41980000  0.12520000  1.0 -0.0312043704
C  C341  1  0.59170000  0.19760000  0.61830000  1.0 0.0695106266
C  C342  1  0.58410000  0.10540000  0.73930000  1.0 -0.0312043704
C  C343  1  0.51930000  0.13320000  0.66550000  1.0 0.1305414196
C  C344  1  0.53990000  0.10580000  0.64520000  1.0 -0.2110415806
C  C345  1  0.51900000  0.08020000  0.62520000  1.0 -0.0312043704
C  C346  1  0.09170000  0.69760000  0.11830000  1.0 0.0695106266
C  C347  1  0.08410000  0.60540000  0.23930000  1.0 -0.0312043704
C  C348  1  0.01930000  0.63320000  0.16550000  1.0 0.1305414196
C  C349  1  0.03990000  0.60580000  0.14520000  1.0 -0.2110415806
C  C350  1  0.01900000  0.58020000  0.12520000  1.0 -0.0312043704
C  C351  1  0.40830000  0.19760000  0.38170000  1.0 0.0695106266
C  C352  1  0.41590000  0.10540000  0.26070000  1.0 -0.0312043704
C  C353  1  0.48070000  0.13320000  0.33450000  1.0 0.1305414196
C  C354  1  0.46010000  0.10580000  0.35480000  1.0 -0.2110415806
C  C355  1  0.48100000  0.08020000  0.37480000  1.0 -0.0312043704
C  C356  1  0.90830000  0.69760000  0.88170000  1.0 0.0695106266
C  C357  1  0.91590000  0.60540000  0.76070000  1.0 -0.0312043704
C  C358  1  0.98070000  0.63320000  0.83450000  1.0 0.1305414196
C  C359  1  0.96010000  0.60580000  0.85480000  1.0 -0.2110415806
C  C360  1  0.98100000  0.58020000  0.87480000  1.0 -0.0312043704
C  C361  1  0.59170000  0.38170000  0.19760000  1.0 0.0695106266
C  C362  1  0.58410000  0.26070000  0.10540000  1.0 -0.0312043704
C  C363  1  0.51930000  0.33450000  0.13320000  1.0 0.1305414196
C  C364  1  0.53990000  0.35480000  0.10580000  1.0 -0.2110415806
C  C365  1  0.51900000  0.37480000  0.08020000  1.0 -0.0312043704
C  C366  1  0.09170000  0.88170000  0.69760000  1.0 0.0695106266
C  C367  1  0.08410000  0.76070000  0.60540000  1.0 -0.0312043704
C  C368  1  0.01930000  0.83450000  0.63320000  1.0 0.1305414196
C  C369  1  0.03990000  0.85480000  0.60580000  1.0 -0.2110415806
C  C370  1  0.01900000  0.87480000  0.58020000  1.0 -0.0312043704
C  C371  1  0.40830000  0.61830000  0.19760000  1.0 0.0695106266
C  C372  1  0.41590000  0.73930000  0.10540000  1.0 -0.0312043704
C  C373  1  0.48070000  0.66550000  0.13320000  1.0 0.1305414196
C  C374  1  0.46010000  0.64520000  0.10580000  1.0 -0.2110415806
C  C375  1  0.48100000  0.62520000  0.08020000  1.0 -0.0312043704
C  C376  1  0.90830000  0.11830000  0.69760000  1.0 0.0695106266
C  C377  1  0.91590000  0.23930000  0.60540000  1.0 -0.0312043704
C  C378  1  0.98070000  0.16550000  0.63320000  1.0 0.1305414196
C  C379  1  0.96010000  0.14520000  0.60580000  1.0 -0.2110415806
C  C380  1  0.98100000  0.12520000  0.58020000  1.0 -0.0312043704
C  C381  1  0.59170000  0.61830000  0.80240000  1.0 0.0695106266
C  C382  1  0.58410000  0.73930000  0.89460000  1.0 -0.0312043704
C  C383  1  0.51930000  0.66550000  0.86680000  1.0 0.1305414196
C  C384  1  0.53990000  0.64520000  0.89420000  1.0 -0.2110415806
C  C385  1  0.51900000  0.62520000  0.91980000  1.0 -0.0312043704
C  C386  1  0.09170000  0.11830000  0.30240000  1.0 0.0695106266
C  C387  1  0.08410000  0.23930000  0.39460000  1.0 -0.0312043704
C  C388  1  0.01930000  0.16550000  0.36680000  1.0 0.1305414196
C  C389  1  0.03990000  0.14520000  0.39420000  1.0 -0.2110415806
C  C390  1  0.01900000  0.12520000  0.41980000  1.0 -0.0312043704
C  C391  1  0.40830000  0.38170000  0.80240000  1.0 0.0695106266
C  C392  1  0.41590000  0.26070000  0.89460000  1.0 -0.0312043704
C  C393  1  0.48070000  0.33450000  0.86680000  1.0 0.1305414196
C  C394  1  0.46010000  0.35480000  0.89420000  1.0 -0.2110415806
C  C395  1  0.48100000  0.37480000  0.91980000  1.0 -0.0312043704
C  C396  1  0.90830000  0.88170000  0.30240000  1.0 0.0695106266
C  C397  1  0.91590000  0.76070000  0.39460000  1.0 -0.0312043704
C  C398  1  0.98070000  0.83450000  0.36680000  1.0 0.1305414196
C  C399  1  0.96010000  0.85480000  0.39420000  1.0 -0.2110415806
C  C400  1  0.98100000  0.87480000  0.41980000  1.0 -0.0312043704
C  C401  1  0.38170000  0.80240000  0.40830000  1.0 0.0695106266
C  C402  1  0.26070000  0.89460000  0.41590000  1.0 -0.0312043704
C  C403  1  0.33450000  0.86680000  0.48070000  1.0 0.1305414196
C  C404  1  0.35480000  0.89420000  0.46010000  1.0 -0.2110415806
C  C405  1  0.37480000  0.91980000  0.48100000  1.0 -0.0312043704
C  C406  1  0.88170000  0.30240000  0.90830000  1.0 0.0695106266
C  C407  1  0.76070000  0.39460000  0.91590000  1.0 -0.0312043704
C  C408  1  0.83450000  0.36680000  0.98070000  1.0 0.1305414196
C  C409  1  0.85480000  0.39420000  0.96010000  1.0 -0.2110415806
C  C410  1  0.87480000  0.41980000  0.98100000  1.0 -0.0312043704
C  C411  1  0.61830000  0.80240000  0.59170000  1.0 0.0695106266
C  C412  1  0.73930000  0.89460000  0.58410000  1.0 -0.0312043704
C  C413  1  0.66550000  0.86680000  0.51930000  1.0 0.1305414196
C  C414  1  0.64520000  0.89420000  0.53990000  1.0 -0.2110415806
C  C415  1  0.62520000  0.91980000  0.51900000  1.0 -0.0312043704
C  C416  1  0.11830000  0.30240000  0.09170000  1.0 0.0695106266
C  C417  1  0.23930000  0.39460000  0.08410000  1.0 -0.0312043704
C  C418  1  0.16550000  0.36680000  0.01930000  1.0 0.1305414196
C  C419  1  0.14520000  0.39420000  0.03990000  1.0 -0.2110415806
C  C420  1  0.12520000  0.41980000  0.01900000  1.0 -0.0312043704
C  C421  1  0.61830000  0.19760000  0.40830000  1.0 0.0695106266
C  C422  1  0.73930000  0.10540000  0.41590000  1.0 -0.0312043704
C  C423  1  0.66550000  0.13320000  0.48070000  1.0 0.1305414196
C  C424  1  0.64520000  0.10580000  0.46010000  1.0 -0.2110415806
C  C425  1  0.62520000  0.08020000  0.48100000  1.0 -0.0312043704
C  C426  1  0.11830000  0.69760000  0.90830000  1.0 0.0695106266
C  C427  1  0.23930000  0.60540000  0.91590000  1.0 -0.0312043704
C  C428  1  0.16550000  0.63320000  0.98070000  1.0 0.1305414196
C  C429  1  0.14520000  0.60580000  0.96010000  1.0 -0.2110415806
C  C430  1  0.12520000  0.58020000  0.98100000  1.0 -0.0312043704
C  C431  1  0.38170000  0.19760000  0.59170000  1.0 0.0695106266
C  C432  1  0.26070000  0.10540000  0.58410000  1.0 -0.0312043704
C  C433  1  0.33450000  0.13320000  0.51930000  1.0 0.1305414196
C  C434  1  0.35480000  0.10580000  0.53990000  1.0 -0.2110415806
C  C435  1  0.37480000  0.08020000  0.51900000  1.0 -0.0312043704
C  C436  1  0.88170000  0.69760000  0.09170000  1.0 0.0695106266
C  C437  1  0.76070000  0.60540000  0.08410000  1.0 -0.0312043704
C  C438  1  0.83450000  0.63320000  0.01930000  1.0 0.1305414196
C  C439  1  0.85480000  0.60580000  0.03990000  1.0 -0.2110415806
C  C440  1  0.87480000  0.58020000  0.01900000  1.0 -0.0312043704
C  C441  1  0.80240000  0.59170000  0.61830000  1.0 0.0695106266
C  C442  1  0.89460000  0.58410000  0.73930000  1.0 -0.0312043704
C  C443  1  0.86680000  0.51930000  0.66550000  1.0 0.1305414196
C  C444  1  0.89420000  0.53990000  0.64520000  1.0 -0.2110415806
C  C445  1  0.91980000  0.51900000  0.62520000  1.0 -0.0312043704
C  C446  1  0.30240000  0.09170000  0.11830000  1.0 0.0695106266
C  C447  1  0.39460000  0.08410000  0.23930000  1.0 -0.0312043704
C  C448  1  0.36680000  0.01930000  0.16550000  1.0 0.1305414196
C  C449  1  0.39420000  0.03990000  0.14520000  1.0 -0.2110415806
C  C450  1  0.41980000  0.01900000  0.12520000  1.0 -0.0312043704
C  C451  1  0.80240000  0.40830000  0.38170000  1.0 0.0695106266
C  C452  1  0.89460000  0.41590000  0.26070000  1.0 -0.0312043704
C  C453  1  0.86680000  0.48070000  0.33450000  1.0 0.1305414196
C  C454  1  0.89420000  0.46010000  0.35480000  1.0 -0.2110415806
C  C455  1  0.91980000  0.48100000  0.37480000  1.0 -0.0312043704
C  C456  1  0.30240000  0.90830000  0.88170000  1.0 0.0695106266
C  C457  1  0.39460000  0.91590000  0.76070000  1.0 -0.0312043704
C  C458  1  0.36680000  0.98070000  0.83450000  1.0 0.1305414196
C  C459  1  0.39420000  0.96010000  0.85480000  1.0 -0.2110415806
C  C460  1  0.41980000  0.98100000  0.87480000  1.0 -0.0312043704
C  C461  1  0.19760000  0.59170000  0.38170000  1.0 0.0695106266
C  C462  1  0.10540000  0.58410000  0.26070000  1.0 -0.0312043704
C  C463  1  0.13320000  0.51930000  0.33450000  1.0 0.1305414196
C  C464  1  0.10580000  0.53990000  0.35480000  1.0 -0.2110415806
C  C465  1  0.08020000  0.51900000  0.37480000  1.0 -0.0312043704
C  C466  1  0.69760000  0.09170000  0.88170000  1.0 0.0695106266
C  C467  1  0.60540000  0.08410000  0.76070000  1.0 -0.0312043704
C  C468  1  0.63320000  0.01930000  0.83450000  1.0 0.1305414196
C  C469  1  0.60580000  0.03990000  0.85480000  1.0 -0.2110415806
C  C470  1  0.58020000  0.01900000  0.87480000  1.0 -0.0312043704
C  C471  1  0.19760000  0.40830000  0.61830000  1.0 0.0695106266
C  C472  1  0.10540000  0.41590000  0.73930000  1.0 -0.0312043704
C  C473  1  0.13320000  0.48070000  0.66550000  1.0 0.1305414196
C  C474  1  0.10580000  0.46010000  0.64520000  1.0 -0.2110415806
C  C475  1  0.08020000  0.48100000  0.62520000  1.0 -0.0312043704
C  C476  1  0.69760000  0.90830000  0.11830000  1.0 0.0695106266
C  C477  1  0.60540000  0.91590000  0.23930000  1.0 -0.0312043704
C  C478  1  0.63320000  0.98070000  0.16550000  1.0 0.1305414196
C  C479  1  0.60580000  0.96010000  0.14520000  1.0 -0.2110415806
C  C480  1  0.58020000  0.98100000  0.12520000  1.0 -0.0312043704
C  C481  1  0.75000000  0.36630000  0.13370000  1.0 0.3127916797
C  C482  1  0.25000000  0.63370000  0.13370000  1.0 0.3127916797
C  C483  1  0.25000000  0.36630000  0.86630000  1.0 0.3127916797
C  C484  1  0.75000000  0.63370000  0.86630000  1.0 0.3127916797
C  C485  1  0.13370000  0.75000000  0.36630000  1.0 0.3127916797
C  C486  1  0.13370000  0.25000000  0.63370000  1.0 0.3127916797
C  C487  1  0.86630000  0.25000000  0.36630000  1.0 0.3127916797
C  C488  1  0.86630000  0.75000000  0.63370000  1.0 0.3127916797
C  C489  1  0.36630000  0.13370000  0.75000000  1.0 0.3127916797
C  C490  1  0.63370000  0.13370000  0.25000000  1.0 0.3127916797
C  C491  1  0.36630000  0.86630000  0.25000000  1.0 0.3127916797
C  C492  1  0.63370000  0.86630000  0.75000000  1.0 0.3127916797
C  C493  1  0.36630000  0.75000000  0.86630000  1.0 0.3127916797
C  C494  1  0.63370000  0.25000000  0.86630000  1.0 0.3127916797
C  C495  1  0.36630000  0.25000000  0.13370000  1.0 0.3127916797
C  C496  1  0.63370000  0.75000000  0.13370000  1.0 0.3127916797
C  C497  1  0.75000000  0.13370000  0.63370000  1.0 0.3127916797
C  C498  1  0.25000000  0.13370000  0.36630000  1.0 0.3127916797
C  C499  1  0.25000000  0.86630000  0.63370000  1.0 0.3127916797
C  C500  1  0.75000000  0.86630000  0.36630000  1.0 0.3127916797
C  C501  1  0.13370000  0.36630000  0.25000000  1.0 0.3127916797
C  C502  1  0.13370000  0.63370000  0.75000000  1.0 0.3127916797
C  C503  1  0.86630000  0.36630000  0.75000000  1.0 0.3127916797
C  C504  1  0.86630000  0.63370000  0.25000000  1.0 0.3127916797
C  C505  1  0.25000000  0.63370000  0.86630000  1.0 0.3127916797
C  C506  1  0.75000000  0.36630000  0.86630000  1.0 0.3127916797
C  C507  1  0.75000000  0.63370000  0.13370000  1.0 0.3127916797
C  C508  1  0.25000000  0.36630000  0.13370000  1.0 0.3127916797
C  C509  1  0.86630000  0.25000000  0.63370000  1.0 0.3127916797
C  C510  1  0.86630000  0.75000000  0.36630000  1.0 0.3127916797
C  C511  1  0.13370000  0.75000000  0.63370000  1.0 0.3127916797
C  C512  1  0.13370000  0.25000000  0.36630000  1.0 0.3127916797
C  C513  1  0.63370000  0.86630000  0.25000000  1.0 0.3127916797
C  C514  1  0.36630000  0.86630000  0.75000000  1.0 0.3127916797
C  C515  1  0.63370000  0.13370000  0.75000000  1.0 0.3127916797
C  C516  1  0.36630000  0.13370000  0.25000000  1.0 0.3127916797
C  C517  1  0.63370000  0.25000000  0.13370000  1.0 0.3127916797
C  C518  1  0.36630000  0.75000000  0.13370000  1.0 0.3127916797
C  C519  1  0.63370000  0.75000000  0.86630000  1.0 0.3127916797
C  C520  1  0.36630000  0.25000000  0.86630000  1.0 0.3127916797
C  C521  1  0.25000000  0.86630000  0.36630000  1.0 0.3127916797
C  C522  1  0.75000000  0.86630000  0.63370000  1.0 0.3127916797
C  C523  1  0.75000000  0.13370000  0.36630000  1.0 0.3127916797
C  C524  1  0.25000000  0.13370000  0.63370000  1.0 0.3127916797
C  C525  1  0.86630000  0.63370000  0.75000000  1.0 0.3127916797
C  C526  1  0.86630000  0.36630000  0.25000000  1.0 0.3127916797
C  C527  1  0.13370000  0.63370000  0.25000000  1.0 0.3127916797
C  C528  1  0.13370000  0.36630000  0.75000000  1.0 0.3127916797
C  C529  1  0.64210000  0.35790000  0.17960000  1.0 0.1716822375
C  C530  1  0.14210000  0.85790000  0.67960000  1.0 0.1716822375
C  C531  1  0.35790000  0.64210000  0.17960000  1.0 0.1716822375
C  C532  1  0.85790000  0.14210000  0.67960000  1.0 0.1716822375
C  C533  1  0.35790000  0.35790000  0.82040000  1.0 0.1716822375
C  C534  1  0.85790000  0.85790000  0.32040000  1.0 0.1716822375
C  C535  1  0.64210000  0.64210000  0.82040000  1.0 0.1716822375
C  C536  1  0.14210000  0.14210000  0.32040000  1.0 0.1716822375
C  C537  1  0.17960000  0.64210000  0.35790000  1.0 0.1716822375
C  C538  1  0.67960000  0.14210000  0.85790000  1.0 0.1716822375
C  C539  1  0.17960000  0.35790000  0.64210000  1.0 0.1716822375
C  C540  1  0.67960000  0.85790000  0.14210000  1.0 0.1716822375
C  C541  1  0.82040000  0.35790000  0.35790000  1.0 0.1716822375
C  C542  1  0.32040000  0.85790000  0.85790000  1.0 0.1716822375
C  C543  1  0.82040000  0.64210000  0.64210000  1.0 0.1716822375
C  C544  1  0.32040000  0.14210000  0.14210000  1.0 0.1716822375
C  C545  1  0.35790000  0.17960000  0.64210000  1.0 0.1716822375
C  C546  1  0.85790000  0.67960000  0.14210000  1.0 0.1716822375
C  C547  1  0.64210000  0.17960000  0.35790000  1.0 0.1716822375
C  C548  1  0.14210000  0.67960000  0.85790000  1.0 0.1716822375
C  C549  1  0.35790000  0.82040000  0.35790000  1.0 0.1716822375
C  C550  1  0.85790000  0.32040000  0.85790000  1.0 0.1716822375
C  C551  1  0.64210000  0.82040000  0.64210000  1.0 0.1716822375
C  C552  1  0.14210000  0.32040000  0.14210000  1.0 0.1716822375
C  C553  1  0.35790000  0.64210000  0.82040000  1.0 0.1716822375
C  C554  1  0.85790000  0.14210000  0.32040000  1.0 0.1716822375
C  C555  1  0.64210000  0.35790000  0.82040000  1.0 0.1716822375
C  C556  1  0.14210000  0.85790000  0.32040000  1.0 0.1716822375
C  C557  1  0.35790000  0.35790000  0.17960000  1.0 0.1716822375
C  C558  1  0.85790000  0.85790000  0.67960000  1.0 0.1716822375
C  C559  1  0.64210000  0.64210000  0.17960000  1.0 0.1716822375
C  C560  1  0.14210000  0.14210000  0.67960000  1.0 0.1716822375
C  C561  1  0.64210000  0.17960000  0.64210000  1.0 0.1716822375
C  C562  1  0.14210000  0.67960000  0.14210000  1.0 0.1716822375
C  C563  1  0.35790000  0.17960000  0.35790000  1.0 0.1716822375
C  C564  1  0.85790000  0.67960000  0.85790000  1.0 0.1716822375
C  C565  1  0.35790000  0.82040000  0.64210000  1.0 0.1716822375
C  C566  1  0.85790000  0.32040000  0.14210000  1.0 0.1716822375
C  C567  1  0.64210000  0.82040000  0.35790000  1.0 0.1716822375
C  C568  1  0.14210000  0.32040000  0.85790000  1.0 0.1716822375
C  C569  1  0.17960000  0.35790000  0.35790000  1.0 0.1716822375
C  C570  1  0.67960000  0.85790000  0.85790000  1.0 0.1716822375
C  C571  1  0.17960000  0.64210000  0.64210000  1.0 0.1716822375
C  C572  1  0.67960000  0.14210000  0.14210000  1.0 0.1716822375
C  C573  1  0.82040000  0.35790000  0.64210000  1.0 0.1716822375
C  C574  1  0.32040000  0.85790000  0.14210000  1.0 0.1716822375
C  C575  1  0.82040000  0.64210000  0.35790000  1.0 0.1716822375
C  C576  1  0.32040000  0.14210000  0.85790000  1.0 0.1716822375
C  C577  1  0.70090000  0.50000000  0.17770000  1.0 0.1305414196
C  C578  1  0.20090000  0.00000000  0.67770000  1.0 0.1305414196
C  C579  1  0.29910000  0.50000000  0.17770000  1.0 0.1305414196
C  C580  1  0.79910000  0.00000000  0.67770000  1.0 0.1305414196
C  C581  1  0.29910000  0.50000000  0.82230000  1.0 0.1305414196
C  C582  1  0.79910000  0.00000000  0.32230000  1.0 0.1305414196
C  C583  1  0.70090000  0.50000000  0.82230000  1.0 0.1305414196
C  C584  1  0.20090000  0.00000000  0.32230000  1.0 0.1305414196
C  C585  1  0.17770000  0.70090000  0.50000000  1.0 0.1305414196
C  C586  1  0.67770000  0.20090000  0.00000000  1.0 0.1305414196
C  C587  1  0.17770000  0.29910000  0.50000000  1.0 0.1305414196
C  C588  1  0.67770000  0.79910000  0.00000000  1.0 0.1305414196
C  C589  1  0.82230000  0.29910000  0.50000000  1.0 0.1305414196
C  C590  1  0.32230000  0.79910000  0.00000000  1.0 0.1305414196
C  C591  1  0.82230000  0.70090000  0.50000000  1.0 0.1305414196
C  C592  1  0.32230000  0.20090000  0.00000000  1.0 0.1305414196
C  C593  1  0.50000000  0.17770000  0.70090000  1.0 0.1305414196
C  C594  1  0.00000000  0.67770000  0.20090000  1.0 0.1305414196
C  C595  1  0.50000000  0.17770000  0.29910000  1.0 0.1305414196
C  C596  1  0.00000000  0.67770000  0.79910000  1.0 0.1305414196
C  C597  1  0.50000000  0.82230000  0.29910000  1.0 0.1305414196
C  C598  1  0.00000000  0.32230000  0.79910000  1.0 0.1305414196
C  C599  1  0.50000000  0.82230000  0.70090000  1.0 0.1305414196
C  C600  1  0.00000000  0.32230000  0.20090000  1.0 0.1305414196
C  C601  1  0.50000000  0.70090000  0.82230000  1.0 0.1305414196
C  C602  1  0.00000000  0.20090000  0.32230000  1.0 0.1305414196
C  C603  1  0.50000000  0.29910000  0.82230000  1.0 0.1305414196
C  C604  1  0.00000000  0.79910000  0.32230000  1.0 0.1305414196
C  C605  1  0.50000000  0.29910000  0.17770000  1.0 0.1305414196
C  C606  1  0.00000000  0.79910000  0.67770000  1.0 0.1305414196
C  C607  1  0.50000000  0.70090000  0.17770000  1.0 0.1305414196
C  C608  1  0.00000000  0.20090000  0.67770000  1.0 0.1305414196
C  C609  1  0.70090000  0.17770000  0.50000000  1.0 0.1305414196
C  C610  1  0.20090000  0.67770000  0.00000000  1.0 0.1305414196
C  C611  1  0.29910000  0.17770000  0.50000000  1.0 0.1305414196
C  C612  1  0.79910000  0.67770000  0.00000000  1.0 0.1305414196
C  C613  1  0.29910000  0.82230000  0.50000000  1.0 0.1305414196
C  C614  1  0.79910000  0.32230000  0.00000000  1.0 0.1305414196
C  C615  1  0.70090000  0.82230000  0.50000000  1.0 0.1305414196
C  C616  1  0.20090000  0.32230000  0.00000000  1.0 0.1305414196
C  C617  1  0.17770000  0.50000000  0.29910000  1.0 0.1305414196
C  C618  1  0.67770000  0.00000000  0.79910000  1.0 0.1305414196
C  C619  1  0.17770000  0.50000000  0.70090000  1.0 0.1305414196
C  C620  1  0.67770000  0.00000000  0.20090000  1.0 0.1305414196
C  C621  1  0.82230000  0.50000000  0.70090000  1.0 0.1305414196
C  C622  1  0.32230000  0.00000000  0.20090000  1.0 0.1305414196
C  C623  1  0.82230000  0.50000000  0.29910000  1.0 0.1305414196
C  C624  1  0.32230000  0.00000000  0.79910000  1.0 0.1305414196
C  C625  1  0.76320000  0.41870000  0.23680000  1.0 -0.0361363668
C  C626  1  0.26320000  0.91870000  0.73680000  1.0 -0.0361363668
C  C627  1  0.23680000  0.58130000  0.23680000  1.0 -0.0361363668
C  C628  1  0.73680000  0.08130000  0.73680000  1.0 -0.0361363668
C  C629  1  0.23680000  0.41870000  0.76320000  1.0 -0.0361363668
C  C630  1  0.73680000  0.91870000  0.26320000  1.0 -0.0361363668
C  C631  1  0.76320000  0.58130000  0.76320000  1.0 -0.0361363668
C  C632  1  0.26320000  0.08130000  0.26320000  1.0 -0.0361363668
C  C633  1  0.23680000  0.76320000  0.41870000  1.0 -0.0361363668
C  C634  1  0.73680000  0.26320000  0.91870000  1.0 -0.0361363668
C  C635  1  0.23680000  0.23680000  0.58130000  1.0 -0.0361363668
C  C636  1  0.73680000  0.73680000  0.08130000  1.0 -0.0361363668
C  C637  1  0.76320000  0.23680000  0.41870000  1.0 -0.0361363668
C  C638  1  0.26320000  0.73680000  0.91870000  1.0 -0.0361363668
C  C639  1  0.76320000  0.76320000  0.58130000  1.0 -0.0361363668
C  C640  1  0.26320000  0.26320000  0.08130000  1.0 -0.0361363668
C  C641  1  0.41870000  0.23680000  0.76320000  1.0 -0.0361363668
C  C642  1  0.91870000  0.73680000  0.26320000  1.0 -0.0361363668
C  C643  1  0.58130000  0.23680000  0.23680000  1.0 -0.0361363668
C  C644  1  0.08130000  0.73680000  0.73680000  1.0 -0.0361363668
C  C645  1  0.41870000  0.76320000  0.23680000  1.0 -0.0361363668
C  C646  1  0.91870000  0.26320000  0.73680000  1.0 -0.0361363668
C  C647  1  0.58130000  0.76320000  0.76320000  1.0 -0.0361363668
C  C648  1  0.08130000  0.26320000  0.26320000  1.0 -0.0361363668
C  C649  1  0.41870000  0.76320000  0.76320000  1.0 -0.0361363668
C  C650  1  0.91870000  0.26320000  0.26320000  1.0 -0.0361363668
C  C651  1  0.58130000  0.23680000  0.76320000  1.0 -0.0361363668
C  C652  1  0.08130000  0.73680000  0.26320000  1.0 -0.0361363668
C  C653  1  0.41870000  0.23680000  0.23680000  1.0 -0.0361363668
C  C654  1  0.91870000  0.73680000  0.73680000  1.0 -0.0361363668
C  C655  1  0.58130000  0.76320000  0.23680000  1.0 -0.0361363668
C  C656  1  0.08130000  0.26320000  0.73680000  1.0 -0.0361363668
C  C657  1  0.76320000  0.23680000  0.58130000  1.0 -0.0361363668
C  C658  1  0.26320000  0.73680000  0.08130000  1.0 -0.0361363668
C  C659  1  0.23680000  0.23680000  0.41870000  1.0 -0.0361363668
C  C660  1  0.73680000  0.73680000  0.91870000  1.0 -0.0361363668
C  C661  1  0.23680000  0.76320000  0.58130000  1.0 -0.0361363668
C  C662  1  0.73680000  0.26320000  0.08130000  1.0 -0.0361363668
C  C663  1  0.76320000  0.76320000  0.41870000  1.0 -0.0361363668
C  C664  1  0.26320000  0.26320000  0.91870000  1.0 -0.0361363668
C  C665  1  0.23680000  0.41870000  0.23680000  1.0 -0.0361363668
C  C666  1  0.73680000  0.91870000  0.73680000  1.0 -0.0361363668
C  C667  1  0.23680000  0.58130000  0.76320000  1.0 -0.0361363668
C  C668  1  0.73680000  0.08130000  0.26320000  1.0 -0.0361363668
C  C669  1  0.76320000  0.41870000  0.76320000  1.0 -0.0361363668
C  C670  1  0.26320000  0.91870000  0.26320000  1.0 -0.0361363668
C  C671  1  0.76320000  0.58130000  0.23680000  1.0 -0.0361363668
C  C672  1  0.26320000  0.08130000  0.73680000  1.0 -0.0361363668
C  C673  1  0.71290000  0.44840000  0.25750000  0.5 0.0695106266
C  C674  1  0.67700000  0.46460000  0.26320000  0.5 -0.2417211818
C  C675  1  0.67380000  0.48310000  0.29990000  0.5 -0.0116506195
C  C676  1  0.61110000  0.44490000  0.21480000  0.5 -0.2500360344
C  C677  1  0.57370000  0.45440000  0.22690000  0.5 -0.0033792348
C  C678  1  0.70940000  0.43160000  0.26290000  0.5 0.0695106266
C  C679  1  0.21290000  0.94840000  0.75750000  0.5 0.0695106266
C  C680  1  0.17700000  0.96460000  0.76320000  0.5 -0.2417211818
C  C681  1  0.17380000  0.98310000  0.79990000  0.5 -0.0116506195
C  C682  1  0.11110000  0.94490000  0.71480000  0.5 -0.2500360344
C  C683  1  0.07370000  0.95440000  0.72690000  0.5 -0.0033792348
C  C684  1  0.20940000  0.93160000  0.76290000  0.5 0.0695106266
C  C685  1  0.28710000  0.55160000  0.25750000  0.5 0.0695106266
C  C686  1  0.32300000  0.53540000  0.26320000  0.5 -0.2417211818
C  C687  1  0.32620000  0.51690000  0.29990000  0.5 -0.0116506195
C  C688  1  0.38890000  0.55510000  0.21480000  0.5 -0.2500360344
C  C689  1  0.42630000  0.54560000  0.22690000  0.5 -0.0033792348
C  C690  1  0.29060000  0.56840000  0.26290000  0.5 0.0695106266
C  C691  1  0.78710000  0.05160000  0.75750000  0.5 0.0695106266
C  C692  1  0.82300000  0.03540000  0.76320000  0.5 -0.2417211818
C  C693  1  0.82620000  0.01690000  0.79990000  0.5 -0.0116506195
C  C694  1  0.88890000  0.05510000  0.71480000  0.5 -0.2500360344
C  C695  1  0.92630000  0.04560000  0.72690000  0.5 -0.0033792348
C  C696  1  0.79060000  0.06840000  0.76290000  0.5 0.0695106266
C  C697  1  0.28710000  0.44840000  0.74250000  0.5 0.0695106266
C  C698  1  0.32300000  0.46460000  0.73680000  0.5 -0.2417211818
C  C699  1  0.32620000  0.48310000  0.70010000  0.5 -0.0116506195
C  C700  1  0.38890000  0.44490000  0.78520000  0.5 -0.2500360344
C  C701  1  0.42630000  0.45440000  0.77310000  0.5 -0.0033792348
C  C702  1  0.29060000  0.43160000  0.73710000  0.5 0.0695106266
C  C703  1  0.78710000  0.94840000  0.24250000  0.5 0.0695106266
C  C704  1  0.82300000  0.96460000  0.23680000  0.5 -0.2417211818
C  C705  1  0.82620000  0.98310000  0.20010000  0.5 -0.0116506195
C  C706  1  0.88890000  0.94490000  0.28520000  0.5 -0.2500360344
C  C707  1  0.92630000  0.95440000  0.27310000  0.5 -0.0033792348
C  C708  1  0.79060000  0.93160000  0.23710000  0.5 0.0695106266
C  C709  1  0.71290000  0.55160000  0.74250000  0.5 0.0695106266
C  C710  1  0.67700000  0.53540000  0.73680000  0.5 -0.2417211818
C  C711  1  0.67380000  0.51690000  0.70010000  0.5 -0.0116506195
C  C712  1  0.61110000  0.55510000  0.78520000  0.5 -0.2500360344
C  C713  1  0.57370000  0.54560000  0.77310000  0.5 -0.0033792348
C  C714  1  0.70940000  0.56840000  0.73710000  0.5 0.0695106266
C  C715  1  0.21290000  0.05160000  0.24250000  0.5 0.0695106266
C  C716  1  0.17700000  0.03540000  0.23680000  0.5 -0.2417211818
C  C717  1  0.17380000  0.01690000  0.20010000  0.5 -0.0116506195
C  C718  1  0.11110000  0.05510000  0.28520000  0.5 -0.2500360344
C  C719  1  0.07370000  0.04560000  0.27310000  0.5 -0.0033792348
C  C720  1  0.20940000  0.06840000  0.23710000  0.5 0.0695106266
C  C721  1  0.25750000  0.71290000  0.44840000  0.5 0.0695106266
C  C722  1  0.26320000  0.67700000  0.46460000  0.5 -0.2417211818
C  C723  1  0.29990000  0.67380000  0.48310000  0.5 -0.0116506195
C  C724  1  0.21480000  0.61110000  0.44490000  0.5 -0.2500360344
C  C725  1  0.22690000  0.57370000  0.45440000  0.5 -0.0033792348
C  C726  1  0.26290000  0.70940000  0.43160000  0.5 0.0695106266
C  C727  1  0.75750000  0.21290000  0.94840000  0.5 0.0695106266
C  C728  1  0.76320000  0.17700000  0.96460000  0.5 -0.2417211818
C  C729  1  0.79990000  0.17380000  0.98310000  0.5 -0.0116506195
C  C730  1  0.71480000  0.11110000  0.94490000  0.5 -0.2500360344
C  C731  1  0.72690000  0.07370000  0.95440000  0.5 -0.0033792348
C  C732  1  0.76290000  0.20940000  0.93160000  0.5 0.0695106266
C  C733  1  0.25750000  0.28710000  0.55160000  0.5 0.0695106266
C  C734  1  0.26320000  0.32300000  0.53540000  0.5 -0.2417211818
C  C735  1  0.29990000  0.32620000  0.51690000  0.5 -0.0116506195
C  C736  1  0.21480000  0.38890000  0.55510000  0.5 -0.2500360344
C  C737  1  0.22690000  0.42630000  0.54560000  0.5 -0.0033792348
C  C738  1  0.26290000  0.29060000  0.56840000  0.5 0.0695106266
C  C739  1  0.75750000  0.78710000  0.05160000  0.5 0.0695106266
C  C740  1  0.76320000  0.82300000  0.03540000  0.5 -0.2417211818
C  C741  1  0.79990000  0.82620000  0.01690000  0.5 -0.0116506195
C  C742  1  0.71480000  0.88890000  0.05510000  0.5 -0.2500360344
C  C743  1  0.72690000  0.92630000  0.04560000  0.5 -0.0033792348
C  C744  1  0.76290000  0.79060000  0.06840000  0.5 0.0695106266
C  C745  1  0.74250000  0.28710000  0.44840000  0.5 0.0695106266
C  C746  1  0.73680000  0.32300000  0.46460000  0.5 -0.2417211818
C  C747  1  0.70010000  0.32620000  0.48310000  0.5 -0.0116506195
C  C748  1  0.78520000  0.38890000  0.44490000  0.5 -0.2500360344
C  C749  1  0.77310000  0.42630000  0.45440000  0.5 -0.0033792348
C  C750  1  0.73710000  0.29060000  0.43160000  0.5 0.0695106266
C  C751  1  0.24250000  0.78710000  0.94840000  0.5 0.0695106266
C  C752  1  0.23680000  0.82300000  0.96460000  0.5 -0.2417211818
C  C753  1  0.20010000  0.82620000  0.98310000  0.5 -0.0116506195
C  C754  1  0.28520000  0.88890000  0.94490000  0.5 -0.2500360344
C  C755  1  0.27310000  0.92630000  0.95440000  0.5 -0.0033792348
C  C756  1  0.23710000  0.79060000  0.93160000  0.5 0.0695106266
C  C757  1  0.74250000  0.71290000  0.55160000  0.5 0.0695106266
C  C758  1  0.73680000  0.67700000  0.53540000  0.5 -0.2417211818
C  C759  1  0.70010000  0.67380000  0.51690000  0.5 -0.0116506195
C  C760  1  0.78520000  0.61110000  0.55510000  0.5 -0.2500360344
C  C761  1  0.77310000  0.57370000  0.54560000  0.5 -0.0033792348
C  C762  1  0.73710000  0.70940000  0.56840000  0.5 0.0695106266
C  C763  1  0.24250000  0.21290000  0.05160000  0.5 0.0695106266
C  C764  1  0.23680000  0.17700000  0.03540000  0.5 -0.2417211818
C  C765  1  0.20010000  0.17380000  0.01690000  0.5 -0.0116506195
C  C766  1  0.28520000  0.11110000  0.05510000  0.5 -0.2500360344
C  C767  1  0.27310000  0.07370000  0.04560000  0.5 -0.0033792348
C  C768  1  0.23710000  0.20940000  0.06840000  0.5 0.0695106266
C  C769  1  0.44840000  0.25750000  0.71290000  0.5 0.0695106266
C  C770  1  0.46460000  0.26320000  0.67700000  0.5 -0.2417211818
C  C771  1  0.48310000  0.29990000  0.67380000  0.5 -0.0116506195
C  C772  1  0.44490000  0.21480000  0.61110000  0.5 -0.2500360344
C  C773  1  0.45440000  0.22690000  0.57370000  0.5 -0.0033792348
C  C774  1  0.43160000  0.26290000  0.70940000  0.5 0.0695106266
C  C775  1  0.94840000  0.75750000  0.21290000  0.5 0.0695106266
C  C776  1  0.96460000  0.76320000  0.17700000  0.5 -0.2417211818
C  C777  1  0.98310000  0.79990000  0.17380000  0.5 -0.0116506195
C  C778  1  0.94490000  0.71480000  0.11110000  0.5 -0.2500360344
C  C779  1  0.95440000  0.72690000  0.07370000  0.5 -0.0033792348
C  C780  1  0.93160000  0.76290000  0.20940000  0.5 0.0695106266
C  C781  1  0.55160000  0.25750000  0.28710000  0.5 0.0695106266
C  C782  1  0.53540000  0.26320000  0.32300000  0.5 -0.2417211818
C  C783  1  0.51690000  0.29990000  0.32620000  0.5 -0.0116506195
C  C784  1  0.55510000  0.21480000  0.38890000  0.5 -0.2500360344
C  C785  1  0.54560000  0.22690000  0.42630000  0.5 -0.0033792348
C  C786  1  0.56840000  0.26290000  0.29060000  0.5 0.0695106266
C  C787  1  0.05160000  0.75750000  0.78710000  0.5 0.0695106266
C  C788  1  0.03540000  0.76320000  0.82300000  0.5 -0.2417211818
C  C789  1  0.01690000  0.79990000  0.82620000  0.5 -0.0116506195
C  C790  1  0.05510000  0.71480000  0.88890000  0.5 -0.2500360344
C  C791  1  0.04560000  0.72690000  0.92630000  0.5 -0.0033792348
C  C792  1  0.06840000  0.76290000  0.79060000  0.5 0.0695106266
C  C793  1  0.44840000  0.74250000  0.28710000  0.5 0.0695106266
C  C794  1  0.46460000  0.73680000  0.32300000  0.5 -0.2417211818
C  C795  1  0.48310000  0.70010000  0.32620000  0.5 -0.0116506195
C  C796  1  0.44490000  0.78520000  0.38890000  0.5 -0.2500360344
C  C797  1  0.45440000  0.77310000  0.42630000  0.5 -0.0033792348
C  C798  1  0.43160000  0.73710000  0.29060000  0.5 0.0695106266
C  C799  1  0.94840000  0.24250000  0.78710000  0.5 0.0695106266
C  C800  1  0.96460000  0.23680000  0.82300000  0.5 -0.2417211818
C  C801  1  0.98310000  0.20010000  0.82620000  0.5 -0.0116506195
C  C802  1  0.94490000  0.28520000  0.88890000  0.5 -0.2500360344
C  C803  1  0.95440000  0.27310000  0.92630000  0.5 -0.0033792348
C  C804  1  0.93160000  0.23710000  0.79060000  0.5 0.0695106266
C  C805  1  0.55160000  0.74250000  0.71290000  0.5 0.0695106266
C  C806  1  0.53540000  0.73680000  0.67700000  0.5 -0.2417211818
C  C807  1  0.51690000  0.70010000  0.67380000  0.5 -0.0116506195
C  C808  1  0.55510000  0.78520000  0.61110000  0.5 -0.2500360344
C  C809  1  0.54560000  0.77310000  0.57370000  0.5 -0.0033792348
C  C810  1  0.56840000  0.73710000  0.70940000  0.5 0.0695106266
C  C811  1  0.05160000  0.24250000  0.21290000  0.5 0.0695106266
C  C812  1  0.03540000  0.23680000  0.17700000  0.5 -0.2417211818
C  C813  1  0.01690000  0.20010000  0.17380000  0.5 -0.0116506195
C  C814  1  0.05510000  0.28520000  0.11110000  0.5 -0.2500360344
C  C815  1  0.04560000  0.27310000  0.07370000  0.5 -0.0033792348
C  C816  1  0.06840000  0.23710000  0.20940000  0.5 0.0695106266
C  C817  1  0.44840000  0.71290000  0.74250000  0.5 0.0695106266
C  C818  1  0.46460000  0.67700000  0.73680000  0.5 -0.2417211818
C  C819  1  0.48310000  0.67380000  0.70010000  0.5 -0.0116506195
C  C820  1  0.44490000  0.61110000  0.78520000  0.5 -0.2500360344
C  C821  1  0.45440000  0.57370000  0.77310000  0.5 -0.0033792348
C  C822  1  0.43160000  0.70940000  0.73710000  0.5 0.0695106266
C  C823  1  0.94840000  0.21290000  0.24250000  0.5 0.0695106266
C  C824  1  0.96460000  0.17700000  0.23680000  0.5 -0.2417211818
C  C825  1  0.98310000  0.17380000  0.20010000  0.5 -0.0116506195
C  C826  1  0.94490000  0.11110000  0.28520000  0.5 -0.2500360344
C  C827  1  0.95440000  0.07370000  0.27310000  0.5 -0.0033792348
C  C828  1  0.93160000  0.20940000  0.23710000  0.5 0.0695106266
C  C829  1  0.55160000  0.28710000  0.74250000  0.5 0.0695106266
C  C830  1  0.53540000  0.32300000  0.73680000  0.5 -0.2417211818
C  C831  1  0.51690000  0.32620000  0.70010000  0.5 -0.0116506195
C  C832  1  0.55510000  0.38890000  0.78520000  0.5 -0.2500360344
C  C833  1  0.54560000  0.42630000  0.77310000  0.5 -0.0033792348
C  C834  1  0.56840000  0.29060000  0.73710000  0.5 0.0695106266
C  C835  1  0.05160000  0.78710000  0.24250000  0.5 0.0695106266
C  C836  1  0.03540000  0.82300000  0.23680000  0.5 -0.2417211818
C  C837  1  0.01690000  0.82620000  0.20010000  0.5 -0.0116506195
C  C838  1  0.05510000  0.88890000  0.28520000  0.5 -0.2500360344
C  C839  1  0.04560000  0.92630000  0.27310000  0.5 -0.0033792348
C  C840  1  0.06840000  0.79060000  0.23710000  0.5 0.0695106266
C  C841  1  0.44840000  0.28710000  0.25750000  0.5 0.0695106266
C  C842  1  0.46460000  0.32300000  0.26320000  0.5 -0.2417211818
C  C843  1  0.48310000  0.32620000  0.29990000  0.5 -0.0116506195
C  C844  1  0.44490000  0.38890000  0.21480000  0.5 -0.2500360344
C  C845  1  0.45440000  0.42630000  0.22690000  0.5 -0.0033792348
C  C846  1  0.43160000  0.29060000  0.26290000  0.5 0.0695106266
C  C847  1  0.94840000  0.78710000  0.75750000  0.5 0.0695106266
C  C848  1  0.96460000  0.82300000  0.76320000  0.5 -0.2417211818
C  C849  1  0.98310000  0.82620000  0.79990000  0.5 -0.0116506195
C  C850  1  0.94490000  0.88890000  0.71480000  0.5 -0.2500360344
C  C851  1  0.95440000  0.92630000  0.72690000  0.5 -0.0033792348
C  C852  1  0.93160000  0.79060000  0.76290000  0.5 0.0695106266
C  C853  1  0.55160000  0.71290000  0.25750000  0.5 0.0695106266
C  C854  1  0.53540000  0.67700000  0.26320000  0.5 -0.2417211818
C  C855  1  0.51690000  0.67380000  0.29990000  0.5 -0.0116506195
C  C856  1  0.55510000  0.61110000  0.21480000  0.5 -0.2500360344
C  C857  1  0.54560000  0.57370000  0.22690000  0.5 -0.0033792348
C  C858  1  0.56840000  0.70940000  0.26290000  0.5 0.0695106266
C  C859  1  0.05160000  0.21290000  0.75750000  0.5 0.0695106266
C  C860  1  0.03540000  0.17700000  0.76320000  0.5 -0.2417211818
C  C861  1  0.01690000  0.17380000  0.79990000  0.5 -0.0116506195
C  C862  1  0.05510000  0.11110000  0.71480000  0.5 -0.2500360344
C  C863  1  0.04560000  0.07370000  0.72690000  0.5 -0.0033792348
C  C864  1  0.06840000  0.20940000  0.76290000  0.5 0.0695106266
C  C865  1  0.71290000  0.25750000  0.55160000  0.5 0.0695106266
C  C866  1  0.67700000  0.26320000  0.53540000  0.5 -0.2417211818
C  C867  1  0.67380000  0.29990000  0.51690000  0.5 -0.0116506195
C  C868  1  0.61110000  0.21480000  0.55510000  0.5 -0.2500360344
C  C869  1  0.57370000  0.22690000  0.54560000  0.5 -0.0033792348
C  C870  1  0.70940000  0.26290000  0.56840000  0.5 0.0695106266
C  C871  1  0.21290000  0.75750000  0.05160000  0.5 0.0695106266
C  C872  1  0.17700000  0.76320000  0.03540000  0.5 -0.2417211818
C  C873  1  0.17380000  0.79990000  0.01690000  0.5 -0.0116506195
C  C874  1  0.11110000  0.71480000  0.05510000  0.5 -0.2500360344
C  C875  1  0.07370000  0.72690000  0.04560000  0.5 -0.0033792348
C  C876  1  0.20940000  0.76290000  0.06840000  0.5 0.0695106266
C  C877  1  0.28710000  0.25750000  0.44840000  0.5 0.0695106266
C  C878  1  0.32300000  0.26320000  0.46460000  0.5 -0.2417211818
C  C879  1  0.32620000  0.29990000  0.48310000  0.5 -0.0116506195
C  C880  1  0.38890000  0.21480000  0.44490000  0.5 -0.2500360344
C  C881  1  0.42630000  0.22690000  0.45440000  0.5 -0.0033792348
C  C882  1  0.29060000  0.26290000  0.43160000  0.5 0.0695106266
C  C883  1  0.78710000  0.75750000  0.94840000  0.5 0.0695106266
C  C884  1  0.82300000  0.76320000  0.96460000  0.5 -0.2417211818
C  C885  1  0.82620000  0.79990000  0.98310000  0.5 -0.0116506195
C  C886  1  0.88890000  0.71480000  0.94490000  0.5 -0.2500360344
C  C887  1  0.92630000  0.72690000  0.95440000  0.5 -0.0033792348
C  C888  1  0.79060000  0.76290000  0.93160000  0.5 0.0695106266
C  C889  1  0.28710000  0.74250000  0.55160000  0.5 0.0695106266
C  C890  1  0.32300000  0.73680000  0.53540000  0.5 -0.2417211818
C  C891  1  0.32620000  0.70010000  0.51690000  0.5 -0.0116506195
C  C892  1  0.38890000  0.78520000  0.55510000  0.5 -0.2500360344
C  C893  1  0.42630000  0.77310000  0.54560000  0.5 -0.0033792348
C  C894  1  0.29060000  0.73710000  0.56840000  0.5 0.0695106266
C  C895  1  0.78710000  0.24250000  0.05160000  0.5 0.0695106266
C  C896  1  0.82300000  0.23680000  0.03540000  0.5 -0.2417211818
C  C897  1  0.82620000  0.20010000  0.01690000  0.5 -0.0116506195
C  C898  1  0.88890000  0.28520000  0.05510000  0.5 -0.2500360344
C  C899  1  0.92630000  0.27310000  0.04560000  0.5 -0.0033792348
C  C900  1  0.79060000  0.23710000  0.06840000  0.5 0.0695106266
C  C901  1  0.71290000  0.74250000  0.44840000  0.5 0.0695106266
C  C902  1  0.67700000  0.73680000  0.46460000  0.5 -0.2417211818
C  C903  1  0.67380000  0.70010000  0.48310000  0.5 -0.0116506195
C  C904  1  0.61110000  0.78520000  0.44490000  0.5 -0.2500360344
C  C905  1  0.57370000  0.77310000  0.45440000  0.5 -0.0033792348
C  C906  1  0.70940000  0.73710000  0.43160000  0.5 0.0695106266
C  C907  1  0.21290000  0.24250000  0.94840000  0.5 0.0695106266
C  C908  1  0.17700000  0.23680000  0.96460000  0.5 -0.2417211818
C  C909  1  0.17380000  0.20010000  0.98310000  0.5 -0.0116506195
C  C910  1  0.11110000  0.28520000  0.94490000  0.5 -0.2500360344
C  C911  1  0.07370000  0.27310000  0.95440000  0.5 -0.0033792348
C  C912  1  0.20940000  0.23710000  0.93160000  0.5 0.0695106266
C  C913  1  0.25750000  0.44840000  0.28710000  0.5 0.0695106266
C  C914  1  0.26320000  0.46460000  0.32300000  0.5 -0.2417211818
C  C915  1  0.29990000  0.48310000  0.32620000  0.5 -0.0116506195
C  C916  1  0.21480000  0.44490000  0.38890000  0.5 -0.2500360344
C  C917  1  0.22690000  0.45440000  0.42630000  0.5 -0.0033792348
C  C918  1  0.26290000  0.43160000  0.29060000  0.5 0.0695106266
C  C919  1  0.75750000  0.94840000  0.78710000  0.5 0.0695106266
C  C920  1  0.76320000  0.96460000  0.82300000  0.5 -0.2417211818
C  C921  1  0.79990000  0.98310000  0.82620000  0.5 -0.0116506195
C  C922  1  0.71480000  0.94490000  0.88890000  0.5 -0.2500360344
C  C923  1  0.72690000  0.95440000  0.92630000  0.5 -0.0033792348
C  C924  1  0.76290000  0.93160000  0.79060000  0.5 0.0695106266
C  C925  1  0.25750000  0.55160000  0.71290000  0.5 0.0695106266
C  C926  1  0.26320000  0.53540000  0.67700000  0.5 -0.2417211818
C  C927  1  0.29990000  0.51690000  0.67380000  0.5 -0.0116506195
C  C928  1  0.21480000  0.55510000  0.61110000  0.5 -0.2500360344
C  C929  1  0.22690000  0.54560000  0.57370000  0.5 -0.0033792348
C  C930  1  0.26290000  0.56840000  0.70940000  0.5 0.0695106266
C  C931  1  0.75750000  0.05160000  0.21290000  0.5 0.0695106266
C  C932  1  0.76320000  0.03540000  0.17700000  0.5 -0.2417211818
C  C933  1  0.79990000  0.01690000  0.17380000  0.5 -0.0116506195
C  C934  1  0.71480000  0.05510000  0.11110000  0.5 -0.2500360344
C  C935  1  0.72690000  0.04560000  0.07370000  0.5 -0.0033792348
C  C936  1  0.76290000  0.06840000  0.20940000  0.5 0.0695106266
C  C937  1  0.74250000  0.44840000  0.71290000  0.5 0.0695106266
C  C938  1  0.73680000  0.46460000  0.67700000  0.5 -0.2417211818
C  C939  1  0.70010000  0.48310000  0.67380000  0.5 -0.0116506195
C  C940  1  0.78520000  0.44490000  0.61110000  0.5 -0.2500360344
C  C941  1  0.77310000  0.45440000  0.57370000  0.5 -0.0033792348
C  C942  1  0.73710000  0.43160000  0.70940000  0.5 0.0695106266
C  C943  1  0.24250000  0.94840000  0.21290000  0.5 0.0695106266
C  C944  1  0.23680000  0.96460000  0.17700000  0.5 -0.2417211818
C  C945  1  0.20010000  0.98310000  0.17380000  0.5 -0.0116506195
C  C946  1  0.28520000  0.94490000  0.11110000  0.5 -0.2500360344
C  C947  1  0.27310000  0.95440000  0.07370000  0.5 -0.0033792348
C  C948  1  0.23710000  0.93160000  0.20940000  0.5 0.0695106266
C  C949  1  0.74250000  0.55160000  0.28710000  0.5 0.0695106266
C  C950  1  0.73680000  0.53540000  0.32300000  0.5 -0.2417211818
C  C951  1  0.70010000  0.51690000  0.32620000  0.5 -0.0116506195
C  C952  1  0.78520000  0.55510000  0.38890000  0.5 -0.2500360344
C  C953  1  0.77310000  0.54560000  0.42630000  0.5 -0.0033792348
C  C954  1  0.73710000  0.56840000  0.29060000  0.5 0.0695106266
C  C955  1  0.24250000  0.05160000  0.78710000  0.5 0.0695106266
C  C956  1  0.23680000  0.03540000  0.82300000  0.5 -0.2417211818
C  C957  1  0.20010000  0.01690000  0.82620000  0.5 -0.0116506195
C  C958  1  0.28520000  0.05510000  0.88890000  0.5 -0.2500360344
C  C959  1  0.27310000  0.04560000  0.92630000  0.5 -0.0033792348
C  C960  1  0.23710000  0.06840000  0.79060000  0.5 0.0695106266
C  C961  1  0.28710000  0.55160000  0.74250000  0.5 0.0695106266
C  C962  1  0.32300000  0.53540000  0.73680000  0.5 -0.2417211818
C  C963  1  0.32620000  0.51690000  0.70010000  0.5 -0.0116506195
C  C964  1  0.38890000  0.55510000  0.78520000  0.5 -0.2500360344
C  C965  1  0.42630000  0.54560000  0.77310000  0.5 -0.0033792348
C  C966  1  0.29060000  0.56840000  0.73710000  0.5 0.0695106266
C  C967  1  0.78710000  0.05160000  0.24250000  0.5 0.0695106266
C  C968  1  0.82300000  0.03540000  0.23680000  0.5 -0.2417211818
C  C969  1  0.82620000  0.01690000  0.20010000  0.5 -0.0116506195
C  C970  1  0.88890000  0.05510000  0.28520000  0.5 -0.2500360344
C  C971  1  0.92630000  0.04560000  0.27310000  0.5 -0.0033792348
C  C972  1  0.79060000  0.06840000  0.23710000  0.5 0.0695106266
C  C973  1  0.71290000  0.44840000  0.74250000  0.5 0.0695106266
C  C974  1  0.67700000  0.46460000  0.73680000  0.5 -0.2417211818
C  C975  1  0.67380000  0.48310000  0.70010000  0.5 -0.0116506195
C  C976  1  0.61110000  0.44490000  0.78520000  0.5 -0.2500360344
C  C977  1  0.57370000  0.45440000  0.77310000  0.5 -0.0033792348
C  C978  1  0.70940000  0.43160000  0.73710000  0.5 0.0695106266
C  C979  1  0.21290000  0.94840000  0.24250000  0.5 0.0695106266
C  C980  1  0.17700000  0.96460000  0.23680000  0.5 -0.2417211818
C  C981  1  0.17380000  0.98310000  0.20010000  0.5 -0.0116506195
C  C982  1  0.11110000  0.94490000  0.28520000  0.5 -0.2500360344
C  C983  1  0.07370000  0.95440000  0.27310000  0.5 -0.0033792348
C  C984  1  0.20940000  0.93160000  0.23710000  0.5 0.0695106266
C  C985  1  0.71290000  0.55160000  0.25750000  0.5 0.0695106266
C  C986  1  0.67700000  0.53540000  0.26320000  0.5 -0.2417211818
C  C987  1  0.67380000  0.51690000  0.29990000  0.5 -0.0116506195
C  C988  1  0.61110000  0.55510000  0.21480000  0.5 -0.2500360344
C  C989  1  0.57370000  0.54560000  0.22690000  0.5 -0.0033792348
C  C990  1  0.70940000  0.56840000  0.26290000  0.5 0.0695106266
C  C991  1  0.21290000  0.05160000  0.75750000  0.5 0.0695106266
C  C992  1  0.17700000  0.03540000  0.76320000  0.5 -0.2417211818
C  C993  1  0.17380000  0.01690000  0.79990000  0.5 -0.0116506195
C  C994  1  0.11110000  0.05510000  0.71480000  0.5 -0.2500360344
C  C995  1  0.07370000  0.04560000  0.72690000  0.5 -0.0033792348
C  C996  1  0.20940000  0.06840000  0.76290000  0.5 0.0695106266
C  C997  1  0.28710000  0.44840000  0.25750000  0.5 0.0695106266
C  C998  1  0.32300000  0.46460000  0.26320000  0.5 -0.2417211818
C  C999  1  0.32620000  0.48310000  0.29990000  0.5 -0.0116506195
C  C1000  1  0.38890000  0.44490000  0.21480000  0.5 -0.2500360344
C  C1001  1  0.42630000  0.45440000  0.22690000  0.5 -0.0033792348
C  C1002  1  0.29060000  0.43160000  0.26290000  0.5 0.0695106266
C  C1003  1  0.78710000  0.94840000  0.75750000  0.5 0.0695106266
C  C1004  1  0.82300000  0.96460000  0.76320000  0.5 -0.2417211818
C  C1005  1  0.82620000  0.98310000  0.79990000  0.5 -0.0116506195
C  C1006  1  0.88890000  0.94490000  0.71480000  0.5 -0.2500360344
C  C1007  1  0.92630000  0.95440000  0.72690000  0.5 -0.0033792348
C  C1008  1  0.79060000  0.93160000  0.76290000  0.5 0.0695106266
C  C1009  1  0.74250000  0.28710000  0.55160000  0.5 0.0695106266
C  C1010  1  0.73680000  0.32300000  0.53540000  0.5 -0.2417211818
C  C1011  1  0.70010000  0.32620000  0.51690000  0.5 -0.0116506195
C  C1012  1  0.78520000  0.38890000  0.55510000  0.5 -0.2500360344
C  C1013  1  0.77310000  0.42630000  0.54560000  0.5 -0.0033792348
C  C1014  1  0.73710000  0.29060000  0.56840000  0.5 0.0695106266
C  C1015  1  0.24250000  0.78710000  0.05160000  0.5 0.0695106266
C  C1016  1  0.23680000  0.82300000  0.03540000  0.5 -0.2417211818
C  C1017  1  0.20010000  0.82620000  0.01690000  0.5 -0.0116506195
C  C1018  1  0.28520000  0.88890000  0.05510000  0.5 -0.2500360344
C  C1019  1  0.27310000  0.92630000  0.04560000  0.5 -0.0033792348
C  C1020  1  0.23710000  0.79060000  0.06840000  0.5 0.0695106266
C  C1021  1  0.74250000  0.71290000  0.44840000  0.5 0.0695106266
C  C1022  1  0.73680000  0.67700000  0.46460000  0.5 -0.2417211818
C  C1023  1  0.70010000  0.67380000  0.48310000  0.5 -0.0116506195
C  C1024  1  0.78520000  0.61110000  0.44490000  0.5 -0.2500360344
C  C1025  1  0.77310000  0.57370000  0.45440000  0.5 -0.0033792348
C  C1026  1  0.73710000  0.70940000  0.43160000  0.5 0.0695106266
C  C1027  1  0.24250000  0.21290000  0.94840000  0.5 0.0695106266
C  C1028  1  0.23680000  0.17700000  0.96460000  0.5 -0.2417211818
C  C1029  1  0.20010000  0.17380000  0.98310000  0.5 -0.0116506195
C  C1030  1  0.28520000  0.11110000  0.94490000  0.5 -0.2500360344
C  C1031  1  0.27310000  0.07370000  0.95440000  0.5 -0.0033792348
C  C1032  1  0.23710000  0.20940000  0.93160000  0.5 0.0695106266
C  C1033  1  0.25750000  0.71290000  0.55160000  0.5 0.0695106266
C  C1034  1  0.26320000  0.67700000  0.53540000  0.5 -0.2417211818
C  C1035  1  0.29990000  0.67380000  0.51690000  0.5 -0.0116506195
C  C1036  1  0.21480000  0.61110000  0.55510000  0.5 -0.2500360344
C  C1037  1  0.22690000  0.57370000  0.54560000  0.5 -0.0033792348
C  C1038  1  0.26290000  0.70940000  0.56840000  0.5 0.0695106266
C  C1039  1  0.75750000  0.21290000  0.05160000  0.5 0.0695106266
C  C1040  1  0.76320000  0.17700000  0.03540000  0.5 -0.2417211818
C  C1041  1  0.79990000  0.17380000  0.01690000  0.5 -0.0116506195
C  C1042  1  0.71480000  0.11110000  0.05510000  0.5 -0.2500360344
C  C1043  1  0.72690000  0.07370000  0.04560000  0.5 -0.0033792348
C  C1044  1  0.76290000  0.20940000  0.06840000  0.5 0.0695106266
C  C1045  1  0.25750000  0.28710000  0.44840000  0.5 0.0695106266
C  C1046  1  0.26320000  0.32300000  0.46460000  0.5 -0.2417211818
C  C1047  1  0.29990000  0.32620000  0.48310000  0.5 -0.0116506195
C  C1048  1  0.21480000  0.38890000  0.44490000  0.5 -0.2500360344
C  C1049  1  0.22690000  0.42630000  0.45440000  0.5 -0.0033792348
C  C1050  1  0.26290000  0.29060000  0.43160000  0.5 0.0695106266
C  C1051  1  0.75750000  0.78710000  0.94840000  0.5 0.0695106266
C  C1052  1  0.76320000  0.82300000  0.96460000  0.5 -0.2417211818
C  C1053  1  0.79990000  0.82620000  0.98310000  0.5 -0.0116506195
C  C1054  1  0.71480000  0.88890000  0.94490000  0.5 -0.2500360344
C  C1055  1  0.72690000  0.92630000  0.95440000  0.5 -0.0033792348
C  C1056  1  0.76290000  0.79060000  0.93160000  0.5 0.0695106266
C  C1057  1  0.55160000  0.74250000  0.28710000  0.5 0.0695106266
C  C1058  1  0.53540000  0.73680000  0.32300000  0.5 -0.2417211818
C  C1059  1  0.51690000  0.70010000  0.32620000  0.5 -0.0116506195
C  C1060  1  0.55510000  0.78520000  0.38890000  0.5 -0.2500360344
C  C1061  1  0.54560000  0.77310000  0.42630000  0.5 -0.0033792348
C  C1062  1  0.56840000  0.73710000  0.29060000  0.5 0.0695106266
C  C1063  1  0.05160000  0.24250000  0.78710000  0.5 0.0695106266
C  C1064  1  0.03540000  0.23680000  0.82300000  0.5 -0.2417211818
C  C1065  1  0.01690000  0.20010000  0.82620000  0.5 -0.0116506195
C  C1066  1  0.05510000  0.28520000  0.88890000  0.5 -0.2500360344
C  C1067  1  0.04560000  0.27310000  0.92630000  0.5 -0.0033792348
C  C1068  1  0.06840000  0.23710000  0.79060000  0.5 0.0695106266
C  C1069  1  0.44840000  0.74250000  0.71290000  0.5 0.0695106266
C  C1070  1  0.46460000  0.73680000  0.67700000  0.5 -0.2417211818
C  C1071  1  0.48310000  0.70010000  0.67380000  0.5 -0.0116506195
C  C1072  1  0.44490000  0.78520000  0.61110000  0.5 -0.2500360344
C  C1073  1  0.45440000  0.77310000  0.57370000  0.5 -0.0033792348
C  C1074  1  0.43160000  0.73710000  0.70940000  0.5 0.0695106266
C  C1075  1  0.94840000  0.24250000  0.21290000  0.5 0.0695106266
C  C1076  1  0.96460000  0.23680000  0.17700000  0.5 -0.2417211818
C  C1077  1  0.98310000  0.20010000  0.17380000  0.5 -0.0116506195
C  C1078  1  0.94490000  0.28520000  0.11110000  0.5 -0.2500360344
C  C1079  1  0.95440000  0.27310000  0.07370000  0.5 -0.0033792348
C  C1080  1  0.93160000  0.23710000  0.20940000  0.5 0.0695106266
C  C1081  1  0.55160000  0.25750000  0.71290000  0.5 0.0695106266
C  C1082  1  0.53540000  0.26320000  0.67700000  0.5 -0.2417211818
C  C1083  1  0.51690000  0.29990000  0.67380000  0.5 -0.0116506195
C  C1084  1  0.55510000  0.21480000  0.61110000  0.5 -0.2500360344
C  C1085  1  0.54560000  0.22690000  0.57370000  0.5 -0.0033792348
C  C1086  1  0.56840000  0.26290000  0.70940000  0.5 0.0695106266
C  C1087  1  0.05160000  0.75750000  0.21290000  0.5 0.0695106266
C  C1088  1  0.03540000  0.76320000  0.17700000  0.5 -0.2417211818
C  C1089  1  0.01690000  0.79990000  0.17380000  0.5 -0.0116506195
C  C1090  1  0.05510000  0.71480000  0.11110000  0.5 -0.2500360344
C  C1091  1  0.04560000  0.72690000  0.07370000  0.5 -0.0033792348
C  C1092  1  0.06840000  0.76290000  0.20940000  0.5 0.0695106266
C  C1093  1  0.44840000  0.25750000  0.28710000  0.5 0.0695106266
C  C1094  1  0.46460000  0.26320000  0.32300000  0.5 -0.2417211818
C  C1095  1  0.48310000  0.29990000  0.32620000  0.5 -0.0116506195
C  C1096  1  0.44490000  0.21480000  0.38890000  0.5 -0.2500360344
C  C1097  1  0.45440000  0.22690000  0.42630000  0.5 -0.0033792348
C  C1098  1  0.43160000  0.26290000  0.29060000  0.5 0.0695106266
C  C1099  1  0.94840000  0.75750000  0.78710000  0.5 0.0695106266
C  C1100  1  0.96460000  0.76320000  0.82300000  0.5 -0.2417211818
C  C1101  1  0.98310000  0.79990000  0.82620000  0.5 -0.0116506195
C  C1102  1  0.94490000  0.71480000  0.88890000  0.5 -0.2500360344
C  C1103  1  0.95440000  0.72690000  0.92630000  0.5 -0.0033792348
C  C1104  1  0.93160000  0.76290000  0.79060000  0.5 0.0695106266
C  C1105  1  0.55160000  0.28710000  0.25750000  0.5 0.0695106266
C  C1106  1  0.53540000  0.32300000  0.26320000  0.5 -0.2417211818
C  C1107  1  0.51690000  0.32620000  0.29990000  0.5 -0.0116506195
C  C1108  1  0.55510000  0.38890000  0.21480000  0.5 -0.2500360344
C  C1109  1  0.54560000  0.42630000  0.22690000  0.5 -0.0033792348
C  C1110  1  0.56840000  0.29060000  0.26290000  0.5 0.0695106266
C  C1111  1  0.05160000  0.78710000  0.75750000  0.5 0.0695106266
C  C1112  1  0.03540000  0.82300000  0.76320000  0.5 -0.2417211818
C  C1113  1  0.01690000  0.82620000  0.79990000  0.5 -0.0116506195
C  C1114  1  0.05510000  0.88890000  0.71480000  0.5 -0.2500360344
C  C1115  1  0.04560000  0.92630000  0.72690000  0.5 -0.0033792348
C  C1116  1  0.06840000  0.79060000  0.76290000  0.5 0.0695106266
C  C1117  1  0.44840000  0.71290000  0.25750000  0.5 0.0695106266
C  C1118  1  0.46460000  0.67700000  0.26320000  0.5 -0.2417211818
C  C1119  1  0.48310000  0.67380000  0.29990000  0.5 -0.0116506195
C  C1120  1  0.44490000  0.61110000  0.21480000  0.5 -0.2500360344
C  C1121  1  0.45440000  0.57370000  0.22690000  0.5 -0.0033792348
C  C1122  1  0.43160000  0.70940000  0.26290000  0.5 0.0695106266
C  C1123  1  0.94840000  0.21290000  0.75750000  0.5 0.0695106266
C  C1124  1  0.96460000  0.17700000  0.76320000  0.5 -0.2417211818
C  C1125  1  0.98310000  0.17380000  0.79990000  0.5 -0.0116506195
C  C1126  1  0.94490000  0.11110000  0.71480000  0.5 -0.2500360344
C  C1127  1  0.95440000  0.07370000  0.72690000  0.5 -0.0033792348
C  C1128  1  0.93160000  0.20940000  0.76290000  0.5 0.0695106266
C  C1129  1  0.55160000  0.71290000  0.74250000  0.5 0.0695106266
C  C1130  1  0.53540000  0.67700000  0.73680000  0.5 -0.2417211818
C  C1131  1  0.51690000  0.67380000  0.70010000  0.5 -0.0116506195
C  C1132  1  0.55510000  0.61110000  0.78520000  0.5 -0.2500360344
C  C1133  1  0.54560000  0.57370000  0.77310000  0.5 -0.0033792348
C  C1134  1  0.56840000  0.70940000  0.73710000  0.5 0.0695106266
C  C1135  1  0.05160000  0.21290000  0.24250000  0.5 0.0695106266
C  C1136  1  0.03540000  0.17700000  0.23680000  0.5 -0.2417211818
C  C1137  1  0.01690000  0.17380000  0.20010000  0.5 -0.0116506195
C  C1138  1  0.05510000  0.11110000  0.28520000  0.5 -0.2500360344
C  C1139  1  0.04560000  0.07370000  0.27310000  0.5 -0.0033792348
C  C1140  1  0.06840000  0.20940000  0.23710000  0.5 0.0695106266
C  C1141  1  0.44840000  0.28710000  0.74250000  0.5 0.0695106266
C  C1142  1  0.46460000  0.32300000  0.73680000  0.5 -0.2417211818
C  C1143  1  0.48310000  0.32620000  0.70010000  0.5 -0.0116506195
C  C1144  1  0.44490000  0.38890000  0.78520000  0.5 -0.2500360344
C  C1145  1  0.45440000  0.42630000  0.77310000  0.5 -0.0033792348
C  C1146  1  0.43160000  0.29060000  0.73710000  0.5 0.0695106266
C  C1147  1  0.94840000  0.78710000  0.24250000  0.5 0.0695106266
C  C1148  1  0.96460000  0.82300000  0.23680000  0.5 -0.2417211818
C  C1149  1  0.98310000  0.82620000  0.20010000  0.5 -0.0116506195
C  C1150  1  0.94490000  0.88890000  0.28520000  0.5 -0.2500360344
C  C1151  1  0.95440000  0.92630000  0.27310000  0.5 -0.0033792348
C  C1152  1  0.93160000  0.79060000  0.23710000  0.5 0.0695106266
C  C1153  1  0.28710000  0.74250000  0.44840000  0.5 0.0695106266
C  C1154  1  0.32300000  0.73680000  0.46460000  0.5 -0.2417211818
C  C1155  1  0.32620000  0.70010000  0.48310000  0.5 -0.0116506195
C  C1156  1  0.38890000  0.78520000  0.44490000  0.5 -0.2500360344
C  C1157  1  0.42630000  0.77310000  0.45440000  0.5 -0.0033792348
C  C1158  1  0.29060000  0.73710000  0.43160000  0.5 0.0695106266
C  C1159  1  0.78710000  0.24250000  0.94840000  0.5 0.0695106266
C  C1160  1  0.82300000  0.23680000  0.96460000  0.5 -0.2417211818
C  C1161  1  0.82620000  0.20010000  0.98310000  0.5 -0.0116506195
C  C1162  1  0.88890000  0.28520000  0.94490000  0.5 -0.2500360344
C  C1163  1  0.92630000  0.27310000  0.95440000  0.5 -0.0033792348
C  C1164  1  0.79060000  0.23710000  0.93160000  0.5 0.0695106266
C  C1165  1  0.71290000  0.74250000  0.55160000  0.5 0.0695106266
C  C1166  1  0.67700000  0.73680000  0.53540000  0.5 -0.2417211818
C  C1167  1  0.67380000  0.70010000  0.51690000  0.5 -0.0116506195
C  C1168  1  0.61110000  0.78520000  0.55510000  0.5 -0.2500360344
C  C1169  1  0.57370000  0.77310000  0.54560000  0.5 -0.0033792348
C  C1170  1  0.70940000  0.73710000  0.56840000  0.5 0.0695106266
C  C1171  1  0.21290000  0.24250000  0.05160000  0.5 0.0695106266
C  C1172  1  0.17700000  0.23680000  0.03540000  0.5 -0.2417211818
C  C1173  1  0.17380000  0.20010000  0.01690000  0.5 -0.0116506195
C  C1174  1  0.11110000  0.28520000  0.05510000  0.5 -0.2500360344
C  C1175  1  0.07370000  0.27310000  0.04560000  0.5 -0.0033792348
C  C1176  1  0.20940000  0.23710000  0.06840000  0.5 0.0695106266
C  C1177  1  0.71290000  0.25750000  0.44840000  0.5 0.0695106266
C  C1178  1  0.67700000  0.26320000  0.46460000  0.5 -0.2417211818
C  C1179  1  0.67380000  0.29990000  0.48310000  0.5 -0.0116506195
C  C1180  1  0.61110000  0.21480000  0.44490000  0.5 -0.2500360344
C  C1181  1  0.57370000  0.22690000  0.45440000  0.5 -0.0033792348
C  C1182  1  0.70940000  0.26290000  0.43160000  0.5 0.0695106266
C  C1183  1  0.21290000  0.75750000  0.94840000  0.5 0.0695106266
C  C1184  1  0.17700000  0.76320000  0.96460000  0.5 -0.2417211818
C  C1185  1  0.17380000  0.79990000  0.98310000  0.5 -0.0116506195
C  C1186  1  0.11110000  0.71480000  0.94490000  0.5 -0.2500360344
C  C1187  1  0.07370000  0.72690000  0.95440000  0.5 -0.0033792348
C  C1188  1  0.20940000  0.76290000  0.93160000  0.5 0.0695106266
C  C1189  1  0.28710000  0.25750000  0.55160000  0.5 0.0695106266
C  C1190  1  0.32300000  0.26320000  0.53540000  0.5 -0.2417211818
C  C1191  1  0.32620000  0.29990000  0.51690000  0.5 -0.0116506195
C  C1192  1  0.38890000  0.21480000  0.55510000  0.5 -0.2500360344
C  C1193  1  0.42630000  0.22690000  0.54560000  0.5 -0.0033792348
C  C1194  1  0.29060000  0.26290000  0.56840000  0.5 0.0695106266
C  C1195  1  0.78710000  0.75750000  0.05160000  0.5 0.0695106266
C  C1196  1  0.82300000  0.76320000  0.03540000  0.5 -0.2417211818
C  C1197  1  0.82620000  0.79990000  0.01690000  0.5 -0.0116506195
C  C1198  1  0.88890000  0.71480000  0.05510000  0.5 -0.2500360344
C  C1199  1  0.92630000  0.72690000  0.04560000  0.5 -0.0033792348
C  C1200  1  0.79060000  0.76290000  0.06840000  0.5 0.0695106266
C  C1201  1  0.74250000  0.55160000  0.71290000  0.5 0.0695106266
C  C1202  1  0.73680000  0.53540000  0.67700000  0.5 -0.2417211818
C  C1203  1  0.70010000  0.51690000  0.67380000  0.5 -0.0116506195
C  C1204  1  0.78520000  0.55510000  0.61110000  0.5 -0.2500360344
C  C1205  1  0.77310000  0.54560000  0.57370000  0.5 -0.0033792348
C  C1206  1  0.73710000  0.56840000  0.70940000  0.5 0.0695106266
C  C1207  1  0.24250000  0.05160000  0.21290000  0.5 0.0695106266
C  C1208  1  0.23680000  0.03540000  0.17700000  0.5 -0.2417211818
C  C1209  1  0.20010000  0.01690000  0.17380000  0.5 -0.0116506195
C  C1210  1  0.28520000  0.05510000  0.11110000  0.5 -0.2500360344
C  C1211  1  0.27310000  0.04560000  0.07370000  0.5 -0.0033792348
C  C1212  1  0.23710000  0.06840000  0.20940000  0.5 0.0695106266
C  C1213  1  0.74250000  0.44840000  0.28710000  0.5 0.0695106266
C  C1214  1  0.73680000  0.46460000  0.32300000  0.5 -0.2417211818
C  C1215  1  0.70010000  0.48310000  0.32620000  0.5 -0.0116506195
C  C1216  1  0.78520000  0.44490000  0.38890000  0.5 -0.2500360344
C  C1217  1  0.77310000  0.45440000  0.42630000  0.5 -0.0033792348
C  C1218  1  0.73710000  0.43160000  0.29060000  0.5 0.0695106266
C  C1219  1  0.24250000  0.94840000  0.78710000  0.5 0.0695106266
C  C1220  1  0.23680000  0.96460000  0.82300000  0.5 -0.2417211818
C  C1221  1  0.20010000  0.98310000  0.82620000  0.5 -0.0116506195
C  C1222  1  0.28520000  0.94490000  0.88890000  0.5 -0.2500360344
C  C1223  1  0.27310000  0.95440000  0.92630000  0.5 -0.0033792348
C  C1224  1  0.23710000  0.93160000  0.79060000  0.5 0.0695106266
C  C1225  1  0.25750000  0.55160000  0.28710000  0.5 0.0695106266
C  C1226  1  0.26320000  0.53540000  0.32300000  0.5 -0.2417211818
C  C1227  1  0.29990000  0.51690000  0.32620000  0.5 -0.0116506195
C  C1228  1  0.21480000  0.55510000  0.38890000  0.5 -0.2500360344
C  C1229  1  0.22690000  0.54560000  0.42630000  0.5 -0.0033792348
C  C1230  1  0.26290000  0.56840000  0.29060000  0.5 0.0695106266
C  C1231  1  0.75750000  0.05160000  0.78710000  0.5 0.0695106266
C  C1232  1  0.76320000  0.03540000  0.82300000  0.5 -0.2417211818
C  C1233  1  0.79990000  0.01690000  0.82620000  0.5 -0.0116506195
C  C1234  1  0.71480000  0.05510000  0.88890000  0.5 -0.2500360344
C  C1235  1  0.72690000  0.04560000  0.92630000  0.5 -0.0033792348
C  C1236  1  0.76290000  0.06840000  0.79060000  0.5 0.0695106266
C  C1237  1  0.25750000  0.44840000  0.71290000  0.5 0.0695106266
C  C1238  1  0.26320000  0.46460000  0.67700000  0.5 -0.2417211818
C  C1239  1  0.29990000  0.48310000  0.67380000  0.5 -0.0116506195
C  C1240  1  0.21480000  0.44490000  0.61110000  0.5 -0.2500360344
C  C1241  1  0.22690000  0.45440000  0.57370000  0.5 -0.0033792348
C  C1242  1  0.26290000  0.43160000  0.70940000  0.5 0.0695106266
C  C1243  1  0.75750000  0.94840000  0.21290000  0.5 0.0695106266
C  C1244  1  0.76320000  0.96460000  0.17700000  0.5 -0.2417211818
C  C1245  1  0.79990000  0.98310000  0.17380000  0.5 -0.0116506195
C  C1246  1  0.71480000  0.94490000  0.11110000  0.5 -0.2500360344
C  C1247  1  0.72690000  0.95440000  0.07370000  0.5 -0.0033792348
C  C1248  1  0.76290000  0.93160000  0.20940000  0.5 0.0695106266
N  N1  1  0.68770000  0.46820000  0.16240000  1.0 -0.3587681813
N  N2  1  0.65160000  0.39210000  0.18660000  1.0 -0.3295381554
N  N3  1  0.73160000  0.39750000  0.13900000  1.0 -0.3295381554
N  N4  1  0.72650000  0.42360000  0.22990000  1.0 -0.2579042484
N  N5  1  0.18770000  0.96820000  0.66240000  1.0 -0.3587681813
N  N6  1  0.15160000  0.89210000  0.68660000  1.0 -0.3295381554
N  N7  1  0.23160000  0.89750000  0.63900000  1.0 -0.3295381554
N  N8  1  0.22650000  0.92360000  0.72990000  1.0 -0.2579042484
N  N9  1  0.31230000  0.53180000  0.16240000  1.0 -0.3587681813
N  N10  1  0.34840000  0.60790000  0.18660000  1.0 -0.3295381554
N  N11  1  0.26840000  0.60250000  0.13900000  1.0 -0.3295381554
N  N12  1  0.27350000  0.57640000  0.22990000  1.0 -0.2579042484
N  N13  1  0.81230000  0.03180000  0.66240000  1.0 -0.3587681813
N  N14  1  0.84840000  0.10790000  0.68660000  1.0 -0.3295381554
N  N15  1  0.76840000  0.10250000  0.63900000  1.0 -0.3295381554
N  N16  1  0.77350000  0.07640000  0.72990000  1.0 -0.2579042484
N  N17  1  0.31230000  0.46820000  0.83760000  1.0 -0.3587681813
N  N18  1  0.34840000  0.39210000  0.81340000  1.0 -0.3295381554
N  N19  1  0.26840000  0.39750000  0.86100000  1.0 -0.3295381554
N  N20  1  0.27350000  0.42360000  0.77010000  1.0 -0.2579042484
N  N21  1  0.81230000  0.96820000  0.33760000  1.0 -0.3587681813
N  N22  1  0.84840000  0.89210000  0.31340000  1.0 -0.3295381554
N  N23  1  0.76840000  0.89750000  0.36100000  1.0 -0.3295381554
N  N24  1  0.77350000  0.92360000  0.27010000  1.0 -0.2579042484
N  N25  1  0.68770000  0.53180000  0.83760000  1.0 -0.3587681813
N  N26  1  0.65160000  0.60790000  0.81340000  1.0 -0.3295381554
N  N27  1  0.73160000  0.60250000  0.86100000  1.0 -0.3295381554
N  N28  1  0.72650000  0.57640000  0.77010000  1.0 -0.2579042484
N  N29  1  0.18770000  0.03180000  0.33760000  1.0 -0.3587681813
N  N30  1  0.15160000  0.10790000  0.31340000  1.0 -0.3295381554
N  N31  1  0.23160000  0.10250000  0.36100000  1.0 -0.3295381554
N  N32  1  0.22650000  0.07640000  0.27010000  1.0 -0.2579042484
N  N33  1  0.16240000  0.68770000  0.46820000  1.0 -0.3587681813
N  N34  1  0.18660000  0.65160000  0.39210000  1.0 -0.3295381554
N  N35  1  0.13900000  0.73160000  0.39750000  1.0 -0.3295381554
N  N36  1  0.22990000  0.72650000  0.42360000  1.0 -0.2579042484
N  N37  1  0.66240000  0.18770000  0.96820000  1.0 -0.3587681813
N  N38  1  0.68660000  0.15160000  0.89210000  1.0 -0.3295381554
N  N39  1  0.63900000  0.23160000  0.89750000  1.0 -0.3295381554
N  N40  1  0.72990000  0.22650000  0.92360000  1.0 -0.2579042484
N  N41  1  0.16240000  0.31230000  0.53180000  1.0 -0.3587681813
N  N42  1  0.18660000  0.34840000  0.60790000  1.0 -0.3295381554
N  N43  1  0.13900000  0.26840000  0.60250000  1.0 -0.3295381554
N  N44  1  0.22990000  0.27350000  0.57640000  1.0 -0.2579042484
N  N45  1  0.66240000  0.81230000  0.03180000  1.0 -0.3587681813
N  N46  1  0.68660000  0.84840000  0.10790000  1.0 -0.3295381554
N  N47  1  0.63900000  0.76840000  0.10250000  1.0 -0.3295381554
N  N48  1  0.72990000  0.77350000  0.07640000  1.0 -0.2579042484
N  N49  1  0.83760000  0.31230000  0.46820000  1.0 -0.3587681813
N  N50  1  0.81340000  0.34840000  0.39210000  1.0 -0.3295381554
N  N51  1  0.86100000  0.26840000  0.39750000  1.0 -0.3295381554
N  N52  1  0.77010000  0.27350000  0.42360000  1.0 -0.2579042484
N  N53  1  0.33760000  0.81230000  0.96820000  1.0 -0.3587681813
N  N54  1  0.31340000  0.84840000  0.89210000  1.0 -0.3295381554
N  N55  1  0.36100000  0.76840000  0.89750000  1.0 -0.3295381554
N  N56  1  0.27010000  0.77350000  0.92360000  1.0 -0.2579042484
N  N57  1  0.83760000  0.68770000  0.53180000  1.0 -0.3587681813
N  N58  1  0.81340000  0.65160000  0.60790000  1.0 -0.3295381554
N  N59  1  0.86100000  0.73160000  0.60250000  1.0 -0.3295381554
N  N60  1  0.77010000  0.72650000  0.57640000  1.0 -0.2579042484
N  N61  1  0.33760000  0.18770000  0.03180000  1.0 -0.3587681813
N  N62  1  0.31340000  0.15160000  0.10790000  1.0 -0.3295381554
N  N63  1  0.36100000  0.23160000  0.10250000  1.0 -0.3295381554
N  N64  1  0.27010000  0.22650000  0.07640000  1.0 -0.2579042484
N  N65  1  0.46820000  0.16240000  0.68770000  1.0 -0.3587681813
N  N66  1  0.39210000  0.18660000  0.65160000  1.0 -0.3295381554
N  N67  1  0.39750000  0.13900000  0.73160000  1.0 -0.3295381554
N  N68  1  0.42360000  0.22990000  0.72650000  1.0 -0.2579042484
N  N69  1  0.96820000  0.66240000  0.18770000  1.0 -0.3587681813
N  N70  1  0.89210000  0.68660000  0.15160000  1.0 -0.3295381554
N  N71  1  0.89750000  0.63900000  0.23160000  1.0 -0.3295381554
N  N72  1  0.92360000  0.72990000  0.22650000  1.0 -0.2579042484
N  N73  1  0.53180000  0.16240000  0.31230000  1.0 -0.3587681813
N  N74  1  0.60790000  0.18660000  0.34840000  1.0 -0.3295381554
N  N75  1  0.60250000  0.13900000  0.26840000  1.0 -0.3295381554
N  N76  1  0.57640000  0.22990000  0.27350000  1.0 -0.2579042484
N  N77  1  0.03180000  0.66240000  0.81230000  1.0 -0.3587681813
N  N78  1  0.10790000  0.68660000  0.84840000  1.0 -0.3295381554
N  N79  1  0.10250000  0.63900000  0.76840000  1.0 -0.3295381554
N  N80  1  0.07640000  0.72990000  0.77350000  1.0 -0.2579042484
N  N81  1  0.46820000  0.83760000  0.31230000  1.0 -0.3587681813
N  N82  1  0.39210000  0.81340000  0.34840000  1.0 -0.3295381554
N  N83  1  0.39750000  0.86100000  0.26840000  1.0 -0.3295381554
N  N84  1  0.42360000  0.77010000  0.27350000  1.0 -0.2579042484
N  N85  1  0.96820000  0.33760000  0.81230000  1.0 -0.3587681813
N  N86  1  0.89210000  0.31340000  0.84840000  1.0 -0.3295381554
N  N87  1  0.89750000  0.36100000  0.76840000  1.0 -0.3295381554
N  N88  1  0.92360000  0.27010000  0.77350000  1.0 -0.2579042484
N  N89  1  0.53180000  0.83760000  0.68770000  1.0 -0.3587681813
N  N90  1  0.60790000  0.81340000  0.65160000  1.0 -0.3295381554
N  N91  1  0.60250000  0.86100000  0.73160000  1.0 -0.3295381554
N  N92  1  0.57640000  0.77010000  0.72650000  1.0 -0.2579042484
N  N93  1  0.03180000  0.33760000  0.18770000  1.0 -0.3587681813
N  N94  1  0.10790000  0.31340000  0.15160000  1.0 -0.3295381554
N  N95  1  0.10250000  0.36100000  0.23160000  1.0 -0.3295381554
N  N96  1  0.07640000  0.27010000  0.22650000  1.0 -0.2579042484
N  N97  1  0.46820000  0.68770000  0.83760000  1.0 -0.3587681813
N  N98  1  0.39210000  0.65160000  0.81340000  1.0 -0.3295381554
N  N99  1  0.39750000  0.73160000  0.86100000  1.0 -0.3295381554
N  N100  1  0.42360000  0.72650000  0.77010000  1.0 -0.2579042484
N  N101  1  0.96820000  0.18770000  0.33760000  1.0 -0.3587681813
N  N102  1  0.89210000  0.15160000  0.31340000  1.0 -0.3295381554
N  N103  1  0.89750000  0.23160000  0.36100000  1.0 -0.3295381554
N  N104  1  0.92360000  0.22650000  0.27010000  1.0 -0.2579042484
N  N105  1  0.53180000  0.31230000  0.83760000  1.0 -0.3587681813
N  N106  1  0.60790000  0.34840000  0.81340000  1.0 -0.3295381554
N  N107  1  0.60250000  0.26840000  0.86100000  1.0 -0.3295381554
N  N108  1  0.57640000  0.27350000  0.77010000  1.0 -0.2579042484
N  N109  1  0.03180000  0.81230000  0.33760000  1.0 -0.3587681813
N  N110  1  0.10790000  0.84840000  0.31340000  1.0 -0.3295381554
N  N111  1  0.10250000  0.76840000  0.36100000  1.0 -0.3295381554
N  N112  1  0.07640000  0.77350000  0.27010000  1.0 -0.2579042484
N  N113  1  0.46820000  0.31230000  0.16240000  1.0 -0.3587681813
N  N114  1  0.39210000  0.34840000  0.18660000  1.0 -0.3295381554
N  N115  1  0.39750000  0.26840000  0.13900000  1.0 -0.3295381554
N  N116  1  0.42360000  0.27350000  0.22990000  1.0 -0.2579042484
N  N117  1  0.96820000  0.81230000  0.66240000  1.0 -0.3587681813
N  N118  1  0.89210000  0.84840000  0.68660000  1.0 -0.3295381554
N  N119  1  0.89750000  0.76840000  0.63900000  1.0 -0.3295381554
N  N120  1  0.92360000  0.77350000  0.72990000  1.0 -0.2579042484
N  N121  1  0.53180000  0.68770000  0.16240000  1.0 -0.3587681813
N  N122  1  0.60790000  0.65160000  0.18660000  1.0 -0.3295381554
N  N123  1  0.60250000  0.73160000  0.13900000  1.0 -0.3295381554
N  N124  1  0.57640000  0.72650000  0.22990000  1.0 -0.2579042484
N  N125  1  0.03180000  0.18770000  0.66240000  1.0 -0.3587681813
N  N126  1  0.10790000  0.15160000  0.68660000  1.0 -0.3295381554
N  N127  1  0.10250000  0.23160000  0.63900000  1.0 -0.3295381554
N  N128  1  0.07640000  0.22650000  0.72990000  1.0 -0.2579042484
N  N129  1  0.68770000  0.16240000  0.53180000  1.0 -0.3587681813
N  N130  1  0.65160000  0.18660000  0.60790000  1.0 -0.3295381554
N  N131  1  0.73160000  0.13900000  0.60250000  1.0 -0.3295381554
N  N132  1  0.72650000  0.22990000  0.57640000  1.0 -0.2579042484
N  N133  1  0.18770000  0.66240000  0.03180000  1.0 -0.3587681813
N  N134  1  0.15160000  0.68660000  0.10790000  1.0 -0.3295381554
N  N135  1  0.23160000  0.63900000  0.10250000  1.0 -0.3295381554
N  N136  1  0.22650000  0.72990000  0.07640000  1.0 -0.2579042484
N  N137  1  0.31230000  0.16240000  0.46820000  1.0 -0.3587681813
N  N138  1  0.34840000  0.18660000  0.39210000  1.0 -0.3295381554
N  N139  1  0.26840000  0.13900000  0.39750000  1.0 -0.3295381554
N  N140  1  0.27350000  0.22990000  0.42360000  1.0 -0.2579042484
N  N141  1  0.81230000  0.66240000  0.96820000  1.0 -0.3587681813
N  N142  1  0.84840000  0.68660000  0.89210000  1.0 -0.3295381554
N  N143  1  0.76840000  0.63900000  0.89750000  1.0 -0.3295381554
N  N144  1  0.77350000  0.72990000  0.92360000  1.0 -0.2579042484
N  N145  1  0.31230000  0.83760000  0.53180000  1.0 -0.3587681813
N  N146  1  0.34840000  0.81340000  0.60790000  1.0 -0.3295381554
N  N147  1  0.26840000  0.86100000  0.60250000  1.0 -0.3295381554
N  N148  1  0.27350000  0.77010000  0.57640000  1.0 -0.2579042484
N  N149  1  0.81230000  0.33760000  0.03180000  1.0 -0.3587681813
N  N150  1  0.84840000  0.31340000  0.10790000  1.0 -0.3295381554
N  N151  1  0.76840000  0.36100000  0.10250000  1.0 -0.3295381554
N  N152  1  0.77350000  0.27010000  0.07640000  1.0 -0.2579042484
N  N153  1  0.68770000  0.83760000  0.46820000  1.0 -0.3587681813
N  N154  1  0.65160000  0.81340000  0.39210000  1.0 -0.3295381554
N  N155  1  0.73160000  0.86100000  0.39750000  1.0 -0.3295381554
N  N156  1  0.72650000  0.77010000  0.42360000  1.0 -0.2579042484
N  N157  1  0.18770000  0.33760000  0.96820000  1.0 -0.3587681813
N  N158  1  0.15160000  0.31340000  0.89210000  1.0 -0.3295381554
N  N159  1  0.23160000  0.36100000  0.89750000  1.0 -0.3295381554
N  N160  1  0.22650000  0.27010000  0.92360000  1.0 -0.2579042484
N  N161  1  0.16240000  0.46820000  0.31230000  1.0 -0.3587681813
N  N162  1  0.18660000  0.39210000  0.34840000  1.0 -0.3295381554
N  N163  1  0.13900000  0.39750000  0.26840000  1.0 -0.3295381554
N  N164  1  0.22990000  0.42360000  0.27350000  1.0 -0.2579042484
N  N165  1  0.66240000  0.96820000  0.81230000  1.0 -0.3587681813
N  N166  1  0.68660000  0.89210000  0.84840000  1.0 -0.3295381554
N  N167  1  0.63900000  0.89750000  0.76840000  1.0 -0.3295381554
N  N168  1  0.72990000  0.92360000  0.77350000  1.0 -0.2579042484
N  N169  1  0.16240000  0.53180000  0.68770000  1.0 -0.3587681813
N  N170  1  0.18660000  0.60790000  0.65160000  1.0 -0.3295381554
N  N171  1  0.13900000  0.60250000  0.73160000  1.0 -0.3295381554
N  N172  1  0.22990000  0.57640000  0.72650000  1.0 -0.2579042484
N  N173  1  0.66240000  0.03180000  0.18770000  1.0 -0.3587681813
N  N174  1  0.68660000  0.10790000  0.15160000  1.0 -0.3295381554
N  N175  1  0.63900000  0.10250000  0.23160000  1.0 -0.3295381554
N  N176  1  0.72990000  0.07640000  0.22650000  1.0 -0.2579042484
N  N177  1  0.83760000  0.46820000  0.68770000  1.0 -0.3587681813
N  N178  1  0.81340000  0.39210000  0.65160000  1.0 -0.3295381554
N  N179  1  0.86100000  0.39750000  0.73160000  1.0 -0.3295381554
N  N180  1  0.77010000  0.42360000  0.72650000  1.0 -0.2579042484
N  N181  1  0.33760000  0.96820000  0.18770000  1.0 -0.3587681813
N  N182  1  0.31340000  0.89210000  0.15160000  1.0 -0.3295381554
N  N183  1  0.36100000  0.89750000  0.23160000  1.0 -0.3295381554
N  N184  1  0.27010000  0.92360000  0.22650000  1.0 -0.2579042484
N  N185  1  0.83760000  0.53180000  0.31230000  1.0 -0.3587681813
N  N186  1  0.81340000  0.60790000  0.34840000  1.0 -0.3295381554
N  N187  1  0.86100000  0.60250000  0.26840000  1.0 -0.3295381554
N  N188  1  0.77010000  0.57640000  0.27350000  1.0 -0.2579042484
N  N189  1  0.33760000  0.03180000  0.81230000  1.0 -0.3587681813
N  N190  1  0.31340000  0.10790000  0.84840000  1.0 -0.3295381554
N  N191  1  0.36100000  0.10250000  0.76840000  1.0 -0.3295381554
N  N192  1  0.27010000  0.07640000  0.77350000  1.0 -0.2579042484
N  N193  1  0.31230000  0.53180000  0.83760000  1.0 -0.3587681813
N  N194  1  0.34840000  0.60790000  0.81340000  1.0 -0.3295381554
N  N195  1  0.26840000  0.60250000  0.86100000  1.0 -0.3295381554
N  N196  1  0.27350000  0.57640000  0.77010000  1.0 -0.2579042484
N  N197  1  0.81230000  0.03180000  0.33760000  1.0 -0.3587681813
N  N198  1  0.84840000  0.10790000  0.31340000  1.0 -0.3295381554
N  N199  1  0.76840000  0.10250000  0.36100000  1.0 -0.3295381554
N  N200  1  0.77350000  0.07640000  0.27010000  1.0 -0.2579042484
N  N201  1  0.68770000  0.46820000  0.83760000  1.0 -0.3587681813
N  N202  1  0.65160000  0.39210000  0.81340000  1.0 -0.3295381554
N  N203  1  0.73160000  0.39750000  0.86100000  1.0 -0.3295381554
N  N204  1  0.72650000  0.42360000  0.77010000  1.0 -0.2579042484
N  N205  1  0.18770000  0.96820000  0.33760000  1.0 -0.3587681813
N  N206  1  0.15160000  0.89210000  0.31340000  1.0 -0.3295381554
N  N207  1  0.23160000  0.89750000  0.36100000  1.0 -0.3295381554
N  N208  1  0.22650000  0.92360000  0.27010000  1.0 -0.2579042484
N  N209  1  0.68770000  0.53180000  0.16240000  1.0 -0.3587681813
N  N210  1  0.65160000  0.60790000  0.18660000  1.0 -0.3295381554
N  N211  1  0.73160000  0.60250000  0.13900000  1.0 -0.3295381554
N  N212  1  0.72650000  0.57640000  0.22990000  1.0 -0.2579042484
N  N213  1  0.18770000  0.03180000  0.66240000  1.0 -0.3587681813
N  N214  1  0.15160000  0.10790000  0.68660000  1.0 -0.3295381554
N  N215  1  0.23160000  0.10250000  0.63900000  1.0 -0.3295381554
N  N216  1  0.22650000  0.07640000  0.72990000  1.0 -0.2579042484
N  N217  1  0.31230000  0.46820000  0.16240000  1.0 -0.3587681813
N  N218  1  0.34840000  0.39210000  0.18660000  1.0 -0.3295381554
N  N219  1  0.26840000  0.39750000  0.13900000  1.0 -0.3295381554
N  N220  1  0.27350000  0.42360000  0.22990000  1.0 -0.2579042484
N  N221  1  0.81230000  0.96820000  0.66240000  1.0 -0.3587681813
N  N222  1  0.84840000  0.89210000  0.68660000  1.0 -0.3295381554
N  N223  1  0.76840000  0.89750000  0.63900000  1.0 -0.3295381554
N  N224  1  0.77350000  0.92360000  0.72990000  1.0 -0.2579042484
N  N225  1  0.83760000  0.31230000  0.53180000  1.0 -0.3587681813
N  N226  1  0.81340000  0.34840000  0.60790000  1.0 -0.3295381554
N  N227  1  0.86100000  0.26840000  0.60250000  1.0 -0.3295381554
N  N228  1  0.77010000  0.27350000  0.57640000  1.0 -0.2579042484
N  N229  1  0.33760000  0.81230000  0.03180000  1.0 -0.3587681813
N  N230  1  0.31340000  0.84840000  0.10790000  1.0 -0.3295381554
N  N231  1  0.36100000  0.76840000  0.10250000  1.0 -0.3295381554
N  N232  1  0.27010000  0.77350000  0.07640000  1.0 -0.2579042484
N  N233  1  0.83760000  0.68770000  0.46820000  1.0 -0.3587681813
N  N234  1  0.81340000  0.65160000  0.39210000  1.0 -0.3295381554
N  N235  1  0.86100000  0.73160000  0.39750000  1.0 -0.3295381554
N  N236  1  0.77010000  0.72650000  0.42360000  1.0 -0.2579042484
N  N237  1  0.33760000  0.18770000  0.96820000  1.0 -0.3587681813
N  N238  1  0.31340000  0.15160000  0.89210000  1.0 -0.3295381554
N  N239  1  0.36100000  0.23160000  0.89750000  1.0 -0.3295381554
N  N240  1  0.27010000  0.22650000  0.92360000  1.0 -0.2579042484
N  N241  1  0.16240000  0.68770000  0.53180000  1.0 -0.3587681813
N  N242  1  0.18660000  0.65160000  0.60790000  1.0 -0.3295381554
N  N243  1  0.13900000  0.73160000  0.60250000  1.0 -0.3295381554
N  N244  1  0.22990000  0.72650000  0.57640000  1.0 -0.2579042484
N  N245  1  0.66240000  0.18770000  0.03180000  1.0 -0.3587681813
N  N246  1  0.68660000  0.15160000  0.10790000  1.0 -0.3295381554
N  N247  1  0.63900000  0.23160000  0.10250000  1.0 -0.3295381554
N  N248  1  0.72990000  0.22650000  0.07640000  1.0 -0.2579042484
N  N249  1  0.16240000  0.31230000  0.46820000  1.0 -0.3587681813
N  N250  1  0.18660000  0.34840000  0.39210000  1.0 -0.3295381554
N  N251  1  0.13900000  0.26840000  0.39750000  1.0 -0.3295381554
N  N252  1  0.22990000  0.27350000  0.42360000  1.0 -0.2579042484
N  N253  1  0.66240000  0.81230000  0.96820000  1.0 -0.3587681813
N  N254  1  0.68660000  0.84840000  0.89210000  1.0 -0.3295381554
N  N255  1  0.63900000  0.76840000  0.89750000  1.0 -0.3295381554
N  N256  1  0.72990000  0.77350000  0.92360000  1.0 -0.2579042484
N  N257  1  0.53180000  0.83760000  0.31230000  1.0 -0.3587681813
N  N258  1  0.60790000  0.81340000  0.34840000  1.0 -0.3295381554
N  N259  1  0.60250000  0.86100000  0.26840000  1.0 -0.3295381554
N  N260  1  0.57640000  0.77010000  0.27350000  1.0 -0.2579042484
N  N261  1  0.03180000  0.33760000  0.81230000  1.0 -0.3587681813
N  N262  1  0.10790000  0.31340000  0.84840000  1.0 -0.3295381554
N  N263  1  0.10250000  0.36100000  0.76840000  1.0 -0.3295381554
N  N264  1  0.07640000  0.27010000  0.77350000  1.0 -0.2579042484
N  N265  1  0.46820000  0.83760000  0.68770000  1.0 -0.3587681813
N  N266  1  0.39210000  0.81340000  0.65160000  1.0 -0.3295381554
N  N267  1  0.39750000  0.86100000  0.73160000  1.0 -0.3295381554
N  N268  1  0.42360000  0.77010000  0.72650000  1.0 -0.2579042484
N  N269  1  0.96820000  0.33760000  0.18770000  1.0 -0.3587681813
N  N270  1  0.89210000  0.31340000  0.15160000  1.0 -0.3295381554
N  N271  1  0.89750000  0.36100000  0.23160000  1.0 -0.3295381554
N  N272  1  0.92360000  0.27010000  0.22650000  1.0 -0.2579042484
N  N273  1  0.53180000  0.16240000  0.68770000  1.0 -0.3587681813
N  N274  1  0.60790000  0.18660000  0.65160000  1.0 -0.3295381554
N  N275  1  0.60250000  0.13900000  0.73160000  1.0 -0.3295381554
N  N276  1  0.57640000  0.22990000  0.72650000  1.0 -0.2579042484
N  N277  1  0.03180000  0.66240000  0.18770000  1.0 -0.3587681813
N  N278  1  0.10790000  0.68660000  0.15160000  1.0 -0.3295381554
N  N279  1  0.10250000  0.63900000  0.23160000  1.0 -0.3295381554
N  N280  1  0.07640000  0.72990000  0.22650000  1.0 -0.2579042484
N  N281  1  0.46820000  0.16240000  0.31230000  1.0 -0.3587681813
N  N282  1  0.39210000  0.18660000  0.34840000  1.0 -0.3295381554
N  N283  1  0.39750000  0.13900000  0.26840000  1.0 -0.3295381554
N  N284  1  0.42360000  0.22990000  0.27350000  1.0 -0.2579042484
N  N285  1  0.96820000  0.66240000  0.81230000  1.0 -0.3587681813
N  N286  1  0.89210000  0.68660000  0.84840000  1.0 -0.3295381554
N  N287  1  0.89750000  0.63900000  0.76840000  1.0 -0.3295381554
N  N288  1  0.92360000  0.72990000  0.77350000  1.0 -0.2579042484
N  N289  1  0.53180000  0.31230000  0.16240000  1.0 -0.3587681813
N  N290  1  0.60790000  0.34840000  0.18660000  1.0 -0.3295381554
N  N291  1  0.60250000  0.26840000  0.13900000  1.0 -0.3295381554
N  N292  1  0.57640000  0.27350000  0.22990000  1.0 -0.2579042484
N  N293  1  0.03180000  0.81230000  0.66240000  1.0 -0.3587681813
N  N294  1  0.10790000  0.84840000  0.68660000  1.0 -0.3295381554
N  N295  1  0.10250000  0.76840000  0.63900000  1.0 -0.3295381554
N  N296  1  0.07640000  0.77350000  0.72990000  1.0 -0.2579042484
N  N297  1  0.46820000  0.68770000  0.16240000  1.0 -0.3587681813
N  N298  1  0.39210000  0.65160000  0.18660000  1.0 -0.3295381554
N  N299  1  0.39750000  0.73160000  0.13900000  1.0 -0.3295381554
N  N300  1  0.42360000  0.72650000  0.22990000  1.0 -0.2579042484
N  N301  1  0.96820000  0.18770000  0.66240000  1.0 -0.3587681813
N  N302  1  0.89210000  0.15160000  0.68660000  1.0 -0.3295381554
N  N303  1  0.89750000  0.23160000  0.63900000  1.0 -0.3295381554
N  N304  1  0.92360000  0.22650000  0.72990000  1.0 -0.2579042484
N  N305  1  0.53180000  0.68770000  0.83760000  1.0 -0.3587681813
N  N306  1  0.60790000  0.65160000  0.81340000  1.0 -0.3295381554
N  N307  1  0.60250000  0.73160000  0.86100000  1.0 -0.3295381554
N  N308  1  0.57640000  0.72650000  0.77010000  1.0 -0.2579042484
N  N309  1  0.03180000  0.18770000  0.33760000  1.0 -0.3587681813
N  N310  1  0.10790000  0.15160000  0.31340000  1.0 -0.3295381554
N  N311  1  0.10250000  0.23160000  0.36100000  1.0 -0.3295381554
N  N312  1  0.07640000  0.22650000  0.27010000  1.0 -0.2579042484
N  N313  1  0.46820000  0.31230000  0.83760000  1.0 -0.3587681813
N  N314  1  0.39210000  0.34840000  0.81340000  1.0 -0.3295381554
N  N315  1  0.39750000  0.26840000  0.86100000  1.0 -0.3295381554
N  N316  1  0.42360000  0.27350000  0.77010000  1.0 -0.2579042484
N  N317  1  0.96820000  0.81230000  0.33760000  1.0 -0.3587681813
N  N318  1  0.89210000  0.84840000  0.31340000  1.0 -0.3295381554
N  N319  1  0.89750000  0.76840000  0.36100000  1.0 -0.3295381554
N  N320  1  0.92360000  0.77350000  0.27010000  1.0 -0.2579042484
N  N321  1  0.31230000  0.83760000  0.46820000  1.0 -0.3587681813
N  N322  1  0.34840000  0.81340000  0.39210000  1.0 -0.3295381554
N  N323  1  0.26840000  0.86100000  0.39750000  1.0 -0.3295381554
N  N324  1  0.27350000  0.77010000  0.42360000  1.0 -0.2579042484
N  N325  1  0.81230000  0.33760000  0.96820000  1.0 -0.3587681813
N  N326  1  0.84840000  0.31340000  0.89210000  1.0 -0.3295381554
N  N327  1  0.76840000  0.36100000  0.89750000  1.0 -0.3295381554
N  N328  1  0.77350000  0.27010000  0.92360000  1.0 -0.2579042484
N  N329  1  0.68770000  0.83760000  0.53180000  1.0 -0.3587681813
N  N330  1  0.65160000  0.81340000  0.60790000  1.0 -0.3295381554
N  N331  1  0.73160000  0.86100000  0.60250000  1.0 -0.3295381554
N  N332  1  0.72650000  0.77010000  0.57640000  1.0 -0.2579042484
N  N333  1  0.18770000  0.33760000  0.03180000  1.0 -0.3587681813
N  N334  1  0.15160000  0.31340000  0.10790000  1.0 -0.3295381554
N  N335  1  0.23160000  0.36100000  0.10250000  1.0 -0.3295381554
N  N336  1  0.22650000  0.27010000  0.07640000  1.0 -0.2579042484
N  N337  1  0.68770000  0.16240000  0.46820000  1.0 -0.3587681813
N  N338  1  0.65160000  0.18660000  0.39210000  1.0 -0.3295381554
N  N339  1  0.73160000  0.13900000  0.39750000  1.0 -0.3295381554
N  N340  1  0.72650000  0.22990000  0.42360000  1.0 -0.2579042484
N  N341  1  0.18770000  0.66240000  0.96820000  1.0 -0.3587681813
N  N342  1  0.15160000  0.68660000  0.89210000  1.0 -0.3295381554
N  N343  1  0.23160000  0.63900000  0.89750000  1.0 -0.3295381554
N  N344  1  0.22650000  0.72990000  0.92360000  1.0 -0.2579042484
N  N345  1  0.31230000  0.16240000  0.53180000  1.0 -0.3587681813
N  N346  1  0.34840000  0.18660000  0.60790000  1.0 -0.3295381554
N  N347  1  0.26840000  0.13900000  0.60250000  1.0 -0.3295381554
N  N348  1  0.27350000  0.22990000  0.57640000  1.0 -0.2579042484
N  N349  1  0.81230000  0.66240000  0.03180000  1.0 -0.3587681813
N  N350  1  0.84840000  0.68660000  0.10790000  1.0 -0.3295381554
N  N351  1  0.76840000  0.63900000  0.10250000  1.0 -0.3295381554
N  N352  1  0.77350000  0.72990000  0.07640000  1.0 -0.2579042484
N  N353  1  0.83760000  0.53180000  0.68770000  1.0 -0.3587681813
N  N354  1  0.81340000  0.60790000  0.65160000  1.0 -0.3295381554
N  N355  1  0.86100000  0.60250000  0.73160000  1.0 -0.3295381554
N  N356  1  0.77010000  0.57640000  0.72650000  1.0 -0.2579042484
N  N357  1  0.33760000  0.03180000  0.18770000  1.0 -0.3587681813
N  N358  1  0.31340000  0.10790000  0.15160000  1.0 -0.3295381554
N  N359  1  0.36100000  0.10250000  0.23160000  1.0 -0.3295381554
N  N360  1  0.27010000  0.07640000  0.22650000  1.0 -0.2579042484
N  N361  1  0.83760000  0.46820000  0.31230000  1.0 -0.3587681813
N  N362  1  0.81340000  0.39210000  0.34840000  1.0 -0.3295381554
N  N363  1  0.86100000  0.39750000  0.26840000  1.0 -0.3295381554
N  N364  1  0.77010000  0.42360000  0.27350000  1.0 -0.2579042484
N  N365  1  0.33760000  0.96820000  0.81230000  1.0 -0.3587681813
N  N366  1  0.31340000  0.89210000  0.84840000  1.0 -0.3295381554
N  N367  1  0.36100000  0.89750000  0.76840000  1.0 -0.3295381554
N  N368  1  0.27010000  0.92360000  0.77350000  1.0 -0.2579042484
N  N369  1  0.16240000  0.53180000  0.31230000  1.0 -0.3587681813
N  N370  1  0.18660000  0.60790000  0.34840000  1.0 -0.3295381554
N  N371  1  0.13900000  0.60250000  0.26840000  1.0 -0.3295381554
N  N372  1  0.22990000  0.57640000  0.27350000  1.0 -0.2579042484
N  N373  1  0.66240000  0.03180000  0.81230000  1.0 -0.3587681813
N  N374  1  0.68660000  0.10790000  0.84840000  1.0 -0.3295381554
N  N375  1  0.63900000  0.10250000  0.76840000  1.0 -0.3295381554
N  N376  1  0.72990000  0.07640000  0.77350000  1.0 -0.2579042484
N  N377  1  0.16240000  0.46820000  0.68770000  1.0 -0.3587681813
N  N378  1  0.18660000  0.39210000  0.65160000  1.0 -0.3295381554
N  N379  1  0.13900000  0.39750000  0.73160000  1.0 -0.3295381554
N  N380  1  0.22990000  0.42360000  0.72650000  1.0 -0.2579042484
N  N381  1  0.66240000  0.96820000  0.18770000  1.0 -0.3587681813
N  N382  1  0.68660000  0.89210000  0.15160000  1.0 -0.3295381554
N  N383  1  0.63900000  0.89750000  0.23160000  1.0 -0.3295381554
N  N384  1  0.72990000  0.92360000  0.22650000  1.0 -0.2579042484
N  N385  1  0.75000000  0.33760000  0.16240000  1.0 0.4661200276
N  N386  1  0.25000000  0.66240000  0.16240000  1.0 0.4661200276
N  N387  1  0.25000000  0.33760000  0.83760000  1.0 0.4661200276
N  N388  1  0.75000000  0.66240000  0.83760000  1.0 0.4661200276
N  N389  1  0.16240000  0.75000000  0.33760000  1.0 0.4661200276
N  N390  1  0.16240000  0.25000000  0.66240000  1.0 0.4661200276
N  N391  1  0.83760000  0.25000000  0.33760000  1.0 0.4661200276
N  N392  1  0.83760000  0.75000000  0.66240000  1.0 0.4661200276
N  N393  1  0.33760000  0.16240000  0.75000000  1.0 0.4661200276
N  N394  1  0.66240000  0.16240000  0.25000000  1.0 0.4661200276
N  N395  1  0.33760000  0.83760000  0.25000000  1.0 0.4661200276
N  N396  1  0.66240000  0.83760000  0.75000000  1.0 0.4661200276
N  N397  1  0.33760000  0.75000000  0.83760000  1.0 0.4661200276
N  N398  1  0.66240000  0.25000000  0.83760000  1.0 0.4661200276
N  N399  1  0.33760000  0.25000000  0.16240000  1.0 0.4661200276
N  N400  1  0.66240000  0.75000000  0.16240000  1.0 0.4661200276
N  N401  1  0.75000000  0.16240000  0.66240000  1.0 0.4661200276
N  N402  1  0.25000000  0.16240000  0.33760000  1.0 0.4661200276
N  N403  1  0.25000000  0.83760000  0.66240000  1.0 0.4661200276
N  N404  1  0.75000000  0.83760000  0.33760000  1.0 0.4661200276
N  N405  1  0.16240000  0.33760000  0.25000000  1.0 0.4661200276
N  N406  1  0.16240000  0.66240000  0.75000000  1.0 0.4661200276
N  N407  1  0.83760000  0.33760000  0.75000000  1.0 0.4661200276
N  N408  1  0.83760000  0.66240000  0.25000000  1.0 0.4661200276
N  N409  1  0.25000000  0.66240000  0.83760000  1.0 0.4661200276
N  N410  1  0.75000000  0.33760000  0.83760000  1.0 0.4661200276
N  N411  1  0.75000000  0.66240000  0.16240000  1.0 0.4661200276
N  N412  1  0.25000000  0.33760000  0.16240000  1.0 0.4661200276
N  N413  1  0.83760000  0.25000000  0.66240000  1.0 0.4661200276
N  N414  1  0.83760000  0.75000000  0.33760000  1.0 0.4661200276
N  N415  1  0.16240000  0.75000000  0.66240000  1.0 0.4661200276
N  N416  1  0.16240000  0.25000000  0.33760000  1.0 0.4661200276
N  N417  1  0.66240000  0.83760000  0.25000000  1.0 0.4661200276
N  N418  1  0.33760000  0.83760000  0.75000000  1.0 0.4661200276
N  N419  1  0.66240000  0.16240000  0.75000000  1.0 0.4661200276
N  N420  1  0.33760000  0.16240000  0.25000000  1.0 0.4661200276
N  N421  1  0.66240000  0.25000000  0.16240000  1.0 0.4661200276
N  N422  1  0.33760000  0.75000000  0.16240000  1.0 0.4661200276
N  N423  1  0.66240000  0.75000000  0.83760000  1.0 0.4661200276
N  N424  1  0.33760000  0.25000000  0.83760000  1.0 0.4661200276
N  N425  1  0.25000000  0.83760000  0.33760000  1.0 0.4661200276
N  N426  1  0.75000000  0.83760000  0.66240000  1.0 0.4661200276
N  N427  1  0.75000000  0.16240000  0.33760000  1.0 0.4661200276
N  N428  1  0.25000000  0.16240000  0.66240000  1.0 0.4661200276
N  N429  1  0.83760000  0.66240000  0.75000000  1.0 0.4661200276
N  N430  1  0.83760000  0.33760000  0.25000000  1.0 0.4661200276
N  N431  1  0.16240000  0.66240000  0.25000000  1.0 0.4661200276
N  N432  1  0.16240000  0.33760000  0.75000000  1.0 0.4661200276
Cl  Cl1  1  0.63220000  0.50580000  0.31110000  0.25 0.0807255159
Cl  Cl2  1  0.57140000  0.49660000  0.24360000  0.25 -0.0312043704
Cl  Cl3  1  0.13220000  0.00580000  0.81110000  0.25 0.0807255159
Cl  Cl4  1  0.07140000  0.99660000  0.74360000  0.25 -0.0312043704
Cl  Cl5  1  0.36780000  0.49420000  0.31110000  0.25 0.0807255159
Cl  Cl6  1  0.42860000  0.50340000  0.24360000  0.25 -0.0312043704
Cl  Cl7  1  0.86780000  0.99420000  0.81110000  0.25 0.0807255159
Cl  Cl8  1  0.92860000  0.00340000  0.74360000  0.25 -0.0312043704
Cl  Cl9  1  0.36780000  0.50580000  0.68890000  0.25 0.0807255159
Cl  Cl10  1  0.42860000  0.49660000  0.75640000  0.25 -0.0312043704
Cl  Cl11  1  0.86780000  0.00580000  0.18890000  0.25 0.0807255159
Cl  Cl12  1  0.92860000  0.99660000  0.25640000  0.25 -0.0312043704
Cl  Cl13  1  0.63220000  0.49420000  0.68890000  0.25 0.0807255159
Cl  Cl14  1  0.57140000  0.50340000  0.75640000  0.25 -0.0312043704
Cl  Cl15  1  0.13220000  0.99420000  0.18890000  0.25 0.0807255159
Cl  Cl16  1  0.07140000  0.00340000  0.25640000  0.25 -0.0312043704
Cl  Cl17  1  0.31110000  0.63220000  0.50580000  0.25 0.0807255159
Cl  Cl18  1  0.24360000  0.57140000  0.49660000  0.25 -0.0312043704
Cl  Cl19  1  0.81110000  0.13220000  0.00580000  0.25 0.0807255159
Cl  Cl20  1  0.74360000  0.07140000  0.99660000  0.25 -0.0312043704
Cl  Cl21  1  0.31110000  0.36780000  0.49420000  0.25 0.0807255159
Cl  Cl22  1  0.24360000  0.42860000  0.50340000  0.25 -0.0312043704
Cl  Cl23  1  0.81110000  0.86780000  0.99420000  0.25 0.0807255159
Cl  Cl24  1  0.74360000  0.92860000  0.00340000  0.25 -0.0312043704
Cl  Cl25  1  0.68890000  0.36780000  0.50580000  0.25 0.0807255159
Cl  Cl26  1  0.75640000  0.42860000  0.49660000  0.25 -0.0312043704
Cl  Cl27  1  0.18890000  0.86780000  0.00580000  0.25 0.0852661958
Cl  Cl28  1  0.25640000  0.92860000  0.99660000  0.25 -0.0312043704
Cl  Cl29  1  0.68890000  0.63220000  0.49420000  0.25 0.0807255159
Cl  Cl30  1  0.75640000  0.57140000  0.50340000  0.25 -0.0312043704
Cl  Cl31  1  0.18890000  0.13220000  0.99420000  0.25 0.0807255159
Cl  Cl32  1  0.25640000  0.07140000  0.00340000  0.25 -0.0312043704
Cl  Cl33  1  0.50580000  0.31110000  0.63220000  0.25 0.0807255159
Cl  Cl34  1  0.49660000  0.24360000  0.57140000  0.25 -0.0312043704
Cl  Cl35  1  0.00580000  0.81110000  0.13220000  0.25 0.0852661958
Cl  Cl36  1  0.99660000  0.74360000  0.07140000  0.25 -0.0312043704
Cl  Cl37  1  0.49420000  0.31110000  0.36780000  0.25 0.0807255159
Cl  Cl38  1  0.50340000  0.24360000  0.42860000  0.25 -0.0312043704
Cl  Cl39  1  0.99420000  0.81110000  0.86780000  0.25 0.0807255159
Cl  Cl40  1  0.00340000  0.74360000  0.92860000  0.25 -0.0312043704
Cl  Cl41  1  0.50580000  0.68890000  0.36780000  0.25 0.0807255159
Cl  Cl42  1  0.49660000  0.75640000  0.42860000  0.25 -0.0312043704
Cl  Cl43  1  0.00580000  0.18890000  0.86780000  0.25 0.0807255159
Cl  Cl44  1  0.99660000  0.25640000  0.92860000  0.25 -0.0312043704
Cl  Cl45  1  0.49420000  0.68890000  0.63220000  0.25 0.0807255159
Cl  Cl46  1  0.50340000  0.75640000  0.57140000  0.25 -0.0312043704
Cl  Cl47  1  0.99420000  0.18890000  0.13220000  0.25 0.0807255159
Cl  Cl48  1  0.00340000  0.25640000  0.07140000  0.25 -0.0312043704
Cl  Cl49  1  0.50580000  0.63220000  0.68890000  0.25 0.0807255159
Cl  Cl50  1  0.49660000  0.57140000  0.75640000  0.25 -0.0312043704
Cl  Cl51  1  0.00580000  0.13220000  0.18890000  0.25 0.0807255159
Cl  Cl52  1  0.99660000  0.07140000  0.25640000  0.25 -0.0312043704
Cl  Cl53  1  0.49420000  0.36780000  0.68890000  0.25 0.0807255159
Cl  Cl54  1  0.50340000  0.42860000  0.75640000  0.25 -0.0312043704
Cl  Cl55  1  0.99420000  0.86780000  0.18890000  0.25 0.0807255159
Cl  Cl56  1  0.00340000  0.92860000  0.25640000  0.25 -0.0312043704
Cl  Cl57  1  0.50580000  0.36780000  0.31110000  0.25 0.0807255159
Cl  Cl58  1  0.49660000  0.42860000  0.24360000  0.25 -0.0312043704
Cl  Cl59  1  0.00580000  0.86780000  0.81110000  0.25 0.0852661958
Cl  Cl60  1  0.99660000  0.92860000  0.74360000  0.25 -0.0312043704
Cl  Cl61  1  0.49420000  0.63220000  0.31110000  0.25 0.0807255159
Cl  Cl62  1  0.50340000  0.57140000  0.24360000  0.25 -0.0312043704
Cl  Cl63  1  0.99420000  0.13220000  0.81110000  0.25 0.0807255159
Cl  Cl64  1  0.00340000  0.07140000  0.74360000  0.25 -0.0312043704
Cl  Cl65  1  0.63220000  0.31110000  0.49420000  0.25 0.0807255159
Cl  Cl66  1  0.57140000  0.24360000  0.50340000  0.25 -0.0312043704
Cl  Cl67  1  0.13220000  0.81110000  0.99420000  0.25 0.0807255159
Cl  Cl68  1  0.07140000  0.74360000  0.00340000  0.25 -0.0312043704
Cl  Cl69  1  0.36780000  0.31110000  0.50580000  0.25 0.0807255159
Cl  Cl70  1  0.42860000  0.24360000  0.49660000  0.25 -0.0312043704
Cl  Cl71  1  0.86780000  0.81110000  0.00580000  0.25 0.0852661958
Cl  Cl72  1  0.92860000  0.74360000  0.99660000  0.25 -0.0312043704
Cl  Cl73  1  0.36780000  0.68890000  0.49420000  0.25 0.0807255159
Cl  Cl74  1  0.42860000  0.75640000  0.50340000  0.25 -0.0312043704
Cl  Cl75  1  0.86780000  0.18890000  0.99420000  0.25 0.0807255159
Cl  Cl76  1  0.92860000  0.25640000  0.00340000  0.25 -0.0312043704
Cl  Cl77  1  0.63220000  0.68890000  0.50580000  0.25 0.0807255159
Cl  Cl78  1  0.57140000  0.75640000  0.49660000  0.25 -0.0312043704
Cl  Cl79  1  0.13220000  0.18890000  0.00580000  0.25 0.0807255159
Cl  Cl80  1  0.07140000  0.25640000  0.99660000  0.25 -0.0312043704
Cl  Cl81  1  0.31110000  0.50580000  0.36780000  0.25 0.0807255159
Cl  Cl82  1  0.24360000  0.49660000  0.42860000  0.25 -0.0312043704
Cl  Cl83  1  0.81110000  0.00580000  0.86780000  0.25 0.0807255159
Cl  Cl84  1  0.74360000  0.99660000  0.92860000  0.25 -0.0312043704
Cl  Cl85  1  0.31110000  0.49420000  0.63220000  0.25 0.0807255159
Cl  Cl86  1  0.24360000  0.50340000  0.57140000  0.25 -0.0312043704
Cl  Cl87  1  0.81110000  0.99420000  0.13220000  0.25 0.0807255159
Cl  Cl88  1  0.74360000  0.00340000  0.07140000  0.25 -0.0312043704
Cl  Cl89  1  0.68890000  0.50580000  0.63220000  0.25 0.0807255159
Cl  Cl90  1  0.75640000  0.49660000  0.57140000  0.25 -0.0312043704
Cl  Cl91  1  0.18890000  0.00580000  0.13220000  0.25 0.0807255159
Cl  Cl92  1  0.25640000  0.99660000  0.07140000  0.25 -0.0312043704
Cl  Cl93  1  0.68890000  0.49420000  0.36780000  0.25 0.0807255159
Cl  Cl94  1  0.75640000  0.50340000  0.42860000  0.25 -0.0312043704
Cl  Cl95  1  0.18890000  0.99420000  0.86780000  0.25 0.0807255159
Cl  Cl96  1  0.25640000  0.00340000  0.92860000  0.25 -0.0312043704
Cl  Cl97  1  0.36780000  0.49420000  0.68890000  0.25 0.0807255159
Cl  Cl98  1  0.42860000  0.50340000  0.75640000  0.25 -0.0312043704
Cl  Cl99  1  0.86780000  0.99420000  0.18890000  0.25 0.0807255159
Cl  Cl100  1  0.92860000  0.00340000  0.25640000  0.25 -0.0312043704
Cl  Cl101  1  0.63220000  0.50580000  0.68890000  0.25 0.0807255159
Cl  Cl102  1  0.57140000  0.49660000  0.75640000  0.25 -0.0312043704
Cl  Cl103  1  0.13220000  0.00580000  0.18890000  0.25 0.0807255159
Cl  Cl104  1  0.07140000  0.99660000  0.25640000  0.25 -0.0312043704
Cl  Cl105  1  0.63220000  0.49420000  0.31110000  0.25 0.0807255159
Cl  Cl106  1  0.57140000  0.50340000  0.24360000  0.25 -0.0312043704
Cl  Cl107  1  0.13220000  0.99420000  0.81110000  0.25 0.0807255159
Cl  Cl108  1  0.07140000  0.00340000  0.74360000  0.25 -0.0312043704
Cl  Cl109  1  0.36780000  0.50580000  0.31110000  0.25 0.0807255159
Cl  Cl110  1  0.42860000  0.49660000  0.24360000  0.25 -0.0312043704
Cl  Cl111  1  0.86780000  0.00580000  0.81110000  0.25 0.0807255159
Cl  Cl112  1  0.92860000  0.99660000  0.74360000  0.25 -0.0312043704
Cl  Cl113  1  0.68890000  0.36780000  0.49420000  0.25 0.0807255159
Cl  Cl114  1  0.75640000  0.42860000  0.50340000  0.25 -0.0312043704
Cl  Cl115  1  0.18890000  0.86780000  0.99420000  0.25 0.0807255159
Cl  Cl116  1  0.25640000  0.92860000  0.00340000  0.25 -0.0312043704
Cl  Cl117  1  0.68890000  0.63220000  0.50580000  0.25 0.0807255159
Cl  Cl118  1  0.75640000  0.57140000  0.49660000  0.25 -0.0312043704
Cl  Cl119  1  0.18890000  0.13220000  0.00580000  0.25 0.0807255159
Cl  Cl120  1  0.25640000  0.07140000  0.99660000  0.25 -0.0312043704
Cl  Cl121  1  0.31110000  0.63220000  0.49420000  0.25 0.0807255159
Cl  Cl122  1  0.24360000  0.57140000  0.50340000  0.25 -0.0312043704
Cl  Cl123  1  0.81110000  0.13220000  0.99420000  0.25 0.0807255159
Cl  Cl124  1  0.74360000  0.07140000  0.00340000  0.25 -0.0312043704
Cl  Cl125  1  0.31110000  0.36780000  0.50580000  0.25 0.0807255159
Cl  Cl126  1  0.24360000  0.42860000  0.49660000  0.25 -0.0312043704
Cl  Cl127  1  0.81110000  0.86780000  0.00580000  0.25 0.0852661958
Cl  Cl128  1  0.74360000  0.92860000  0.99660000  0.25 -0.0312043704
Cl  Cl129  1  0.49420000  0.68890000  0.36780000  0.25 0.0807255159
Cl  Cl130  1  0.50340000  0.75640000  0.42860000  0.25 -0.0312043704
Cl  Cl131  1  0.99420000  0.18890000  0.86780000  0.25 0.0807255159
Cl  Cl132  1  0.00340000  0.25640000  0.92860000  0.25 -0.0312043704
Cl  Cl133  1  0.50580000  0.68890000  0.63220000  0.25 0.0807255159
Cl  Cl134  1  0.49660000  0.75640000  0.57140000  0.25 -0.0312043704
Cl  Cl135  1  0.00580000  0.18890000  0.13220000  0.25 0.0807255159
Cl  Cl136  1  0.99660000  0.25640000  0.07140000  0.25 -0.0312043704
Cl  Cl137  1  0.49420000  0.31110000  0.63220000  0.25 0.0807255159
Cl  Cl138  1  0.50340000  0.24360000  0.57140000  0.25 -0.0312043704
Cl  Cl139  1  0.99420000  0.81110000  0.13220000  0.25 0.0807255159
Cl  Cl140  1  0.00340000  0.74360000  0.07140000  0.25 -0.0312043704
Cl  Cl141  1  0.50580000  0.31110000  0.36780000  0.25 0.0807255159
Cl  Cl142  1  0.49660000  0.24360000  0.42860000  0.25 -0.0312043704
Cl  Cl143  1  0.00580000  0.81110000  0.86780000  0.25 0.0852661958
Cl  Cl144  1  0.99660000  0.74360000  0.92860000  0.25 -0.0312043704
Cl  Cl145  1  0.49420000  0.36780000  0.31110000  0.25 0.0807255159
Cl  Cl146  1  0.50340000  0.42860000  0.24360000  0.25 -0.0312043704
Cl  Cl147  1  0.99420000  0.86780000  0.81110000  0.25 0.0807255159
Cl  Cl148  1  0.00340000  0.92860000  0.74360000  0.25 -0.0312043704
Cl  Cl149  1  0.50580000  0.63220000  0.31110000  0.25 0.0807255159
Cl  Cl150  1  0.49660000  0.57140000  0.24360000  0.25 -0.0312043704
Cl  Cl151  1  0.00580000  0.13220000  0.81110000  0.25 0.0807255159
Cl  Cl152  1  0.99660000  0.07140000  0.74360000  0.25 -0.0312043704
Cl  Cl153  1  0.49420000  0.63220000  0.68890000  0.25 0.0807255159
Cl  Cl154  1  0.50340000  0.57140000  0.75640000  0.25 -0.0312043704
Cl  Cl155  1  0.99420000  0.13220000  0.18890000  0.25 0.0807255159
Cl  Cl156  1  0.00340000  0.07140000  0.25640000  0.25 -0.0312043704
Cl  Cl157  1  0.50580000  0.36780000  0.68890000  0.25 0.0807255159
Cl  Cl158  1  0.49660000  0.42860000  0.75640000  0.25 -0.0312043704
Cl  Cl159  1  0.00580000  0.86780000  0.18890000  0.25 0.0852661958
Cl  Cl160  1  0.99660000  0.92860000  0.25640000  0.25 -0.0312043704
Cl  Cl161  1  0.36780000  0.68890000  0.50580000  0.25 0.0807255159
Cl  Cl162  1  0.42860000  0.75640000  0.49660000  0.25 -0.0312043704
Cl  Cl163  1  0.86780000  0.18890000  0.00580000  0.25 0.0807255159
Cl  Cl164  1  0.92860000  0.25640000  0.99660000  0.25 -0.0312043704
Cl  Cl165  1  0.63220000  0.68890000  0.49420000  0.25 0.0807255159
Cl  Cl166  1  0.57140000  0.75640000  0.50340000  0.25 -0.0312043704
Cl  Cl167  1  0.13220000  0.18890000  0.99420000  0.25 0.0807255159
Cl  Cl168  1  0.07140000  0.25640000  0.00340000  0.25 -0.0312043704
Cl  Cl169  1  0.63220000  0.31110000  0.50580000  0.25 0.0807255159
Cl  Cl170  1  0.57140000  0.24360000  0.49660000  0.25 -0.0312043704
Cl  Cl171  1  0.13220000  0.81110000  0.00580000  0.25 0.0807255159
Cl  Cl172  1  0.07140000  0.74360000  0.99660000  0.25 -0.0312043704
Cl  Cl173  1  0.36780000  0.31110000  0.49420000  0.25 0.0807255159
Cl  Cl174  1  0.42860000  0.24360000  0.50340000  0.25 -0.0312043704
Cl  Cl175  1  0.86780000  0.81110000  0.99420000  0.25 0.0807255159
Cl  Cl176  1  0.92860000  0.74360000  0.00340000  0.25 -0.0312043704
Cl  Cl177  1  0.68890000  0.49420000  0.63220000  0.25 0.0807255159
Cl  Cl178  1  0.75640000  0.50340000  0.57140000  0.25 -0.0312043704
Cl  Cl179  1  0.18890000  0.99420000  0.13220000  0.25 0.0807255159
Cl  Cl180  1  0.25640000  0.00340000  0.07140000  0.25 -0.0312043704
Cl  Cl181  1  0.68890000  0.50580000  0.36780000  0.25 0.0807255159
Cl  Cl182  1  0.75640000  0.49660000  0.42860000  0.25 -0.0312043704
Cl  Cl183  1  0.18890000  0.00580000  0.86780000  0.25 0.0807255159
Cl  Cl184  1  0.25640000  0.99660000  0.92860000  0.25 -0.0312043704
Cl  Cl185  1  0.31110000  0.49420000  0.36780000  0.25 0.0807255159
Cl  Cl186  1  0.24360000  0.50340000  0.42860000  0.25 -0.0312043704
Cl  Cl187  1  0.81110000  0.99420000  0.86780000  0.25 0.0807255159
Cl  Cl188  1  0.74360000  0.00340000  0.92860000  0.25 -0.0312043704
Cl  Cl189  1  0.31110000  0.50580000  0.63220000  0.25 0.0807255159
Cl  Cl190  1  0.24360000  0.49660000  0.57140000  0.25 -0.0312043704
Cl  Cl191  1  0.81110000  0.00580000  0.13220000  0.25 0.0807255159
Cl  Cl192  1  0.74360000  0.99660000  0.07140000  0.25 -0.0312043704
Cl  Cl193  1  0.59950000  0.45760000  0.04780000  0.5 -0.1733337834
Cl  Cl194  1  0.09950000  0.95760000  0.54780000  0.5 -0.1733337834
Cl  Cl195  1  0.40050000  0.54240000  0.04780000  0.5 -0.1733337834
Cl  Cl196  1  0.90050000  0.04240000  0.54780000  0.5 -0.1733337834
Cl  Cl197  1  0.40050000  0.45760000  0.95220000  0.5 -0.1733337834
Cl  Cl198  1  0.90050000  0.95760000  0.45220000  0.5 -0.1733337834
Cl  Cl199  1  0.59950000  0.54240000  0.95220000  0.5 -0.1733337834
Cl  Cl200  1  0.09950000  0.04240000  0.45220000  0.5 -0.1733337834
Cl  Cl201  1  0.04780000  0.59950000  0.45760000  0.5 -0.1733337834
Cl  Cl202  1  0.54780000  0.09950000  0.95760000  0.5 -0.1733337834
Cl  Cl203  1  0.04780000  0.40050000  0.54240000  0.5 -0.1733337834
Cl  Cl204  1  0.54780000  0.90050000  0.04240000  0.5 -0.1733337834
Cl  Cl205  1  0.95220000  0.40050000  0.45760000  0.5 -0.1733337834
Cl  Cl206  1  0.45220000  0.90050000  0.95760000  0.5 -0.1733337834
Cl  Cl207  1  0.95220000  0.59950000  0.54240000  0.5 -0.1733337834
Cl  Cl208  1  0.45220000  0.09950000  0.04240000  0.5 -0.1733337834
Cl  Cl209  1  0.45760000  0.04780000  0.59950000  0.5 -0.1733337834
Cl  Cl210  1  0.95760000  0.54780000  0.09950000  0.5 -0.1733337834
Cl  Cl211  1  0.54240000  0.04780000  0.40050000  0.5 -0.1733337834
Cl  Cl212  1  0.04240000  0.54780000  0.90050000  0.5 -0.1733337834
Cl  Cl213  1  0.45760000  0.95220000  0.40050000  0.5 -0.1733337834
Cl  Cl214  1  0.95760000  0.45220000  0.90050000  0.5 -0.1733337834
Cl  Cl215  1  0.54240000  0.95220000  0.59950000  0.5 -0.1733337834
Cl  Cl216  1  0.04240000  0.45220000  0.09950000  0.5 -0.1733337834
Cl  Cl217  1  0.45760000  0.59950000  0.95220000  0.5 -0.1733337834
Cl  Cl218  1  0.95760000  0.09950000  0.45220000  0.5 -0.1733337834
Cl  Cl219  1  0.54240000  0.40050000  0.95220000  0.5 -0.1733337834
Cl  Cl220  1  0.04240000  0.90050000  0.45220000  0.5 -0.1733337834
Cl  Cl221  1  0.45760000  0.40050000  0.04780000  0.5 -0.1733337834
Cl  Cl222  1  0.95760000  0.90050000  0.54780000  0.5 -0.1733337834
Cl  Cl223  1  0.54240000  0.59950000  0.04780000  0.5 -0.1733337834
Cl  Cl224  1  0.04240000  0.09950000  0.54780000  0.5 -0.1733337834
Cl  Cl225  1  0.59950000  0.04780000  0.54240000  0.5 -0.1733337834
Cl  Cl226  1  0.09950000  0.54780000  0.04240000  0.5 -0.1733337834
Cl  Cl227  1  0.40050000  0.04780000  0.45760000  0.5 -0.1733337834
Cl  Cl228  1  0.90050000  0.54780000  0.95760000  0.5 -0.1733337834
Cl  Cl229  1  0.40050000  0.95220000  0.54240000  0.5 -0.1733337834
Cl  Cl230  1  0.90050000  0.45220000  0.04240000  0.5 -0.1733337834
Cl  Cl231  1  0.59950000  0.95220000  0.45760000  0.5 -0.1733337834
Cl  Cl232  1  0.09950000  0.45220000  0.95760000  0.5 -0.1733337834
Cl  Cl233  1  0.04780000  0.45760000  0.40050000  0.5 -0.1733337834
Cl  Cl234  1  0.54780000  0.95760000  0.90050000  0.5 -0.1733337834
Cl  Cl235  1  0.04780000  0.54240000  0.59950000  0.5 -0.1733337834
Cl  Cl236  1  0.54780000  0.04240000  0.09950000  0.5 -0.1733337834
Cl  Cl237  1  0.95220000  0.45760000  0.59950000  0.5 -0.1733337834
Cl  Cl238  1  0.45220000  0.95760000  0.09950000  0.5 -0.1733337834
Cl  Cl239  1  0.95220000  0.54240000  0.40050000  0.5 -0.1733337834
Cl  Cl240  1  0.45220000  0.04240000  0.90050000  0.5 -0.1733337834
Cl  Cl241  1  0.40050000  0.54240000  0.95220000  0.5 -0.1733337834
Cl  Cl242  1  0.90050000  0.04240000  0.45220000  0.5 -0.1733337834
Cl  Cl243  1  0.59950000  0.45760000  0.95220000  0.5 -0.1733337834
Cl  Cl244  1  0.09950000  0.95760000  0.45220000  0.5 -0.1733337834
Cl  Cl245  1  0.59950000  0.54240000  0.04780000  0.5 -0.1733337834
Cl  Cl246  1  0.09950000  0.04240000  0.54780000  0.5 -0.1733337834
Cl  Cl247  1  0.40050000  0.45760000  0.04780000  0.5 -0.1733337834
Cl  Cl248  1  0.90050000  0.95760000  0.54780000  0.5 -0.1733337834
Cl  Cl249  1  0.95220000  0.40050000  0.54240000  0.5 -0.1733337834
Cl  Cl250  1  0.45220000  0.90050000  0.04240000  0.5 -0.1733337834
Cl  Cl251  1  0.95220000  0.59950000  0.45760000  0.5 -0.1733337834
Cl  Cl252  1  0.45220000  0.09950000  0.95760000  0.5 -0.1733337834
Cl  Cl253  1  0.04780000  0.59950000  0.54240000  0.5 -0.1733337834
Cl  Cl254  1  0.54780000  0.09950000  0.04240000  0.5 -0.1733337834
Cl  Cl255  1  0.04780000  0.40050000  0.45760000  0.5 -0.1733337834
Cl  Cl256  1  0.54780000  0.90050000  0.95760000  0.5 -0.1733337834
Cl  Cl257  1  0.54240000  0.95220000  0.40050000  0.5 -0.1733337834
Cl  Cl258  1  0.04240000  0.45220000  0.90050000  0.5 -0.1733337834
Cl  Cl259  1  0.45760000  0.95220000  0.59950000  0.5 -0.1733337834
Cl  Cl260  1  0.95760000  0.45220000  0.09950000  0.5 -0.1733337834
Cl  Cl261  1  0.54240000  0.04780000  0.59950000  0.5 -0.1733337834
Cl  Cl262  1  0.04240000  0.54780000  0.09950000  0.5 -0.1733337834
Cl  Cl263  1  0.45760000  0.04780000  0.40050000  0.5 -0.1733337834
Cl  Cl264  1  0.95760000  0.54780000  0.90050000  0.5 -0.1733337834
Cl  Cl265  1  0.54240000  0.40050000  0.04780000  0.5 -0.1733337834
Cl  Cl266  1  0.04240000  0.90050000  0.54780000  0.5 -0.1733337834
Cl  Cl267  1  0.45760000  0.59950000  0.04780000  0.5 -0.1733337834
Cl  Cl268  1  0.95760000  0.09950000  0.54780000  0.5 -0.1733337834
Cl  Cl269  1  0.54240000  0.59950000  0.95220000  0.5 -0.1733337834
Cl  Cl270  1  0.04240000  0.09950000  0.45220000  0.5 -0.1733337834
Cl  Cl271  1  0.45760000  0.40050000  0.95220000  0.5 -0.1733337834
Cl  Cl272  1  0.95760000  0.90050000  0.45220000  0.5 -0.1733337834
Cl  Cl273  1  0.40050000  0.95220000  0.45760000  0.5 -0.1733337834
Cl  Cl274  1  0.90050000  0.45220000  0.95760000  0.5 -0.1733337834
Cl  Cl275  1  0.59950000  0.95220000  0.54240000  0.5 -0.1733337834
Cl  Cl276  1  0.09950000  0.45220000  0.04240000  0.5 -0.1733337834
Cl  Cl277  1  0.59950000  0.04780000  0.45760000  0.5 -0.1733337834
Cl  Cl278  1  0.09950000  0.54780000  0.95760000  0.5 -0.1733337834
Cl  Cl279  1  0.40050000  0.04780000  0.54240000  0.5 -0.1733337834
Cl  Cl280  1  0.90050000  0.54780000  0.04240000  0.5 -0.1733337834
Cl  Cl281  1  0.95220000  0.54240000  0.59950000  0.5 -0.1733337834
Cl  Cl282  1  0.45220000  0.04240000  0.09950000  0.5 -0.1733337834
Cl  Cl283  1  0.95220000  0.45760000  0.40050000  0.5 -0.1733337834
Cl  Cl284  1  0.45220000  0.95760000  0.90050000  0.5 -0.1733337834
Cl  Cl285  1  0.04780000  0.54240000  0.40050000  0.5 -0.1733337834
Cl  Cl286  1  0.54780000  0.04240000  0.90050000  0.5 -0.1733337834
Cl  Cl287  1  0.04780000  0.45760000  0.59950000  0.5 -0.1733337834
Cl  Cl288  1  0.54780000  0.95760000  0.09950000  0.5 -0.1733337834
O  O1  1  0.73180000  0.34400000  0.19140000  1.0 -0.3295381554
O  O2  1  0.23180000  0.84400000  0.69140000  1.0 -0.3295381554
O  O3  1  0.26820000  0.65600000  0.19140000  1.0 -0.3295381554
O  O4  1  0.76820000  0.15600000  0.69140000  1.0 -0.3295381554
O  O5  1  0.26820000  0.34400000  0.80860000  1.0 -0.3295381554
O  O6  1  0.76820000  0.84400000  0.30860000  1.0 -0.3295381554
O  O7  1  0.73180000  0.65600000  0.80860000  1.0 -0.3295381554
O  O8  1  0.23180000  0.15600000  0.30860000  1.0 -0.3295381554
O  O9  1  0.19140000  0.73180000  0.34400000  1.0 -0.3295381554
O  O10  1  0.69140000  0.23180000  0.84400000  1.0 -0.3295381554
O  O11  1  0.19140000  0.26820000  0.65600000  1.0 -0.3295381554
O  O12  1  0.69140000  0.76820000  0.15600000  1.0 -0.3295381554
O  O13  1  0.80860000  0.26820000  0.34400000  1.0 -0.3295381554
O  O14  1  0.30860000  0.76820000  0.84400000  1.0 -0.3295381554
O  O15  1  0.80860000  0.73180000  0.65600000  1.0 -0.3295381554
O  O16  1  0.30860000  0.23180000  0.15600000  1.0 -0.3295381554
O  O17  1  0.34400000  0.19140000  0.73180000  1.0 -0.3295381554
O  O18  1  0.84400000  0.69140000  0.23180000  1.0 -0.3295381554
O  O19  1  0.65600000  0.19140000  0.26820000  1.0 -0.3295381554
O  O20  1  0.15600000  0.69140000  0.76820000  1.0 -0.3295381554
O  O21  1  0.34400000  0.80860000  0.26820000  1.0 -0.3295381554
O  O22  1  0.84400000  0.30860000  0.76820000  1.0 -0.3295381554
O  O23  1  0.65600000  0.80860000  0.73180000  1.0 -0.3295381554
O  O24  1  0.15600000  0.30860000  0.23180000  1.0 -0.3295381554
O  O25  1  0.34400000  0.73180000  0.80860000  1.0 -0.3295381554
O  O26  1  0.84400000  0.23180000  0.30860000  1.0 -0.3295381554
O  O27  1  0.65600000  0.26820000  0.80860000  1.0 -0.3295381554
O  O28  1  0.15600000  0.76820000  0.30860000  1.0 -0.3295381554
O  O29  1  0.34400000  0.26820000  0.19140000  1.0 -0.3295381554
O  O30  1  0.84400000  0.76820000  0.69140000  1.0 -0.3295381554
O  O31  1  0.65600000  0.73180000  0.19140000  1.0 -0.3295381554
O  O32  1  0.15600000  0.23180000  0.69140000  1.0 -0.3295381554
O  O33  1  0.73180000  0.19140000  0.65600000  1.0 -0.3295381554
O  O34  1  0.23180000  0.69140000  0.15600000  1.0 -0.3295381554
O  O35  1  0.26820000  0.19140000  0.34400000  1.0 -0.3295381554
O  O36  1  0.76820000  0.69140000  0.84400000  1.0 -0.3295381554
O  O37  1  0.26820000  0.80860000  0.65600000  1.0 -0.3295381554
O  O38  1  0.76820000  0.30860000  0.15600000  1.0 -0.3295381554
O  O39  1  0.73180000  0.80860000  0.34400000  1.0 -0.3295381554
O  O40  1  0.23180000  0.30860000  0.84400000  1.0 -0.3295381554
O  O41  1  0.19140000  0.34400000  0.26820000  1.0 -0.3295381554
O  O42  1  0.69140000  0.84400000  0.76820000  1.0 -0.3295381554
O  O43  1  0.19140000  0.65600000  0.73180000  1.0 -0.3295381554
O  O44  1  0.69140000  0.15600000  0.23180000  1.0 -0.3295381554
O  O45  1  0.80860000  0.34400000  0.73180000  1.0 -0.3295381554
O  O46  1  0.30860000  0.84400000  0.23180000  1.0 -0.3295381554
O  O47  1  0.80860000  0.65600000  0.26820000  1.0 -0.3295381554
O  O48  1  0.30860000  0.15600000  0.76820000  1.0 -0.3295381554
O  O49  1  0.26820000  0.65600000  0.80860000  1.0 -0.3295381554
O  O50  1  0.76820000  0.15600000  0.30860000  1.0 -0.3295381554
O  O51  1  0.73180000  0.34400000  0.80860000  1.0 -0.3295381554
O  O52  1  0.23180000  0.84400000  0.30860000  1.0 -0.3295381554
O  O53  1  0.73180000  0.65600000  0.19140000  1.0 -0.3295381554
O  O54  1  0.23180000  0.15600000  0.69140000  1.0 -0.3295381554
O  O55  1  0.26820000  0.34400000  0.19140000  1.0 -0.3295381554
O  O56  1  0.76820000  0.84400000  0.69140000  1.0 -0.3295381554
O  O57  1  0.80860000  0.26820000  0.65600000  1.0 -0.3295381554
O  O58  1  0.30860000  0.76820000  0.15600000  1.0 -0.3295381554
O  O59  1  0.80860000  0.73180000  0.34400000  1.0 -0.3295381554
O  O60  1  0.30860000  0.23180000  0.84400000  1.0 -0.3295381554
O  O61  1  0.19140000  0.73180000  0.65600000  1.0 -0.3295381554
O  O62  1  0.69140000  0.23180000  0.15600000  1.0 -0.3295381554
O  O63  1  0.19140000  0.26820000  0.34400000  1.0 -0.3295381554
O  O64  1  0.69140000  0.76820000  0.84400000  1.0 -0.3295381554
O  O65  1  0.65600000  0.80860000  0.26820000  1.0 -0.3295381554
O  O66  1  0.15600000  0.30860000  0.76820000  1.0 -0.3295381554
O  O67  1  0.34400000  0.80860000  0.73180000  1.0 -0.3295381554
O  O68  1  0.84400000  0.30860000  0.23180000  1.0 -0.3295381554
O  O69  1  0.65600000  0.19140000  0.73180000  1.0 -0.3295381554
O  O70  1  0.15600000  0.69140000  0.23180000  1.0 -0.3295381554
O  O71  1  0.34400000  0.19140000  0.26820000  1.0 -0.3295381554
O  O72  1  0.84400000  0.69140000  0.76820000  1.0 -0.3295381554
O  O73  1  0.65600000  0.26820000  0.19140000  1.0 -0.3295381554
O  O74  1  0.15600000  0.76820000  0.69140000  1.0 -0.3295381554
O  O75  1  0.34400000  0.73180000  0.19140000  1.0 -0.3295381554
O  O76  1  0.84400000  0.23180000  0.69140000  1.0 -0.3295381554
O  O77  1  0.65600000  0.73180000  0.80860000  1.0 -0.3295381554
O  O78  1  0.15600000  0.23180000  0.30860000  1.0 -0.3295381554
O  O79  1  0.34400000  0.26820000  0.80860000  1.0 -0.3295381554
O  O80  1  0.84400000  0.76820000  0.30860000  1.0 -0.3295381554
O  O81  1  0.26820000  0.80860000  0.34400000  1.0 -0.3295381554
O  O82  1  0.76820000  0.30860000  0.84400000  1.0 -0.3295381554
O  O83  1  0.73180000  0.80860000  0.65600000  1.0 -0.3295381554
O  O84  1  0.23180000  0.30860000  0.15600000  1.0 -0.3295381554
O  O85  1  0.73180000  0.19140000  0.34400000  1.0 -0.3295381554
O  O86  1  0.23180000  0.69140000  0.84400000  1.0 -0.3295381554
O  O87  1  0.26820000  0.19140000  0.65600000  1.0 -0.3295381554
O  O88  1  0.76820000  0.69140000  0.15600000  1.0 -0.3295381554
O  O89  1  0.80860000  0.65600000  0.73180000  1.0 -0.3295381554
O  O90  1  0.30860000  0.15600000  0.23180000  1.0 -0.3295381554
O  O91  1  0.80860000  0.34400000  0.26820000  1.0 -0.3295381554
O  O92  1  0.30860000  0.84400000  0.76820000  1.0 -0.3295381554
O  O93  1  0.19140000  0.65600000  0.26820000  1.0 -0.3295381554
O  O94  1  0.69140000  0.15600000  0.76820000  1.0 -0.3295381554
O  O95  1  0.19140000  0.34400000  0.73180000  1.0 -0.3295381554
O  O96  1  0.69140000  0.84400000  0.23180000  1.0 -0.3295381554
