# DDEC6 charges by PACMAN v1.1 (https://github.com/mtap-research/PACMAN-charge/)
data_ja7b07921_si_002_3_FSR_pacman
_symmetry_space_group_name_H-M   'P 1'
_cell_length_a   29.96030000
_cell_length_b   29.96030000
_cell_length_c   29.96030000
_cell_angle_alpha   90.00000000
_cell_angle_beta   90.00000000
_cell_angle_gamma   90.00000000
_symmetry_Int_Tables_number   1
_chemical_formula_structural   Zn24H274.92C368.4N5.76O80.88
_chemical_formula_sum   'Zn24 H274.92 C368.4 N5.76 O80.88'
_cell_volume   26892.95178553
_cell_formula_units_Z   1
loop_
 _symmetry_equiv_pos_site_id
 _symmetry_equiv_pos_as_xyz
  1  'x, y, z'
loop_
 _atom_site_type_symbol
 _atom_site_label
 _atom_site_symmetry_multiplicity
 _atom_site_fract_x
 _atom_site_fract_y
 _atom_site_fract_z
 _atom_site_occupancy
 _atom_site_charge
Zn  Zn1  1  0.32256000  0.00000000  0.44670000  1.0 0.8484893061
Zn  Zn2  1  0.44670000  0.32256000  0.00000000  1.0 0.8484893061
Zn  Zn3  1  0.00000000  0.44670000  0.32256000  1.0 0.8484893061
Zn  Zn4  1  0.00000000  0.55330000  0.32256000  1.0 0.8484893061
Zn  Zn5  1  0.44670000  0.67744000  0.00000000  1.0 0.8484893061
Zn  Zn6  1  0.00000000  0.44670000  0.67744000  1.0 0.8484893061
Zn  Zn7  1  0.55330000  0.67744000  0.00000000  1.0 0.8484893061
Zn  Zn8  1  0.55330000  0.32256000  0.00000000  1.0 0.8484893061
Zn  Zn9  1  0.00000000  0.55330000  0.67744000  1.0 0.8484893061
Zn  Zn10  1  0.67744000  0.00000000  0.44670000  1.0 0.8484893061
Zn  Zn11  1  0.32256000  0.00000000  0.55330000  1.0 0.8484893061
Zn  Zn12  1  0.67744000  0.00000000  0.55330000  1.0 0.8484893061
Zn  Zn13  1  0.24862000  0.05332000  0.50000000  1.0 0.9548288361
Zn  Zn14  1  0.50000000  0.24862000  0.05332000  1.0 0.9548288361
Zn  Zn15  1  0.05332000  0.50000000  0.24862000  1.0 0.9548288361
Zn  Zn16  1  0.94668000  0.50000000  0.24862000  1.0 0.9548288361
Zn  Zn17  1  0.50000000  0.75138000  0.94668000  1.0 0.9548288361
Zn  Zn18  1  0.94668000  0.50000000  0.75138000  1.0 0.9548288361
Zn  Zn19  1  0.50000000  0.75138000  0.05332000  1.0 0.9548288361
Zn  Zn20  1  0.50000000  0.24862000  0.94668000  1.0 0.9548288361
Zn  Zn21  1  0.05332000  0.50000000  0.75138000  1.0 0.9548288361
Zn  Zn22  1  0.75138000  0.94668000  0.50000000  1.0 0.9548288361
Zn  Zn23  1  0.24862000  0.94668000  0.50000000  1.0 0.9548288361
Zn  Zn24  1  0.75138000  0.05332000  0.50000000  1.0 0.9555772808
H  H1  1  0.10980000  0.06480000  0.50000000  1.0 0.128764203
H  H2  1  0.50000000  0.10980000  0.06480000  1.0 0.128764203
H  H3  1  0.06480000  0.50000000  0.10980000  1.0 0.128764203
H  H4  1  0.93520000  0.50000000  0.10980000  1.0 0.128764203
H  H5  1  0.50000000  0.89020000  0.93520000  1.0 0.128764203
H  H6  1  0.93520000  0.50000000  0.89020000  1.0 0.128764203
H  H7  1  0.50000000  0.89020000  0.06480000  1.0 0.128764203
H  H8  1  0.50000000  0.10980000  0.93520000  1.0 0.128764203
H  H9  1  0.06480000  0.50000000  0.89020000  1.0 0.128764203
H  H10  1  0.89020000  0.93520000  0.50000000  1.0 0.128764203
H  H11  1  0.10980000  0.93520000  0.50000000  1.0 0.128764203
H  H12  1  0.89020000  0.06480000  0.50000000  1.0 0.128764203
H  H13  1  0.03290000  0.06520000  0.50000000  1.0 0.1192710599
H  H14  1  0.50000000  0.03290000  0.06520000  1.0 0.1192710599
H  H15  1  0.06520000  0.50000000  0.03290000  1.0 0.1192710599
H  H16  1  0.93480000  0.50000000  0.03290000  1.0 0.1192710599
H  H17  1  0.50000000  0.96710000  0.93480000  1.0 0.1192710599
H  H18  1  0.93480000  0.50000000  0.96710000  1.0 0.1192710599
H  H19  1  0.50000000  0.96710000  0.06520000  1.0 0.1192710599
H  H20  1  0.50000000  0.03290000  0.93480000  1.0 0.1192710599
H  H21  1  0.06520000  0.50000000  0.96710000  1.0 0.1192710599
H  H22  1  0.96710000  0.93480000  0.50000000  1.0 0.1192710599
H  H23  1  0.03290000  0.93480000  0.50000000  1.0 0.1192710599
H  H24  1  0.96710000  0.06520000  0.50000000  1.0 0.1192710599
H  H25  1  0.33960000  0.09660000  0.34720000  1.0 0.0967389042
H  H26  1  0.34720000  0.33960000  0.09660000  1.0 0.0967389042
H  H27  1  0.09660000  0.34720000  0.33960000  1.0 0.0967389042
H  H28  1  0.90340000  0.65280000  0.33960000  1.0 0.0967389042
H  H29  1  0.34720000  0.66040000  0.90340000  1.0 0.0967389042
H  H30  1  0.90340000  0.34720000  0.66040000  1.0 0.0967389042
H  H31  1  0.65280000  0.66040000  0.09660000  1.0 0.0967389042
H  H32  1  0.65280000  0.33960000  0.90340000  1.0 0.0967389042
H  H33  1  0.09660000  0.65280000  0.66040000  1.0 0.0967389042
H  H34  1  0.66040000  0.90340000  0.34720000  1.0 0.0967389042
H  H35  1  0.33960000  0.90340000  0.65280000  1.0 0.0967389042
H  H36  1  0.66040000  0.09660000  0.65280000  1.0 0.0967389042
H  H37  1  0.66040000  0.90340000  0.65280000  1.0 0.0967389042
H  H38  1  0.65280000  0.66040000  0.90340000  1.0 0.0967389042
H  H39  1  0.90340000  0.65280000  0.66040000  1.0 0.0967389042
H  H40  1  0.09660000  0.34720000  0.66040000  1.0 0.0967389042
H  H41  1  0.65280000  0.33960000  0.09660000  1.0 0.0967389042
H  H42  1  0.09660000  0.65280000  0.33960000  1.0 0.0967389042
H  H43  1  0.34720000  0.33960000  0.90340000  1.0 0.0967389042
H  H44  1  0.34720000  0.66040000  0.09660000  1.0 0.0967389042
H  H45  1  0.90340000  0.34720000  0.33960000  1.0 0.0967389042
H  H46  1  0.33960000  0.09660000  0.65280000  1.0 0.0967389042
H  H47  1  0.66040000  0.09660000  0.34720000  1.0 0.0967389042
H  H48  1  0.33960000  0.90340000  0.34720000  1.0 0.0967389042
H  H49  1  0.34110000  0.15140000  0.29270000  1.0 0.1192710599
H  H50  1  0.29270000  0.34110000  0.15140000  1.0 0.1192710599
H  H51  1  0.15140000  0.29270000  0.34110000  1.0 0.1192710599
H  H52  1  0.84860000  0.70730000  0.34110000  1.0 0.1192710599
H  H53  1  0.29270000  0.65890000  0.84860000  1.0 0.1192710599
H  H54  1  0.84860000  0.29270000  0.65890000  1.0 0.1192710599
H  H55  1  0.70730000  0.65890000  0.15140000  1.0 0.1192710599
H  H56  1  0.70730000  0.34110000  0.84860000  1.0 0.1192710599
H  H57  1  0.15140000  0.70730000  0.65890000  1.0 0.1192710599
H  H58  1  0.65890000  0.84860000  0.29270000  1.0 0.1192710599
H  H59  1  0.34110000  0.84860000  0.70730000  1.0 0.1192710599
H  H60  1  0.65890000  0.15140000  0.70730000  1.0 0.1192710599
H  H61  1  0.65890000  0.84860000  0.70730000  1.0 0.1192710599
H  H62  1  0.70730000  0.65890000  0.84860000  1.0 0.1192710599
H  H63  1  0.84860000  0.70730000  0.65890000  1.0 0.1192710599
H  H64  1  0.15140000  0.29270000  0.65890000  1.0 0.1192710599
H  H65  1  0.70730000  0.34110000  0.15140000  1.0 0.1192710599
H  H66  1  0.15140000  0.70730000  0.34110000  1.0 0.1192710599
H  H67  1  0.29270000  0.34110000  0.84860000  1.0 0.1192710599
H  H68  1  0.29270000  0.65890000  0.15140000  1.0 0.1192710599
H  H69  1  0.84860000  0.29270000  0.34110000  1.0 0.1192710599
H  H70  1  0.34110000  0.15140000  0.70730000  1.0 0.1192710599
H  H71  1  0.65890000  0.15140000  0.29270000  1.0 0.1192710599
H  H72  1  0.34110000  0.84860000  0.29270000  1.0 0.1192710599
H  H73  1  0.23200000  0.15360000  0.40250000  1.0 0.128764203
H  H74  1  0.40250000  0.23200000  0.15360000  1.0 0.128764203
H  H75  1  0.15360000  0.40250000  0.23200000  1.0 0.128764203
H  H76  1  0.84640000  0.59750000  0.23200000  1.0 0.128764203
H  H77  1  0.40250000  0.76800000  0.84640000  1.0 0.128764203
H  H78  1  0.84640000  0.40250000  0.76800000  1.0 0.128764203
H  H79  1  0.59750000  0.76800000  0.15360000  1.0 0.128764203
H  H80  1  0.59750000  0.23200000  0.84640000  1.0 0.128764203
H  H81  1  0.15360000  0.59750000  0.76800000  1.0 0.128764203
H  H82  1  0.76800000  0.84640000  0.40250000  1.0 0.128764203
H  H83  1  0.23200000  0.84640000  0.59750000  1.0 0.128764203
H  H84  1  0.76800000  0.15360000  0.59750000  1.0 0.128764203
H  H85  1  0.76800000  0.84640000  0.59750000  1.0 0.128764203
H  H86  1  0.59750000  0.76800000  0.84640000  1.0 0.128764203
H  H87  1  0.84640000  0.59750000  0.76800000  1.0 0.128764203
H  H88  1  0.15360000  0.40250000  0.76800000  1.0 0.128764203
H  H89  1  0.59750000  0.23200000  0.15360000  1.0 0.128764203
H  H90  1  0.15360000  0.59750000  0.23200000  1.0 0.128764203
H  H91  1  0.40250000  0.23200000  0.84640000  1.0 0.128764203
H  H92  1  0.40250000  0.76800000  0.15360000  1.0 0.128764203
H  H93  1  0.84640000  0.40250000  0.23200000  1.0 0.128764203
H  H94  1  0.23200000  0.15360000  0.59750000  1.0 0.128764203
H  H95  1  0.76800000  0.15360000  0.40250000  1.0 0.128764203
H  H96  1  0.23200000  0.84640000  0.40250000  1.0 0.128764203
H  H97  1  0.21070000  0.23860000  0.40780000  1.0 0.1192710599
H  H98  1  0.40780000  0.21070000  0.23860000  1.0 0.1192710599
H  H99  1  0.23860000  0.40780000  0.21070000  1.0 0.1192710599
H  H100  1  0.76140000  0.59220000  0.21070000  1.0 0.1192710599
H  H101  1  0.40780000  0.78930000  0.76140000  1.0 0.1192710599
H  H102  1  0.76140000  0.40780000  0.78930000  1.0 0.1192710599
H  H103  1  0.59220000  0.78930000  0.23860000  1.0 0.1192710599
H  H104  1  0.59220000  0.21070000  0.76140000  1.0 0.1192710599
H  H105  1  0.23860000  0.59220000  0.78930000  1.0 0.1192710599
H  H106  1  0.78930000  0.76140000  0.40780000  1.0 0.1192710599
H  H107  1  0.21070000  0.76140000  0.59220000  1.0 0.1192710599
H  H108  1  0.78930000  0.23860000  0.59220000  1.0 0.1192710599
H  H109  1  0.78930000  0.76140000  0.59220000  1.0 0.1192710599
H  H110  1  0.59220000  0.78930000  0.76140000  1.0 0.1192710599
H  H111  1  0.76140000  0.59220000  0.78930000  1.0 0.1192710599
H  H112  1  0.23860000  0.40780000  0.78930000  1.0 0.1192710599
H  H113  1  0.59220000  0.21070000  0.23860000  1.0 0.1192710599
H  H114  1  0.23860000  0.59220000  0.21070000  1.0 0.1192710599
H  H115  1  0.40780000  0.21070000  0.76140000  1.0 0.1192710599
H  H116  1  0.40780000  0.78930000  0.23860000  1.0 0.1192710599
H  H117  1  0.76140000  0.40780000  0.21070000  1.0 0.1192710599
H  H118  1  0.21070000  0.23860000  0.59220000  1.0 0.1192710599
H  H119  1  0.78930000  0.23860000  0.40780000  1.0 0.1192710599
H  H120  1  0.21070000  0.76140000  0.40780000  1.0 0.1192710599
H  H121  1  0.20960000  0.28090000  0.37710000  1.0 0.1136699131
H  H122  1  0.37710000  0.20960000  0.28090000  1.0 0.1136699131
H  H123  1  0.28090000  0.37710000  0.20960000  1.0 0.1136699131
H  H124  1  0.71910000  0.62290000  0.20960000  1.0 0.1136699131
H  H125  1  0.37710000  0.79040000  0.71910000  1.0 0.1136699131
H  H126  1  0.71910000  0.37710000  0.79040000  1.0 0.1136699131
H  H127  1  0.62290000  0.79040000  0.28090000  1.0 0.1136699131
H  H128  1  0.62290000  0.20960000  0.71910000  1.0 0.1136699131
H  H129  1  0.28090000  0.62290000  0.79040000  1.0 0.1136699131
H  H130  1  0.79040000  0.71910000  0.37710000  1.0 0.1136699131
H  H131  1  0.20960000  0.71910000  0.62290000  1.0 0.1136699131
H  H132  1  0.79040000  0.28090000  0.62290000  1.0 0.1136699131
H  H133  1  0.79040000  0.71910000  0.62290000  1.0 0.1136699131
H  H134  1  0.62290000  0.79040000  0.71910000  1.0 0.1136699131
H  H135  1  0.71910000  0.62290000  0.79040000  1.0 0.1136699131
H  H136  1  0.28090000  0.37710000  0.79040000  1.0 0.1136699131
H  H137  1  0.62290000  0.20960000  0.28090000  1.0 0.1136699131
H  H138  1  0.28090000  0.62290000  0.20960000  1.0 0.1136699131
H  H139  1  0.37710000  0.20960000  0.71910000  1.0 0.1136699131
H  H140  1  0.37710000  0.79040000  0.28090000  1.0 0.1136699131
H  H141  1  0.71910000  0.37710000  0.20960000  1.0 0.1136699131
H  H142  1  0.20960000  0.28090000  0.62290000  1.0 0.1136699131
H  H143  1  0.79040000  0.28090000  0.37710000  1.0 0.1136699131
H  H144  1  0.20960000  0.71910000  0.37710000  1.0 0.1136699131
H  H145  1  0.25530000  0.25900000  0.38980000  1.0 0.1192710599
H  H146  1  0.38980000  0.25530000  0.25900000  1.0 0.1192710599
H  H147  1  0.25900000  0.38980000  0.25530000  1.0 0.1192710599
H  H148  1  0.74100000  0.61020000  0.25530000  1.0 0.1192710599
H  H149  1  0.38980000  0.74470000  0.74100000  1.0 0.1192710599
H  H150  1  0.74100000  0.38980000  0.74470000  1.0 0.1192710599
H  H151  1  0.61020000  0.74470000  0.25900000  1.0 0.1192710599
H  H152  1  0.61020000  0.25530000  0.74100000  1.0 0.1192710599
H  H153  1  0.25900000  0.61020000  0.74470000  1.0 0.1192710599
H  H154  1  0.74470000  0.74100000  0.38980000  1.0 0.1192710599
H  H155  1  0.25530000  0.74100000  0.61020000  1.0 0.1192710599
H  H156  1  0.74470000  0.25900000  0.61020000  1.0 0.1192710599
H  H157  1  0.74470000  0.74100000  0.61020000  1.0 0.1192710599
H  H158  1  0.61020000  0.74470000  0.74100000  1.0 0.1192710599
H  H159  1  0.74100000  0.61020000  0.74470000  1.0 0.1192710599
H  H160  1  0.25900000  0.38980000  0.74470000  1.0 0.1192710599
H  H161  1  0.61020000  0.25530000  0.25900000  1.0 0.1192710599
H  H162  1  0.25900000  0.61020000  0.25530000  1.0 0.1192710599
H  H163  1  0.38980000  0.25530000  0.74100000  1.0 0.1192710599
H  H164  1  0.38980000  0.74470000  0.25900000  1.0 0.1192710599
H  H165  1  0.74100000  0.38980000  0.25530000  1.0 0.1192710599
H  H166  1  0.25530000  0.25900000  0.61020000  1.0 0.1192710599
H  H167  1  0.74470000  0.25900000  0.38980000  1.0 0.1192710599
H  H168  1  0.25530000  0.74100000  0.38980000  1.0 0.1192710599
H  H169  1  0.17620000  0.18370000  0.30800000  1.0 0.128764203
H  H170  1  0.30800000  0.17620000  0.18370000  1.0 0.128764203
H  H171  1  0.18370000  0.30800000  0.17620000  1.0 0.128764203
H  H172  1  0.81630000  0.69200000  0.17620000  1.0 0.128764203
H  H173  1  0.30800000  0.82380000  0.81630000  1.0 0.128764203
H  H174  1  0.81630000  0.30800000  0.82380000  1.0 0.128764203
H  H175  1  0.69200000  0.82380000  0.18370000  1.0 0.128764203
H  H176  1  0.69200000  0.17620000  0.81630000  1.0 0.128764203
H  H177  1  0.18370000  0.69200000  0.82380000  1.0 0.128764203
H  H178  1  0.82380000  0.81630000  0.30800000  1.0 0.128764203
H  H179  1  0.17620000  0.81630000  0.69200000  1.0 0.128764203
H  H180  1  0.82380000  0.18370000  0.69200000  1.0 0.128764203
H  H181  1  0.82380000  0.81630000  0.69200000  1.0 0.128764203
H  H182  1  0.69200000  0.82380000  0.81630000  1.0 0.128764203
H  H183  1  0.81630000  0.69200000  0.82380000  1.0 0.128764203
H  H184  1  0.18370000  0.30800000  0.82380000  1.0 0.128764203
H  H185  1  0.69200000  0.17620000  0.18370000  1.0 0.128764203
H  H186  1  0.18370000  0.69200000  0.17620000  1.0 0.128764203
H  H187  1  0.30800000  0.17620000  0.81630000  1.0 0.128764203
H  H188  1  0.30800000  0.82380000  0.18370000  1.0 0.128764203
H  H189  1  0.81630000  0.30800000  0.17620000  1.0 0.128764203
H  H190  1  0.17620000  0.18370000  0.69200000  1.0 0.128764203
H  H191  1  0.82380000  0.18370000  0.30800000  1.0 0.128764203
H  H192  1  0.17620000  0.81630000  0.30800000  1.0 0.128764203
H  H193  1  0.15410000  0.22680000  0.32800000  1.0 0.1136699131
H  H194  1  0.32800000  0.15410000  0.22680000  1.0 0.1136699131
H  H195  1  0.22680000  0.32800000  0.15410000  1.0 0.1136699131
H  H196  1  0.77320000  0.67200000  0.15410000  1.0 0.1136699131
H  H197  1  0.32800000  0.84590000  0.77320000  1.0 0.1136699131
H  H198  1  0.77320000  0.32800000  0.84590000  1.0 0.1136699131
H  H199  1  0.67200000  0.84590000  0.22680000  1.0 0.1136699131
H  H200  1  0.67200000  0.15410000  0.77320000  1.0 0.1136699131
H  H201  1  0.22680000  0.67200000  0.84590000  1.0 0.1136699131
H  H202  1  0.84590000  0.77320000  0.32800000  1.0 0.1136699131
H  H203  1  0.15410000  0.77320000  0.67200000  1.0 0.1136699131
H  H204  1  0.84590000  0.22680000  0.67200000  1.0 0.1136699131
H  H205  1  0.84590000  0.77320000  0.67200000  1.0 0.1136699131
H  H206  1  0.67200000  0.84590000  0.77320000  1.0 0.1136699131
H  H207  1  0.77320000  0.67200000  0.84590000  1.0 0.1136699131
H  H208  1  0.22680000  0.32800000  0.84590000  1.0 0.1136699131
H  H209  1  0.67200000  0.15410000  0.22680000  1.0 0.1136699131
H  H210  1  0.22680000  0.67200000  0.15410000  1.0 0.1136699131
H  H211  1  0.32800000  0.15410000  0.77320000  1.0 0.1136699131
H  H212  1  0.32800000  0.84590000  0.22680000  1.0 0.1136699131
H  H213  1  0.77320000  0.32800000  0.15410000  1.0 0.1136699131
H  H214  1  0.15410000  0.22680000  0.67200000  1.0 0.1136699131
H  H215  1  0.84590000  0.22680000  0.32800000  1.0 0.1136699131
H  H216  1  0.15410000  0.77320000  0.32800000  1.0 0.1136699131
H  H217  1  0.16600000  0.18650000  0.35930000  1.0 0.1192710599
H  H218  1  0.35930000  0.16600000  0.18650000  1.0 0.1192710599
H  H219  1  0.18650000  0.35930000  0.16600000  1.0 0.1192710599
H  H220  1  0.81350000  0.64070000  0.16600000  1.0 0.1192710599
H  H221  1  0.35930000  0.83400000  0.81350000  1.0 0.1192710599
H  H222  1  0.81350000  0.35930000  0.83400000  1.0 0.1192710599
H  H223  1  0.64070000  0.83400000  0.18650000  1.0 0.1192710599
H  H224  1  0.64070000  0.16600000  0.81350000  1.0 0.1192710599
H  H225  1  0.18650000  0.64070000  0.83400000  1.0 0.1192710599
H  H226  1  0.83400000  0.81350000  0.35930000  1.0 0.1192710599
H  H227  1  0.16600000  0.81350000  0.64070000  1.0 0.1192710599
H  H228  1  0.83400000  0.18650000  0.64070000  1.0 0.1192710599
H  H229  1  0.83400000  0.81350000  0.64070000  1.0 0.1192710599
H  H230  1  0.64070000  0.83400000  0.81350000  1.0 0.1192710599
H  H231  1  0.81350000  0.64070000  0.83400000  1.0 0.1192710599
H  H232  1  0.18650000  0.35930000  0.83400000  1.0 0.1192710599
H  H233  1  0.64070000  0.16600000  0.18650000  1.0 0.1192710599
H  H234  1  0.18650000  0.64070000  0.16600000  1.0 0.1192710599
H  H235  1  0.35930000  0.16600000  0.81350000  1.0 0.1192710599
H  H236  1  0.35930000  0.83400000  0.18650000  1.0 0.1192710599
H  H237  1  0.81350000  0.35930000  0.16600000  1.0 0.1192710599
H  H238  1  0.16600000  0.18650000  0.64070000  1.0 0.1192710599
H  H239  1  0.83400000  0.18650000  0.35930000  1.0 0.1192710599
H  H240  1  0.16600000  0.81350000  0.35930000  1.0 0.1192710599
H  H241  1  0.46580000  0.99720000  0.31400000  0.12 0.0967389042
H  H242  1  0.31400000  0.46580000  0.99720000  0.12 0.0967389042
H  H243  1  0.99720000  0.31400000  0.46580000  0.12 0.0967389042
H  H244  1  0.00280000  0.68600000  0.46580000  0.12 0.0967389042
H  H245  1  0.31400000  0.53420000  0.00280000  0.12 0.0967389042
H  H246  1  0.00280000  0.31400000  0.53420000  0.12 0.0967389042
H  H247  1  0.68600000  0.53420000  0.99720000  0.12 0.0967389042
H  H248  1  0.68600000  0.46580000  0.00280000  0.12 0.0967389042
H  H249  1  0.99720000  0.68600000  0.53420000  0.12 0.0967389042
H  H250  1  0.53420000  0.00280000  0.31400000  0.12 0.0967389042
H  H251  1  0.46580000  0.00280000  0.68600000  0.12 0.0967389042
H  H252  1  0.53420000  0.99720000  0.68600000  0.12 0.0967389042
H  H253  1  0.53420000  0.00280000  0.68600000  0.12 0.0967389042
H  H254  1  0.68600000  0.53420000  0.00280000  0.12 0.0967389042
H  H255  1  0.00280000  0.68600000  0.53420000  0.12 0.0967389042
H  H256  1  0.99720000  0.31400000  0.53420000  0.12 0.0967389042
H  H257  1  0.68600000  0.46580000  0.99720000  0.12 0.0967389042
H  H258  1  0.99720000  0.68600000  0.46580000  0.12 0.0967389042
H  H259  1  0.31400000  0.46580000  0.00280000  0.12 0.0967389042
H  H260  1  0.31400000  0.53420000  0.99720000  0.12 0.0967389042
H  H261  1  0.00280000  0.31400000  0.46580000  0.12 0.0967389042
H  H262  1  0.46580000  0.99720000  0.68600000  0.12 0.0967389042
H  H263  1  0.53420000  0.99720000  0.31400000  0.12 0.0967389042
H  H264  1  0.46580000  0.00280000  0.31400000  0.12 0.0967389042
H  H265  1  0.43720000  0.06750000  0.30060000  0.12 0.0071143183
H  H266  1  0.30060000  0.43720000  0.06750000  0.12 0.0071143183
H  H267  1  0.06750000  0.30060000  0.43720000  0.12 0.0071143183
H  H268  1  0.93250000  0.69940000  0.43720000  0.12 0.0071143183
H  H269  1  0.30060000  0.56280000  0.93250000  0.12 0.0071143183
H  H270  1  0.93250000  0.30060000  0.56280000  0.12 0.0071143183
H  H271  1  0.69940000  0.56280000  0.06750000  0.12 0.0071143183
H  H272  1  0.69940000  0.43720000  0.93250000  0.12 0.0071143183
H  H273  1  0.06750000  0.69940000  0.56280000  0.12 0.0071143183
H  H274  1  0.56280000  0.93250000  0.30060000  0.12 0.0071143183
H  H275  1  0.43720000  0.93250000  0.69940000  0.12 0.0071143183
H  H276  1  0.56280000  0.06750000  0.69940000  0.12 0.0071143183
H  H277  1  0.56280000  0.93250000  0.69940000  0.12 0.0071143183
H  H278  1  0.69940000  0.56280000  0.93250000  0.12 0.0071143183
H  H279  1  0.93250000  0.69940000  0.56280000  0.12 0.0071143183
H  H280  1  0.06750000  0.30060000  0.56280000  0.12 0.0071143183
H  H281  1  0.69940000  0.43720000  0.06750000  0.12 0.0071143183
H  H282  1  0.06750000  0.69940000  0.43720000  0.12 0.0071143183
H  H283  1  0.30060000  0.43720000  0.93250000  0.12 0.0071143183
H  H284  1  0.30060000  0.56280000  0.06750000  0.12 0.0071143183
H  H285  1  0.93250000  0.30060000  0.43720000  0.12 0.0071143183
H  H286  1  0.43720000  0.06750000  0.69940000  0.12 0.0071143183
H  H287  1  0.56280000  0.06750000  0.30060000  0.12 0.0071143183
H  H288  1  0.43720000  0.93250000  0.30060000  0.12 0.0071143183
H  H289  1  0.42780000  0.01040000  0.41550000  0.12 0.128764203
H  H290  1  0.41550000  0.42780000  0.01040000  0.12 0.128764203
H  H291  1  0.01040000  0.41550000  0.42780000  0.12 0.128764203
H  H292  1  0.98960000  0.58450000  0.42780000  0.12 0.128764203
H  H293  1  0.41550000  0.57220000  0.98960000  0.12 0.128764203
H  H294  1  0.98960000  0.41550000  0.57220000  0.12 0.128764203
H  H295  1  0.58450000  0.57220000  0.01040000  0.12 0.128764203
H  H296  1  0.58450000  0.42780000  0.98960000  0.12 0.128764203
H  H297  1  0.01040000  0.58450000  0.57220000  0.12 0.128764203
H  H298  1  0.57220000  0.98960000  0.41550000  0.12 0.128764203
H  H299  1  0.42780000  0.98960000  0.58450000  0.12 0.128764203
H  H300  1  0.57220000  0.01040000  0.58450000  0.12 0.128764203
H  H301  1  0.57220000  0.98960000  0.58450000  0.12 0.128764203
H  H302  1  0.58450000  0.57220000  0.98960000  0.12 0.128764203
H  H303  1  0.98960000  0.58450000  0.57220000  0.12 0.128764203
H  H304  1  0.01040000  0.41550000  0.57220000  0.12 0.128764203
H  H305  1  0.58450000  0.42780000  0.01040000  0.12 0.128764203
H  H306  1  0.01040000  0.58450000  0.42780000  0.12 0.128764203
H  H307  1  0.41550000  0.42780000  0.98960000  0.12 0.128764203
H  H308  1  0.41550000  0.57220000  0.01040000  0.12 0.128764203
H  H309  1  0.98960000  0.41550000  0.42780000  0.12 0.128764203
H  H310  1  0.42780000  0.01040000  0.58450000  0.12 0.128764203
H  H311  1  0.57220000  0.01040000  0.41550000  0.12 0.128764203
H  H312  1  0.42780000  0.98960000  0.41550000  0.12 0.128764203
H  H313  1  0.41770000  0.95200000  0.33260000  0.12 0.0923551822
H  H314  1  0.33260000  0.41770000  0.95200000  0.12 0.0923551822
H  H315  1  0.95200000  0.33260000  0.41770000  0.12 0.0923551822
H  H316  1  0.04800000  0.66740000  0.41770000  0.12 0.0923551822
H  H317  1  0.33260000  0.58230000  0.04800000  0.12 0.0923551822
H  H318  1  0.04800000  0.33260000  0.58230000  0.12 0.0923551822
H  H319  1  0.66740000  0.58230000  0.95200000  0.12 0.0923551822
H  H320  1  0.66740000  0.41770000  0.04800000  0.12 0.0923551822
H  H321  1  0.95200000  0.66740000  0.58230000  0.12 0.0923551822
H  H322  1  0.58230000  0.04800000  0.33260000  0.12 0.0923551822
H  H323  1  0.41770000  0.04800000  0.66740000  0.12 0.0923551822
H  H324  1  0.58230000  0.95200000  0.66740000  0.12 0.0923551822
H  H325  1  0.58230000  0.04800000  0.66740000  0.12 0.0923551822
H  H326  1  0.66740000  0.58230000  0.04800000  0.12 0.0923551822
H  H327  1  0.04800000  0.66740000  0.58230000  0.12 0.0923551822
H  H328  1  0.95200000  0.33260000  0.58230000  0.12 0.0923551822
H  H329  1  0.66740000  0.41770000  0.95200000  0.12 0.0923551822
H  H330  1  0.95200000  0.66740000  0.41770000  0.12 0.0923551822
H  H331  1  0.33260000  0.41770000  0.04800000  0.12 0.0923551822
H  H332  1  0.33260000  0.58230000  0.95200000  0.12 0.0923551822
H  H333  1  0.04800000  0.33260000  0.41770000  0.12 0.0923551822
H  H334  1  0.41770000  0.95200000  0.66740000  0.12 0.0923551822
H  H335  1  0.58230000  0.95200000  0.33260000  0.12 0.0923551822
H  H336  1  0.41770000  0.04800000  0.33260000  0.12 0.0923551822
H  H337  1  0.34770000  0.99830000  0.35240000  0.12 0.128764203
H  H338  1  0.35240000  0.34770000  0.99830000  0.12 0.128764203
H  H339  1  0.99830000  0.35240000  0.34770000  0.12 0.128764203
H  H340  1  0.00170000  0.64760000  0.34770000  0.12 0.128764203
H  H341  1  0.35240000  0.65230000  0.00170000  0.12 0.128764203
H  H342  1  0.00170000  0.35240000  0.65230000  0.12 0.128764203
H  H343  1  0.64760000  0.65230000  0.99830000  0.12 0.128764203
H  H344  1  0.64760000  0.34770000  0.00170000  0.12 0.128764203
H  H345  1  0.99830000  0.64760000  0.65230000  0.12 0.128764203
H  H346  1  0.65230000  0.00170000  0.35240000  0.12 0.128764203
H  H347  1  0.34770000  0.00170000  0.64760000  0.12 0.128764203
H  H348  1  0.65230000  0.99830000  0.64760000  0.12 0.128764203
H  H349  1  0.65230000  0.00170000  0.64760000  0.12 0.128764203
H  H350  1  0.64760000  0.65230000  0.00170000  0.12 0.128764203
H  H351  1  0.00170000  0.64760000  0.65230000  0.12 0.128764203
H  H352  1  0.99830000  0.35240000  0.65230000  0.12 0.128764203
H  H353  1  0.64760000  0.34770000  0.99830000  0.12 0.128764203
H  H354  1  0.99830000  0.64760000  0.34770000  0.12 0.128764203
H  H355  1  0.35240000  0.34770000  0.00170000  0.12 0.128764203
H  H356  1  0.35240000  0.65230000  0.99830000  0.12 0.128764203
H  H357  1  0.00170000  0.35240000  0.34770000  0.12 0.128764203
H  H358  1  0.34770000  0.99830000  0.64760000  0.12 0.128764203
H  H359  1  0.65230000  0.99830000  0.35240000  0.12 0.128764203
H  H360  1  0.34770000  0.00170000  0.35240000  0.12 0.128764203
H  H361  1  0.35210000  0.96210000  0.31150000  0.12 0.0923551822
H  H362  1  0.31150000  0.35210000  0.96210000  0.12 0.0923551822
H  H363  1  0.96210000  0.31150000  0.35210000  0.12 0.0923551822
H  H364  1  0.03790000  0.68850000  0.35210000  0.12 0.0923551822
H  H365  1  0.31150000  0.64790000  0.03790000  0.12 0.0923551822
H  H366  1  0.03790000  0.31150000  0.64790000  0.12 0.0923551822
H  H367  1  0.68850000  0.64790000  0.96210000  0.12 0.0923551822
H  H368  1  0.68850000  0.35210000  0.03790000  0.12 0.0923551822
H  H369  1  0.96210000  0.68850000  0.64790000  0.12 0.0923551822
H  H370  1  0.64790000  0.03790000  0.31150000  0.12 0.0923551822
H  H371  1  0.35210000  0.03790000  0.68850000  0.12 0.0923551822
H  H372  1  0.64790000  0.96210000  0.68850000  0.12 0.0923551822
H  H373  1  0.64790000  0.03790000  0.68850000  0.12 0.0923551822
H  H374  1  0.68850000  0.64790000  0.03790000  0.12 0.0923551822
H  H375  1  0.03790000  0.68850000  0.64790000  0.12 0.0923551822
H  H376  1  0.96210000  0.31150000  0.64790000  0.12 0.0923551822
H  H377  1  0.68850000  0.35210000  0.96210000  0.12 0.0923551822
H  H378  1  0.96210000  0.68850000  0.35210000  0.12 0.0923551822
H  H379  1  0.31150000  0.35210000  0.03790000  0.12 0.0923551822
H  H380  1  0.31150000  0.64790000  0.96210000  0.12 0.0923551822
H  H381  1  0.03790000  0.31150000  0.35210000  0.12 0.0923551822
H  H382  1  0.35210000  0.96210000  0.68850000  0.12 0.0923551822
H  H383  1  0.64790000  0.96210000  0.31150000  0.12 0.0923551822
H  H384  1  0.35210000  0.03790000  0.31150000  0.12 0.0923551822
H  H385  1  0.35300000  0.04790000  0.29270000  0.12 0.0821446348
H  H386  1  0.29270000  0.35300000  0.04790000  0.12 0.0821446348
H  H387  1  0.04790000  0.29270000  0.35300000  0.12 0.0821446348
H  H388  1  0.95210000  0.70730000  0.35300000  0.12 0.0821446348
H  H389  1  0.29270000  0.64700000  0.95210000  0.12 0.0821446348
H  H390  1  0.95210000  0.29270000  0.64700000  0.12 0.0821446348
H  H391  1  0.70730000  0.64700000  0.04790000  0.12 0.0821446348
H  H392  1  0.70730000  0.35300000  0.95210000  0.12 0.0821446348
H  H393  1  0.04790000  0.70730000  0.64700000  0.12 0.0821446348
H  H394  1  0.64700000  0.95210000  0.29270000  0.12 0.0821446348
H  H395  1  0.35300000  0.95210000  0.70730000  0.12 0.0821446348
H  H396  1  0.64700000  0.04790000  0.70730000  0.12 0.0821446348
H  H397  1  0.64700000  0.95210000  0.70730000  0.12 0.0821446348
H  H398  1  0.70730000  0.64700000  0.95210000  0.12 0.0821446348
H  H399  1  0.95210000  0.70730000  0.64700000  0.12 0.0821446348
H  H400  1  0.04790000  0.29270000  0.64700000  0.12 0.0821446348
H  H401  1  0.70730000  0.35300000  0.04790000  0.12 0.0821446348
H  H402  1  0.04790000  0.70730000  0.35300000  0.12 0.0821446348
H  H403  1  0.29270000  0.35300000  0.95210000  0.12 0.0821446348
H  H404  1  0.29270000  0.64700000  0.04790000  0.12 0.0821446348
H  H405  1  0.95210000  0.29270000  0.35300000  0.12 0.0821446348
H  H406  1  0.35300000  0.04790000  0.70730000  0.12 0.0821446348
H  H407  1  0.64700000  0.04790000  0.29270000  0.12 0.0821446348
H  H408  1  0.35300000  0.95210000  0.29270000  0.12 0.0821446348
H  H409  1  0.38810000  0.01490000  0.26770000  0.12 0.0821446348
H  H410  1  0.26770000  0.38810000  0.01490000  0.12 0.0821446348
H  H411  1  0.01490000  0.26770000  0.38810000  0.12 0.0821446348
H  H412  1  0.98510000  0.73230000  0.38810000  0.12 0.0821446348
H  H413  1  0.26770000  0.61190000  0.98510000  0.12 0.0821446348
H  H414  1  0.98510000  0.26770000  0.61190000  0.12 0.0821446348
H  H415  1  0.73230000  0.61190000  0.01490000  0.12 0.0821446348
H  H416  1  0.73230000  0.38810000  0.98510000  0.12 0.0821446348
H  H417  1  0.01490000  0.73230000  0.61190000  0.12 0.0821446348
H  H418  1  0.61190000  0.98510000  0.26770000  0.12 0.0821446348
H  H419  1  0.38810000  0.98510000  0.73230000  0.12 0.0821446348
H  H420  1  0.61190000  0.01490000  0.73230000  0.12 0.0821446348
H  H421  1  0.61190000  0.98510000  0.73230000  0.12 0.0821446348
H  H422  1  0.73230000  0.61190000  0.98510000  0.12 0.0821446348
H  H423  1  0.98510000  0.73230000  0.61190000  0.12 0.0821446348
H  H424  1  0.01490000  0.26770000  0.61190000  0.12 0.0821446348
H  H425  1  0.73230000  0.38810000  0.01490000  0.12 0.0821446348
H  H426  1  0.01490000  0.73230000  0.38810000  0.12 0.0821446348
H  H427  1  0.26770000  0.38810000  0.98510000  0.12 0.0821446348
H  H428  1  0.26770000  0.61190000  0.01490000  0.12 0.0821446348
H  H429  1  0.98510000  0.26770000  0.38810000  0.12 0.0821446348
H  H430  1  0.38810000  0.01490000  0.73230000  0.12 0.0821446348
H  H431  1  0.61190000  0.01490000  0.26770000  0.12 0.0821446348
H  H432  1  0.38810000  0.98510000  0.26770000  0.12 0.0821446348
H  H433  1  0.40650000  0.06730000  0.34580000  0.12 0.0821446348
H  H434  1  0.34580000  0.40650000  0.06730000  0.12 0.0821446348
H  H435  1  0.06730000  0.34580000  0.40650000  0.12 0.0821446348
H  H436  1  0.93270000  0.65420000  0.40650000  0.12 0.0821446348
H  H437  1  0.34580000  0.59350000  0.93270000  0.12 0.0821446348
H  H438  1  0.93270000  0.34580000  0.59350000  0.12 0.0821446348
H  H439  1  0.65420000  0.59350000  0.06730000  0.12 0.0821446348
H  H440  1  0.65420000  0.40650000  0.93270000  0.12 0.0821446348
H  H441  1  0.06730000  0.65420000  0.59350000  0.12 0.0821446348
H  H442  1  0.59350000  0.93270000  0.34580000  0.12 0.0821446348
H  H443  1  0.40650000  0.93270000  0.65420000  0.12 0.0821446348
H  H444  1  0.59350000  0.06730000  0.65420000  0.12 0.0821446348
H  H445  1  0.59350000  0.93270000  0.65420000  0.12 0.0821446348
H  H446  1  0.65420000  0.59350000  0.93270000  0.12 0.0821446348
H  H447  1  0.93270000  0.65420000  0.59350000  0.12 0.0821446348
H  H448  1  0.06730000  0.34580000  0.59350000  0.12 0.0821446348
H  H449  1  0.65420000  0.40650000  0.06730000  0.12 0.0821446348
H  H450  1  0.06730000  0.65420000  0.40650000  0.12 0.0821446348
H  H451  1  0.34580000  0.40650000  0.93270000  0.12 0.0821446348
H  H452  1  0.34580000  0.59350000  0.06730000  0.12 0.0821446348
H  H453  1  0.93270000  0.34580000  0.40650000  0.12 0.0821446348
H  H454  1  0.40650000  0.06730000  0.65420000  0.12 0.0821446348
H  H455  1  0.59350000  0.06730000  0.34580000  0.12 0.0821446348
H  H456  1  0.40650000  0.93270000  0.34580000  0.12 0.0821446348
H  H457  1  0.45992000  0.00000000  0.43396000  0.75 0.128764203
H  H458  1  0.43396000  0.45992000  0.00000000  0.75 0.128764203
H  H459  1  0.00000000  0.43396000  0.45992000  0.75 0.128764203
H  H460  1  0.00000000  0.56604000  0.45992000  0.75 0.128764203
H  H461  1  0.43396000  0.54008000  0.00000000  0.75 0.128764203
H  H462  1  0.00000000  0.43396000  0.54008000  0.75 0.128764203
H  H463  1  0.56604000  0.54008000  0.00000000  0.75 0.128764203
H  H464  1  0.56604000  0.45992000  0.00000000  0.75 0.128764203
H  H465  1  0.00000000  0.56604000  0.54008000  0.75 0.128764203
H  H466  1  0.54008000  0.00000000  0.43396000  0.75 0.128764203
H  H467  1  0.45992000  0.00000000  0.56604000  0.75 0.128764203
H  H468  1  0.54008000  0.00000000  0.56604000  0.75 0.128764203
C  C1  1  0.40390000  0.00000000  0.50000000  1.0 0.3001267579
C  C2  1  0.50000000  0.40390000  0.00000000  1.0 0.3001267579
C  C3  1  0.00000000  0.50000000  0.40390000  1.0 0.3001267579
C  C4  1  0.50000000  0.59610000  0.00000000  1.0 0.3001267579
C  C5  1  0.00000000  0.50000000  0.59610000  1.0 0.3001267579
C  C6  1  0.59610000  0.00000000  0.50000000  1.0 0.3001267579
C  C7  1  0.45419000  0.00000000  0.50000000  1.0 -0.3267827961
C  C8  1  0.50000000  0.45419000  0.00000000  1.0 -0.3267827961
C  C9  1  0.00000000  0.50000000  0.45419000  1.0 -0.3267827961
C  C10  1  0.50000000  0.54581000  0.00000000  1.0 -0.3267827961
C  C11  1  0.00000000  0.50000000  0.54581000  1.0 -0.3267827961
C  C12  1  0.54581000  0.00000000  0.50000000  1.0 -0.3267827961
C  C13  1  0.47661000  0.00000000  0.46014000  1.0 -0.1022922021
C  C14  1  0.46014000  0.47661000  0.00000000  1.0 -0.1022922021
C  C15  1  0.00000000  0.46014000  0.47661000  1.0 -0.1022922021
C  C16  1  0.00000000  0.53986000  0.47661000  1.0 -0.1022922021
C  C17  1  0.46014000  0.52339000  0.00000000  1.0 -0.1022922021
C  C18  1  0.00000000  0.46014000  0.52339000  1.0 -0.1022922021
C  C19  1  0.53986000  0.52339000  0.00000000  1.0 -0.0949137095
C  C20  1  0.53986000  0.47661000  0.00000000  1.0 -0.1022922021
C  C21  1  0.00000000  0.53986000  0.52339000  1.0 -0.1022922021
C  C22  1  0.52339000  0.00000000  0.46014000  1.0 -0.1022922021
C  C23  1  0.47661000  0.00000000  0.53986000  1.0 -0.1022922021
C  C24  1  0.52339000  0.00000000  0.53986000  1.0 -0.0949137095
C  C25  1  0.16747000  0.00000000  0.50000000  1.0 0.60570344
C  C26  1  0.50000000  0.16747000  0.00000000  1.0 0.60570344
C  C27  1  0.00000000  0.50000000  0.16747000  1.0 0.60570344
C  C28  1  0.50000000  0.83253000  0.00000000  1.0 0.60570344
C  C29  1  0.00000000  0.50000000  0.83253000  1.0 0.60570344
C  C30  1  0.83253000  0.00000000  0.50000000  1.0 0.60570344
C  C31  1  0.11777000  0.00000000  0.50000000  1.0 -0.0616656503
C  C32  1  0.50000000  0.11777000  0.00000000  1.0 -0.0616656503
C  C33  1  0.00000000  0.50000000  0.11777000  1.0 -0.0616656503
C  C34  1  0.50000000  0.88223000  0.00000000  1.0 -0.0616656503
C  C35  1  0.00000000  0.50000000  0.88223000  1.0 -0.0616656503
C  C36  1  0.88223000  0.00000000  0.50000000  1.0 -0.0616656503
C  C37  1  0.09456000  0.03773000  0.50000000  1.0 -0.1022922021
C  C38  1  0.50000000  0.09456000  0.03773000  1.0 -0.1022922021
C  C39  1  0.03773000  0.50000000  0.09456000  1.0 -0.1022922021
C  C40  1  0.96227000  0.50000000  0.09456000  1.0 -0.1022922021
C  C41  1  0.50000000  0.90544000  0.96227000  1.0 -0.1022922021
C  C42  1  0.96227000  0.50000000  0.90544000  1.0 -0.1022922021
C  C43  1  0.50000000  0.90544000  0.03773000  1.0 -0.1022922021
C  C44  1  0.50000000  0.09456000  0.96227000  1.0 -0.1022922021
C  C45  1  0.03773000  0.50000000  0.90544000  1.0 -0.1022922021
C  C46  1  0.90544000  0.96227000  0.50000000  1.0 -0.1022922021
C  C47  1  0.09456000  0.96227000  0.50000000  1.0 -0.1022922021
C  C48  1  0.90544000  0.03773000  0.50000000  1.0 -0.1022922021
C  C49  1  0.04802000  0.03807000  0.50000000  1.0 -0.1555374807
C  C50  1  0.50000000  0.04802000  0.03807000  1.0 -0.1555374807
C  C51  1  0.03807000  0.50000000  0.04802000  1.0 -0.1555374807
C  C52  1  0.96193000  0.50000000  0.04802000  1.0 -0.1555374807
C  C53  1  0.50000000  0.95198000  0.96193000  1.0 -0.1555374807
C  C54  1  0.96193000  0.50000000  0.95198000  1.0 -0.1555374807
C  C55  1  0.50000000  0.95198000  0.03807000  1.0 -0.1555374807
C  C56  1  0.50000000  0.04802000  0.96193000  1.0 -0.1555374807
C  C57  1  0.03807000  0.50000000  0.95198000  1.0 -0.1555374807
C  C58  1  0.95198000  0.96193000  0.50000000  1.0 -0.1555374807
C  C59  1  0.04802000  0.96193000  0.50000000  1.0 -0.1555374807
C  C60  1  0.95198000  0.03807000  0.50000000  1.0 -0.1555374807
C  C61  1  0.02487000  0.00000000  0.50000000  1.0 0.0821446348
C  C62  1  0.50000000  0.02487000  0.00000000  1.0 0.0821446348
C  C63  1  0.00000000  0.50000000  0.02487000  1.0 0.0821446348
C  C64  1  0.50000000  0.97513000  0.00000000  1.0 0.0821446348
C  C65  1  0.00000000  0.50000000  0.97513000  1.0 0.0821446348
C  C66  1  0.97513000  0.00000000  0.50000000  1.0 0.0821446348
C  C67  1  0.28577000  0.08439000  0.41536000  1.0 0.5838692553
C  C68  1  0.41536000  0.28577000  0.08439000  1.0 0.5838692553
C  C69  1  0.08439000  0.41536000  0.28577000  1.0 0.5838692553
C  C70  1  0.91561000  0.58464000  0.28577000  1.0 0.5838692553
C  C71  1  0.41536000  0.71423000  0.91561000  1.0 0.5838692553
C  C72  1  0.91561000  0.41536000  0.71423000  1.0 0.5838692553
C  C73  1  0.58464000  0.71423000  0.08439000  1.0 0.5838692553
C  C74  1  0.58464000  0.28577000  0.91561000  1.0 0.5838692553
C  C75  1  0.08439000  0.58464000  0.71423000  1.0 0.5838692553
C  C76  1  0.71423000  0.91561000  0.41536000  1.0 0.5838692553
C  C77  1  0.28577000  0.91561000  0.58464000  1.0 0.5838692553
C  C78  1  0.71423000  0.08439000  0.58464000  1.0 0.5838692553
C  C79  1  0.71423000  0.91561000  0.58464000  1.0 0.5838692553
C  C80  1  0.58464000  0.71423000  0.91561000  1.0 0.5838692553
C  C81  1  0.91561000  0.58464000  0.71423000  1.0 0.5838692553
C  C82  1  0.08439000  0.41536000  0.71423000  1.0 0.5838692553
C  C83  1  0.58464000  0.28577000  0.08439000  1.0 0.5838692553
C  C84  1  0.08439000  0.58464000  0.28577000  1.0 0.5838692553
C  C85  1  0.41536000  0.28577000  0.91561000  1.0 0.5838692553
C  C86  1  0.41536000  0.71423000  0.08439000  1.0 0.5838692553
C  C87  1  0.91561000  0.41536000  0.28577000  1.0 0.5838692553
C  C88  1  0.28577000  0.08439000  0.58464000  1.0 0.5838692553
C  C89  1  0.71423000  0.08439000  0.41536000  1.0 0.5838692553
C  C90  1  0.28577000  0.91561000  0.41536000  1.0 0.5838692553
C  C91  1  0.28565000  0.11945000  0.38019000  1.0 -0.0384673178
C  C92  1  0.38019000  0.28565000  0.11945000  1.0 -0.0384673178
C  C93  1  0.11945000  0.38019000  0.28565000  1.0 -0.0384673178
C  C94  1  0.88055000  0.61981000  0.28565000  1.0 -0.0384673178
C  C95  1  0.38019000  0.71435000  0.88055000  1.0 -0.0384673178
C  C96  1  0.88055000  0.38019000  0.71435000  1.0 -0.0384673178
C  C97  1  0.61981000  0.71435000  0.11945000  1.0 -0.0384673178
C  C98  1  0.61981000  0.28565000  0.88055000  1.0 -0.0384673178
C  C99  1  0.11945000  0.61981000  0.71435000  1.0 -0.0384673178
C  C100  1  0.71435000  0.88055000  0.38019000  1.0 -0.0384673178
C  C101  1  0.28565000  0.88055000  0.61981000  1.0 -0.0384673178
C  C102  1  0.71435000  0.11945000  0.61981000  1.0 -0.0384673178
C  C103  1  0.71435000  0.88055000  0.61981000  1.0 -0.0384673178
C  C104  1  0.61981000  0.71435000  0.88055000  1.0 -0.0384673178
C  C105  1  0.88055000  0.61981000  0.71435000  1.0 -0.0384673178
C  C106  1  0.11945000  0.38019000  0.71435000  1.0 -0.0384673178
C  C107  1  0.61981000  0.28565000  0.11945000  1.0 -0.0384673178
C  C108  1  0.11945000  0.61981000  0.28565000  1.0 -0.0384673178
C  C109  1  0.38019000  0.28565000  0.88055000  1.0 -0.0384673178
C  C110  1  0.38019000  0.71435000  0.11945000  1.0 -0.0384673178
C  C111  1  0.88055000  0.38019000  0.28565000  1.0 -0.0384673178
C  C112  1  0.28565000  0.11945000  0.61981000  1.0 -0.0384673178
C  C113  1  0.71435000  0.11945000  0.38019000  1.0 -0.0384673178
C  C114  1  0.28565000  0.88055000  0.38019000  1.0 -0.0384673178
C  C115  1  0.31812000  0.11903000  0.34731000  1.0 -0.1830674105
C  C116  1  0.34731000  0.31812000  0.11903000  1.0 -0.1830674105
C  C117  1  0.11903000  0.34731000  0.31812000  1.0 -0.1830674105
C  C118  1  0.88097000  0.65269000  0.31812000  1.0 -0.1830674105
C  C119  1  0.34731000  0.68188000  0.88097000  1.0 -0.1851017359
C  C120  1  0.88097000  0.34731000  0.68188000  1.0 -0.1851017359
C  C121  1  0.65269000  0.68188000  0.11903000  1.0 -0.1830674105
C  C122  1  0.65269000  0.31812000  0.88097000  1.0 -0.1830674105
C  C123  1  0.11903000  0.65269000  0.68188000  1.0 -0.1851017359
C  C124  1  0.68188000  0.88097000  0.34731000  1.0 -0.1851017359
C  C125  1  0.31812000  0.88097000  0.65269000  1.0 -0.1830674105
C  C126  1  0.68188000  0.11903000  0.65269000  1.0 -0.1830674105
C  C127  1  0.68188000  0.88097000  0.65269000  1.0 -0.1830674105
C  C128  1  0.65269000  0.68188000  0.88097000  1.0 -0.1830674105
C  C129  1  0.88097000  0.65269000  0.68188000  1.0 -0.1830674105
C  C130  1  0.11903000  0.34731000  0.68188000  1.0 -0.1851017359
C  C131  1  0.65269000  0.31812000  0.11903000  1.0 -0.1830674105
C  C132  1  0.11903000  0.65269000  0.31812000  1.0 -0.1830674105
C  C133  1  0.34731000  0.31812000  0.88097000  1.0 -0.1851017359
C  C134  1  0.34731000  0.68188000  0.11903000  1.0 -0.1851017359
C  C135  1  0.88097000  0.34731000  0.31812000  1.0 -0.1830674105
C  C136  1  0.31812000  0.11903000  0.65269000  1.0 -0.1830674105
C  C137  1  0.68188000  0.11903000  0.34731000  1.0 -0.1851017359
C  C138  1  0.31812000  0.88097000  0.34731000  1.0 -0.1851017359
C  C139  1  0.31900000  0.15179000  0.31441000  1.0 -0.1742368119
C  C140  1  0.31441000  0.31900000  0.15179000  1.0 -0.1742368119
C  C141  1  0.15179000  0.31441000  0.31900000  1.0 -0.1742368119
C  C142  1  0.84821000  0.68559000  0.31900000  1.0 -0.1742368119
C  C143  1  0.31441000  0.68100000  0.84821000  1.0 -0.1742368119
C  C144  1  0.84821000  0.31441000  0.68100000  1.0 -0.1742368119
C  C145  1  0.68559000  0.68100000  0.15179000  1.0 -0.1742368119
C  C146  1  0.68559000  0.31900000  0.84821000  1.0 -0.1742368119
C  C147  1  0.15179000  0.68559000  0.68100000  1.0 -0.1742368119
C  C148  1  0.68100000  0.84821000  0.31441000  1.0 -0.1742368119
C  C149  1  0.31900000  0.84821000  0.68559000  1.0 -0.1742368119
C  C150  1  0.68100000  0.15179000  0.68559000  1.0 -0.1742368119
C  C151  1  0.68100000  0.84821000  0.68559000  1.0 -0.1742368119
C  C152  1  0.68559000  0.68100000  0.84821000  1.0 -0.1742368119
C  C153  1  0.84821000  0.68559000  0.68100000  1.0 -0.1742368119
C  C154  1  0.15179000  0.31441000  0.68100000  1.0 -0.1742368119
C  C155  1  0.68559000  0.31900000  0.15179000  1.0 -0.1742368119
C  C156  1  0.15179000  0.68559000  0.31900000  1.0 -0.1742368119
C  C157  1  0.31441000  0.31900000  0.84821000  1.0 -0.1742368119
C  C158  1  0.31441000  0.68100000  0.15179000  1.0 -0.1742368119
C  C159  1  0.84821000  0.31441000  0.31900000  1.0 -0.1742368119
C  C160  1  0.31900000  0.15179000  0.68559000  1.0 -0.1742368119
C  C161  1  0.68100000  0.15179000  0.31441000  1.0 -0.1742368119
C  C162  1  0.31900000  0.84821000  0.31441000  1.0 -0.1742368119
C  C163  1  0.28677000  0.18516000  0.31406000  1.0 0.0349069913
C  C164  1  0.31406000  0.28677000  0.18516000  1.0 0.0349069913
C  C165  1  0.18516000  0.31406000  0.28677000  1.0 0.0349069913
C  C166  1  0.81484000  0.68594000  0.28677000  1.0 0.0349069913
C  C167  1  0.31406000  0.71323000  0.81484000  1.0 0.0349069913
C  C168  1  0.81484000  0.31406000  0.71323000  1.0 0.0349069913
C  C169  1  0.68594000  0.71323000  0.18516000  1.0 0.0349069913
C  C170  1  0.68594000  0.28677000  0.81484000  1.0 0.0349069913
C  C171  1  0.18516000  0.68594000  0.71323000  1.0 0.0349069913
C  C172  1  0.71323000  0.81484000  0.31406000  1.0 0.0349069913
C  C173  1  0.28677000  0.81484000  0.68594000  1.0 0.0349069913
C  C174  1  0.71323000  0.18516000  0.68594000  1.0 0.0349069913
C  C175  1  0.71323000  0.81484000  0.68594000  1.0 0.0349069913
C  C176  1  0.68594000  0.71323000  0.81484000  1.0 0.0349069913
C  C177  1  0.81484000  0.68594000  0.71323000  1.0 0.0349069913
C  C178  1  0.18516000  0.31406000  0.71323000  1.0 0.0349069913
C  C179  1  0.68594000  0.28677000  0.18516000  1.0 0.0349069913
C  C180  1  0.18516000  0.68594000  0.28677000  1.0 0.0349069913
C  C181  1  0.31406000  0.28677000  0.81484000  1.0 0.0349069913
C  C182  1  0.31406000  0.71323000  0.18516000  1.0 0.0349069913
C  C183  1  0.81484000  0.31406000  0.28677000  1.0 0.0349069913
C  C184  1  0.28677000  0.18516000  0.68594000  1.0 0.0349069913
C  C185  1  0.71323000  0.18516000  0.31406000  1.0 0.0349069913
C  C186  1  0.28677000  0.81484000  0.31406000  1.0 0.0349069913
C  C187  1  0.25444000  0.18543000  0.34728000  1.0 0.0198049424
C  C188  1  0.34728000  0.25444000  0.18543000  1.0 0.0198049424
C  C189  1  0.18543000  0.34728000  0.25444000  1.0 0.0198049424
C  C190  1  0.81457000  0.65272000  0.25444000  1.0 0.0198049424
C  C191  1  0.34728000  0.74556000  0.81457000  1.0 0.0198049424
C  C192  1  0.81457000  0.34728000  0.74556000  1.0 0.0198049424
C  C193  1  0.65272000  0.74556000  0.18543000  1.0 0.0198049424
C  C194  1  0.65272000  0.25444000  0.81457000  1.0 0.0198049424
C  C195  1  0.18543000  0.65272000  0.74556000  1.0 0.0198049424
C  C196  1  0.74556000  0.81457000  0.34728000  1.0 0.0198049424
C  C197  1  0.25444000  0.81457000  0.65272000  1.0 0.0198049424
C  C198  1  0.74556000  0.18543000  0.65272000  1.0 0.0198049424
C  C199  1  0.74556000  0.81457000  0.65272000  1.0 0.0198049424
C  C200  1  0.65272000  0.74556000  0.81457000  1.0 0.0198049424
C  C201  1  0.81457000  0.65272000  0.74556000  1.0 0.0198049424
C  C202  1  0.18543000  0.34728000  0.74556000  1.0 0.0198049424
C  C203  1  0.65272000  0.25444000  0.18543000  1.0 0.0198049424
C  C204  1  0.18543000  0.65272000  0.25444000  1.0 0.0198049424
C  C205  1  0.34728000  0.25444000  0.81457000  1.0 0.0198049424
C  C206  1  0.34728000  0.74556000  0.18543000  1.0 0.0198049424
C  C207  1  0.81457000  0.34728000  0.25444000  1.0 0.0198049424
C  C208  1  0.25444000  0.18543000  0.65272000  1.0 0.0198049424
C  C209  1  0.74556000  0.18543000  0.34728000  1.0 0.0198049424
C  C210  1  0.25444000  0.81457000  0.34728000  1.0 0.0198049424
C  C211  1  0.25378000  0.15287000  0.38033000  1.0 -0.1496544588
C  C212  1  0.38033000  0.25378000  0.15287000  1.0 -0.1496544588
C  C213  1  0.15287000  0.38033000  0.25378000  1.0 -0.1496544588
C  C214  1  0.84713000  0.61967000  0.25378000  1.0 -0.1496544588
C  C215  1  0.38033000  0.74622000  0.84713000  1.0 -0.1496544588
C  C216  1  0.84713000  0.38033000  0.74622000  1.0 -0.1496544588
C  C217  1  0.61967000  0.74622000  0.15287000  1.0 -0.1496544588
C  C218  1  0.61967000  0.25378000  0.84713000  1.0 -0.1496544588
C  C219  1  0.15287000  0.61967000  0.74622000  1.0 -0.1496544588
C  C220  1  0.74622000  0.84713000  0.38033000  1.0 -0.1496544588
C  C221  1  0.25378000  0.84713000  0.61967000  1.0 -0.1496544588
C  C222  1  0.74622000  0.15287000  0.61967000  1.0 -0.1496544588
C  C223  1  0.74622000  0.84713000  0.61967000  1.0 -0.1496544588
C  C224  1  0.61967000  0.74622000  0.84713000  1.0 -0.1496544588
C  C225  1  0.84713000  0.61967000  0.74622000  1.0 -0.1496544588
C  C226  1  0.15287000  0.38033000  0.74622000  1.0 -0.1496544588
C  C227  1  0.61967000  0.25378000  0.15287000  1.0 -0.1496544588
C  C228  1  0.15287000  0.61967000  0.25378000  1.0 -0.1496544588
C  C229  1  0.38033000  0.25378000  0.84713000  1.0 -0.1496544588
C  C230  1  0.38033000  0.74622000  0.15287000  1.0 -0.1496544588
C  C231  1  0.84713000  0.38033000  0.25378000  1.0 -0.1496544588
C  C232  1  0.25378000  0.15287000  0.61967000  1.0 -0.1496544588
C  C233  1  0.74622000  0.15287000  0.38033000  1.0 -0.1496544588
C  C234  1  0.25378000  0.84713000  0.38033000  1.0 -0.1496544588
C  C235  1  0.27798000  0.22380000  0.28378000  1.0 -0.0384673178
C  C236  1  0.28378000  0.27798000  0.22380000  1.0 -0.0384673178
C  C237  1  0.22380000  0.28378000  0.27798000  1.0 -0.0384673178
C  C238  1  0.77620000  0.71622000  0.27798000  1.0 -0.0384673178
C  C239  1  0.28378000  0.72202000  0.77620000  1.0 -0.0384673178
C  C240  1  0.77620000  0.28378000  0.72202000  1.0 -0.0384673178
C  C241  1  0.71622000  0.72202000  0.22380000  1.0 -0.0384673178
C  C242  1  0.71622000  0.27798000  0.77620000  1.0 -0.0384673178
C  C243  1  0.22380000  0.71622000  0.72202000  1.0 -0.0384673178
C  C244  1  0.72202000  0.77620000  0.28378000  1.0 -0.0384673178
C  C245  1  0.27798000  0.77620000  0.71622000  1.0 -0.0384673178
C  C246  1  0.72202000  0.22380000  0.71622000  1.0 -0.0384673178
C  C247  1  0.72202000  0.77620000  0.71622000  1.0 -0.0384673178
C  C248  1  0.71622000  0.72202000  0.77620000  1.0 -0.0384673178
C  C249  1  0.77620000  0.71622000  0.72202000  1.0 -0.0384673178
C  C250  1  0.22380000  0.28378000  0.72202000  1.0 -0.0384673178
C  C251  1  0.71622000  0.27798000  0.22380000  1.0 -0.0384673178
C  C252  1  0.22380000  0.71622000  0.27798000  1.0 -0.0384673178
C  C253  1  0.28378000  0.27798000  0.77620000  1.0 -0.0384673178
C  C254  1  0.28378000  0.72202000  0.22380000  1.0 -0.0384673178
C  C255  1  0.77620000  0.28378000  0.27798000  1.0 -0.0384673178
C  C256  1  0.27798000  0.22380000  0.71622000  1.0 -0.0384673178
C  C257  1  0.72202000  0.22380000  0.28378000  1.0 -0.0384673178
C  C258  1  0.27798000  0.77620000  0.28378000  1.0 -0.0384673178
C  C259  1  0.23964000  0.24591000  0.29988000  1.0 -0.0157879721
C  C260  1  0.29988000  0.23964000  0.24591000  1.0 -0.0157879721
C  C261  1  0.24591000  0.29988000  0.23964000  1.0 -0.0157879721
C  C262  1  0.75409000  0.70012000  0.23964000  1.0 -0.0157879721
C  C263  1  0.29988000  0.76036000  0.75409000  1.0 -0.0157879721
C  C264  1  0.75409000  0.29988000  0.76036000  1.0 -0.0157879721
C  C265  1  0.70012000  0.76036000  0.24591000  1.0 -0.0157879721
C  C266  1  0.70012000  0.23964000  0.75409000  1.0 -0.0157879721
C  C267  1  0.24591000  0.70012000  0.76036000  1.0 -0.0157879721
C  C268  1  0.76036000  0.75409000  0.29988000  1.0 -0.0157879721
C  C269  1  0.23964000  0.75409000  0.70012000  1.0 -0.0157879721
C  C270  1  0.76036000  0.24591000  0.70012000  1.0 -0.0157879721
C  C271  1  0.76036000  0.75409000  0.70012000  1.0 -0.0157879721
C  C272  1  0.70012000  0.76036000  0.75409000  1.0 -0.0157879721
C  C273  1  0.75409000  0.70012000  0.76036000  1.0 -0.0157879721
C  C274  1  0.24591000  0.29988000  0.76036000  1.0 -0.0157879721
C  C275  1  0.70012000  0.23964000  0.24591000  1.0 -0.0114482501
C  C276  1  0.24591000  0.70012000  0.23964000  1.0 -0.0114482501
C  C277  1  0.29988000  0.23964000  0.75409000  1.0 -0.0157879721
C  C278  1  0.29988000  0.76036000  0.24591000  1.0 -0.0157879721
C  C279  1  0.75409000  0.29988000  0.23964000  1.0 -0.0157879721
C  C280  1  0.23964000  0.24591000  0.70012000  1.0 -0.0157879721
C  C281  1  0.76036000  0.24591000  0.29988000  1.0 -0.0157879721
C  C282  1  0.23964000  0.75409000  0.29988000  1.0 -0.0157879721
C  C283  1  0.22167000  0.22327000  0.34161000  1.0 0.1808329806
C  C284  1  0.34161000  0.22167000  0.22327000  1.0 0.1808329806
C  C285  1  0.22327000  0.34161000  0.22167000  1.0 0.1808329806
C  C286  1  0.77673000  0.65839000  0.22167000  1.0 0.1808329806
C  C287  1  0.34161000  0.77833000  0.77673000  1.0 0.1808329806
C  C288  1  0.77673000  0.34161000  0.77833000  1.0 0.1808329806
C  C289  1  0.65839000  0.77833000  0.22327000  1.0 0.1808329806
C  C290  1  0.65839000  0.22167000  0.77673000  1.0 0.1808329806
C  C291  1  0.22327000  0.65839000  0.77833000  1.0 0.1808329806
C  C292  1  0.77833000  0.77673000  0.34161000  1.0 0.1808329806
C  C293  1  0.22167000  0.77673000  0.65839000  1.0 0.1808329806
C  C294  1  0.77833000  0.22327000  0.65839000  1.0 0.1808329806
C  C295  1  0.77833000  0.77673000  0.65839000  1.0 0.1808329806
C  C296  1  0.65839000  0.77833000  0.77673000  1.0 0.1808329806
C  C297  1  0.77673000  0.65839000  0.77833000  1.0 0.1808329806
C  C298  1  0.22327000  0.34161000  0.77833000  1.0 0.1808329806
C  C299  1  0.65839000  0.22167000  0.22327000  1.0 0.1808329806
C  C300  1  0.22327000  0.65839000  0.22167000  1.0 0.1808329806
C  C301  1  0.34161000  0.22167000  0.77673000  1.0 0.1808329806
C  C302  1  0.34161000  0.77833000  0.22327000  1.0 0.1808329806
C  C303  1  0.77673000  0.34161000  0.22167000  1.0 0.1808329806
C  C304  1  0.22167000  0.22327000  0.65839000  1.0 0.1808329806
C  C305  1  0.77833000  0.22327000  0.34161000  1.0 0.1808329806
C  C306  1  0.22167000  0.77673000  0.34161000  1.0 0.1808329806
C  C307  1  0.22458000  0.25323000  0.38293000  1.0 -0.4513166226
C  C308  1  0.38293000  0.22458000  0.25323000  1.0 -0.4513166226
C  C309  1  0.25323000  0.38293000  0.22458000  1.0 -0.4513166226
C  C310  1  0.74677000  0.61707000  0.22458000  1.0 -0.4513166226
C  C311  1  0.38293000  0.77542000  0.74677000  1.0 -0.4513166226
C  C312  1  0.74677000  0.38293000  0.77542000  1.0 -0.4513166226
C  C313  1  0.61707000  0.77542000  0.25323000  1.0 -0.4513166226
C  C314  1  0.61707000  0.22458000  0.74677000  1.0 -0.4513166226
C  C315  1  0.25323000  0.61707000  0.77542000  1.0 -0.4513166226
C  C316  1  0.77542000  0.74677000  0.38293000  1.0 -0.4513166226
C  C317  1  0.22458000  0.74677000  0.61707000  1.0 -0.4513166226
C  C318  1  0.77542000  0.25323000  0.61707000  1.0 -0.4513166226
C  C319  1  0.77542000  0.74677000  0.61707000  1.0 -0.4513166226
C  C320  1  0.61707000  0.77542000  0.74677000  1.0 -0.4513166226
C  C321  1  0.74677000  0.61707000  0.77542000  1.0 -0.4513166226
C  C322  1  0.25323000  0.38293000  0.77542000  1.0 -0.4513166226
C  C323  1  0.61707000  0.22458000  0.25323000  1.0 -0.4513166226
C  C324  1  0.25323000  0.61707000  0.22458000  1.0 -0.4513166226
C  C325  1  0.38293000  0.22458000  0.74677000  1.0 -0.4513166226
C  C326  1  0.38293000  0.77542000  0.25323000  1.0 -0.4513166226
C  C327  1  0.74677000  0.38293000  0.22458000  1.0 -0.4513166226
C  C328  1  0.22458000  0.25323000  0.61707000  1.0 -0.4513166226
C  C329  1  0.77542000  0.25323000  0.38293000  1.0 -0.4513166226
C  C330  1  0.22458000  0.74677000  0.38293000  1.0 -0.4513166226
C  C331  1  0.17512000  0.20318000  0.33347000  1.0 -0.4513166226
C  C332  1  0.33347000  0.17512000  0.20318000  1.0 -0.4513166226
C  C333  1  0.20318000  0.33347000  0.17512000  1.0 -0.4513166226
C  C334  1  0.79682000  0.66653000  0.17512000  1.0 -0.4513166226
C  C335  1  0.33347000  0.82488000  0.79682000  1.0 -0.4513166226
C  C336  1  0.79682000  0.33347000  0.82488000  1.0 -0.4513166226
C  C337  1  0.66653000  0.82488000  0.20318000  1.0 -0.4513166226
C  C338  1  0.66653000  0.17512000  0.79682000  1.0 -0.4513166226
C  C339  1  0.20318000  0.66653000  0.82488000  1.0 -0.4513166226
C  C340  1  0.82488000  0.79682000  0.33347000  1.0 -0.4513166226
C  C341  1  0.17512000  0.79682000  0.66653000  1.0 -0.4513166226
C  C342  1  0.82488000  0.20318000  0.66653000  1.0 -0.4513166226
C  C343  1  0.82488000  0.79682000  0.66653000  1.0 -0.4513166226
C  C344  1  0.66653000  0.82488000  0.79682000  1.0 -0.4513166226
C  C345  1  0.79682000  0.66653000  0.82488000  1.0 -0.4513166226
C  C346  1  0.20318000  0.33347000  0.82488000  1.0 -0.4513166226
C  C347  1  0.66653000  0.17512000  0.20318000  1.0 -0.4513166226
C  C348  1  0.20318000  0.66653000  0.17512000  1.0 -0.4513166226
C  C349  1  0.33347000  0.17512000  0.79682000  1.0 -0.4513166226
C  C350  1  0.33347000  0.82488000  0.20318000  1.0 -0.4513166226
C  C351  1  0.79682000  0.33347000  0.17512000  1.0 -0.4513166226
C  C352  1  0.17512000  0.20318000  0.66653000  1.0 -0.4513166226
C  C353  1  0.82488000  0.20318000  0.33347000  1.0 -0.4513166226
C  C354  1  0.17512000  0.79682000  0.33347000  1.0 -0.4513166226
C  C355  1  0.44510000  0.00880000  0.33660000  0.12 0.0198049424
C  C356  1  0.33660000  0.44510000  0.00880000  0.12 0.0198049424
C  C357  1  0.00880000  0.33660000  0.44510000  0.12 0.0198049424
C  C358  1  0.99120000  0.66340000  0.44510000  0.12 0.0198049424
C  C359  1  0.33660000  0.55490000  0.99120000  0.12 0.0198049424
C  C360  1  0.99120000  0.33660000  0.55490000  0.12 0.0198049424
C  C361  1  0.66340000  0.55490000  0.00880000  0.12 0.0198049424
C  C362  1  0.66340000  0.44510000  0.99120000  0.12 0.0198049424
C  C363  1  0.00880000  0.66340000  0.55490000  0.12 0.0198049424
C  C364  1  0.55490000  0.99120000  0.33660000  0.12 0.0198049424
C  C365  1  0.44510000  0.99120000  0.66340000  0.12 0.0198049424
C  C366  1  0.55490000  0.00880000  0.66340000  0.12 0.0198049424
C  C367  1  0.55490000  0.99120000  0.66340000  0.12 0.0198049424
C  C368  1  0.66340000  0.55490000  0.99120000  0.12 0.0198049424
C  C369  1  0.99120000  0.66340000  0.55490000  0.12 0.0198049424
C  C370  1  0.00880000  0.33660000  0.55490000  0.12 0.0198049424
C  C371  1  0.66340000  0.44510000  0.00880000  0.12 0.0198049424
C  C372  1  0.00880000  0.66340000  0.44510000  0.12 0.0198049424
C  C373  1  0.33660000  0.44510000  0.99120000  0.12 0.0198049424
C  C374  1  0.33660000  0.55490000  0.00880000  0.12 0.0198049424
C  C375  1  0.99120000  0.33660000  0.44510000  0.12 0.0198049424
C  C376  1  0.44510000  0.00880000  0.66340000  0.12 0.0198049424
C  C377  1  0.55490000  0.00880000  0.33660000  0.12 0.0198049424
C  C378  1  0.44510000  0.99120000  0.33660000  0.12 0.0198049424
C  C379  1  0.41830000  0.04920000  0.31950000  0.12 -0.1022922021
C  C380  1  0.31950000  0.41830000  0.04920000  0.12 -0.1022922021
C  C381  1  0.04920000  0.31950000  0.41830000  0.12 -0.1022922021
C  C382  1  0.95080000  0.68050000  0.41830000  0.12 -0.1022922021
C  C383  1  0.31950000  0.58170000  0.95080000  0.12 -0.1022922021
C  C384  1  0.95080000  0.31950000  0.58170000  0.12 -0.1022922021
C  C385  1  0.68050000  0.58170000  0.04920000  0.12 -0.1022922021
C  C386  1  0.68050000  0.41830000  0.95080000  0.12 -0.1022922021
C  C387  1  0.04920000  0.68050000  0.58170000  0.12 -0.1022922021
C  C388  1  0.58170000  0.95080000  0.31950000  0.12 -0.1022922021
C  C389  1  0.41830000  0.95080000  0.68050000  0.12 -0.1022922021
C  C390  1  0.58170000  0.04920000  0.68050000  0.12 -0.1022922021
C  C391  1  0.58170000  0.95080000  0.68050000  0.12 -0.1022922021
C  C392  1  0.68050000  0.58170000  0.95080000  0.12 -0.1022922021
C  C393  1  0.95080000  0.68050000  0.58170000  0.12 -0.1022922021
C  C394  1  0.04920000  0.31950000  0.58170000  0.12 -0.1022922021
C  C395  1  0.68050000  0.41830000  0.04920000  0.12 -0.1022922021
C  C396  1  0.04920000  0.68050000  0.41830000  0.12 -0.1022922021
C  C397  1  0.31950000  0.41830000  0.95080000  0.12 -0.1022922021
C  C398  1  0.31950000  0.58170000  0.04920000  0.12 -0.1022922021
C  C399  1  0.95080000  0.31950000  0.41830000  0.12 -0.1022922021
C  C400  1  0.41830000  0.04920000  0.68050000  0.12 -0.1022922021
C  C401  1  0.58170000  0.04920000  0.31950000  0.12 -0.1022922021
C  C402  1  0.41830000  0.95080000  0.31950000  0.12 -0.1022922021
C  C403  1  0.47480000  0.02130000  0.37570000  0.12 0.074463683
C  C404  1  0.37570000  0.47480000  0.02130000  0.12 0.074463683
C  C405  1  0.02130000  0.37570000  0.47480000  0.12 0.074463683
C  C406  1  0.97870000  0.62430000  0.47480000  0.12 0.074463683
C  C407  1  0.37570000  0.52520000  0.97870000  0.12 0.074463683
C  C408  1  0.97870000  0.37570000  0.52520000  0.12 0.074463683
C  C409  1  0.62430000  0.52520000  0.02130000  0.12 0.074463683
C  C410  1  0.62430000  0.47480000  0.97870000  0.12 0.074463683
C  C411  1  0.02130000  0.62430000  0.52520000  0.12 0.0821446348
C  C412  1  0.52520000  0.97870000  0.37570000  0.12 0.0821446348
C  C413  1  0.47480000  0.97870000  0.62430000  0.12 0.074463683
C  C414  1  0.52520000  0.02130000  0.62430000  0.12 0.074463683
C  C415  1  0.52520000  0.97870000  0.62430000  0.12 0.074463683
C  C416  1  0.62430000  0.52520000  0.97870000  0.12 0.074463683
C  C417  1  0.97870000  0.62430000  0.52520000  0.12 0.074463683
C  C418  1  0.02130000  0.37570000  0.52520000  0.12 0.074463683
C  C419  1  0.62430000  0.47480000  0.02130000  0.12 0.074463683
C  C420  1  0.02130000  0.62430000  0.47480000  0.12 0.0821446348
C  C421  1  0.37570000  0.47480000  0.97870000  0.12 0.074463683
C  C422  1  0.37570000  0.52520000  0.02130000  0.12 0.074463683
C  C423  1  0.97870000  0.37570000  0.47480000  0.12 0.074463683
C  C424  1  0.47480000  0.02130000  0.62430000  0.12 0.074463683
C  C425  1  0.52520000  0.02130000  0.37570000  0.12 0.074463683
C  C426  1  0.47480000  0.97870000  0.37570000  0.12 0.0821446348
C  C427  1  0.36630000  0.98920000  0.32790000  0.12 -0.0616656503
C  C428  1  0.32790000  0.36630000  0.98920000  0.12 -0.0616656503
C  C429  1  0.98920000  0.32790000  0.36630000  0.12 -0.0616656503
C  C430  1  0.01080000  0.67210000  0.36630000  0.12 -0.0616656503
C  C431  1  0.32790000  0.63370000  0.01080000  0.12 -0.0616656503
C  C432  1  0.01080000  0.32790000  0.63370000  0.12 -0.0616656503
C  C433  1  0.67210000  0.63370000  0.98920000  0.12 -0.0616656503
C  C434  1  0.67210000  0.36630000  0.01080000  0.12 -0.0616656503
C  C435  1  0.98920000  0.67210000  0.63370000  0.12 -0.0616656503
C  C436  1  0.63370000  0.01080000  0.32790000  0.12 -0.0616656503
C  C437  1  0.36630000  0.01080000  0.67210000  0.12 -0.0616656503
C  C438  1  0.63370000  0.98920000  0.67210000  0.12 -0.0616656503
C  C439  1  0.63370000  0.01080000  0.67210000  0.12 -0.0616656503
C  C440  1  0.67210000  0.63370000  0.01080000  0.12 -0.0616656503
C  C441  1  0.01080000  0.67210000  0.63370000  0.12 -0.0616656503
C  C442  1  0.98920000  0.32790000  0.63370000  0.12 -0.0616656503
C  C443  1  0.67210000  0.36630000  0.98920000  0.12 -0.0616656503
C  C444  1  0.98920000  0.67210000  0.36630000  0.12 -0.0616656503
C  C445  1  0.32790000  0.36630000  0.01080000  0.12 -0.0616656503
C  C446  1  0.32790000  0.63370000  0.98920000  0.12 -0.0616656503
C  C447  1  0.01080000  0.32790000  0.36630000  0.12 -0.0616656503
C  C448  1  0.36630000  0.98920000  0.67210000  0.12 -0.0616656503
C  C449  1  0.63370000  0.98920000  0.32790000  0.12 -0.0616656503
C  C450  1  0.36630000  0.01080000  0.32790000  0.12 -0.0616656503
C  C451  1  0.37820000  0.02760000  0.29680000  0.12 -0.106355929
C  C452  1  0.29680000  0.37820000  0.02760000  0.12 -0.106355929
C  C453  1  0.02760000  0.29680000  0.37820000  0.12 -0.106355929
C  C454  1  0.97240000  0.70320000  0.37820000  0.12 -0.106355929
C  C455  1  0.29680000  0.62180000  0.97240000  0.12 -0.106355929
C  C456  1  0.97240000  0.29680000  0.62180000  0.12 -0.106355929
C  C457  1  0.70320000  0.62180000  0.02760000  0.12 -0.106355929
C  C458  1  0.70320000  0.37820000  0.97240000  0.12 -0.106355929
C  C459  1  0.02760000  0.70320000  0.62180000  0.12 -0.106355929
C  C460  1  0.62180000  0.97240000  0.29680000  0.12 -0.106355929
C  C461  1  0.37820000  0.97240000  0.70320000  0.12 -0.106355929
C  C462  1  0.62180000  0.02760000  0.70320000  0.12 -0.106355929
C  C463  1  0.62180000  0.97240000  0.70320000  0.12 -0.106355929
C  C464  1  0.70320000  0.62180000  0.97240000  0.12 -0.106355929
C  C465  1  0.97240000  0.70320000  0.62180000  0.12 -0.106355929
C  C466  1  0.02760000  0.29680000  0.62180000  0.12 -0.106355929
C  C467  1  0.70320000  0.37820000  0.02760000  0.12 -0.106355929
C  C468  1  0.02760000  0.70320000  0.37820000  0.12 -0.106355929
C  C469  1  0.29680000  0.37820000  0.97240000  0.12 -0.106355929
C  C470  1  0.29680000  0.62180000  0.02760000  0.12 -0.106355929
C  C471  1  0.97240000  0.29680000  0.37820000  0.12 -0.106355929
C  C472  1  0.37820000  0.02760000  0.70320000  0.12 -0.106355929
C  C473  1  0.62180000  0.02760000  0.29680000  0.12 -0.106355929
C  C474  1  0.37820000  0.97240000  0.29680000  0.12 -0.106355929
N  N1  1  0.45410000  0.02020000  0.41660000  0.12 -0.1405556235
N  N2  1  0.41660000  0.45410000  0.02020000  0.12 -0.1405556235
N  N3  1  0.02020000  0.41660000  0.45410000  0.12 -0.1405556235
N  N4  1  0.97980000  0.58340000  0.45410000  0.12 -0.1405556235
N  N5  1  0.41660000  0.54590000  0.97980000  0.12 -0.1405556235
N  N6  1  0.97980000  0.41660000  0.54590000  0.12 -0.1405556235
N  N7  1  0.58340000  0.54590000  0.02020000  0.12 -0.1405556235
N  N8  1  0.58340000  0.45410000  0.97980000  0.12 -0.1405556235
N  N9  1  0.02020000  0.58340000  0.54590000  0.12 -0.1405556235
N  N10  1  0.54590000  0.97980000  0.41660000  0.12 -0.1405556235
N  N11  1  0.45410000  0.97980000  0.58340000  0.12 -0.1405556235
N  N12  1  0.54590000  0.02020000  0.58340000  0.12 -0.1405556235
N  N13  1  0.54590000  0.97980000  0.58340000  0.12 -0.1405556235
N  N14  1  0.58340000  0.54590000  0.97980000  0.12 -0.1405556235
N  N15  1  0.97980000  0.58340000  0.54590000  0.12 -0.1405556235
N  N16  1  0.02020000  0.41660000  0.54590000  0.12 -0.1405556235
N  N17  1  0.58340000  0.45410000  0.02020000  0.12 -0.1405556235
N  N18  1  0.02020000  0.58340000  0.45410000  0.12 -0.1405556235
N  N19  1  0.41660000  0.45410000  0.97980000  0.12 -0.1405556235
N  N20  1  0.41660000  0.54590000  0.02020000  0.12 -0.1405556235
N  N21  1  0.97980000  0.41660000  0.45410000  0.12 -0.1405556235
N  N22  1  0.45410000  0.02020000  0.58340000  0.12 -0.1405556235
N  N23  1  0.54590000  0.02020000  0.41660000  0.12 -0.1405556235
N  N24  1  0.45410000  0.97980000  0.41660000  0.12 -0.1405556235
N  N25  1  0.41010000  0.97600000  0.34630000  0.12 0.0010277502
N  N26  1  0.34630000  0.41010000  0.97600000  0.12 0.0010277502
N  N27  1  0.97600000  0.34630000  0.41010000  0.12 0.0010277502
N  N28  1  0.02400000  0.65370000  0.41010000  0.12 0.0010277502
N  N29  1  0.34630000  0.58990000  0.02400000  0.12 0.0010277502
N  N30  1  0.02400000  0.34630000  0.58990000  0.12 0.0010277502
N  N31  1  0.65370000  0.58990000  0.97600000  0.12 0.0010277502
N  N32  1  0.65370000  0.41010000  0.02400000  0.12 0.0010277502
N  N33  1  0.97600000  0.65370000  0.58990000  0.12 0.0010277502
N  N34  1  0.58990000  0.02400000  0.34630000  0.12 0.0010277502
N  N35  1  0.41010000  0.02400000  0.65370000  0.12 0.0010277502
N  N36  1  0.58990000  0.97600000  0.65370000  0.12 0.0010277502
N  N37  1  0.58990000  0.02400000  0.65370000  0.12 0.0010277502
N  N38  1  0.65370000  0.58990000  0.02400000  0.12 0.0010277502
N  N39  1  0.02400000  0.65370000  0.58990000  0.12 0.0010277502
N  N40  1  0.97600000  0.34630000  0.58990000  0.12 0.0010277502
N  N41  1  0.65370000  0.41010000  0.97600000  0.12 0.0010277502
N  N42  1  0.97600000  0.65370000  0.41010000  0.12 0.0010277502
N  N43  1  0.34630000  0.41010000  0.02400000  0.12 0.0010277502
N  N44  1  0.34630000  0.58990000  0.97600000  0.12 0.0010277502
N  N45  1  0.02400000  0.34630000  0.41010000  0.12 0.0010277502
N  N46  1  0.41010000  0.97600000  0.65370000  0.12 0.0010277502
N  N47  1  0.58990000  0.97600000  0.34630000  0.12 0.0010277502
N  N48  1  0.41010000  0.02400000  0.34630000  0.12 0.0010277502
O  O1  1  0.28568000  0.00000000  0.50000000  1.0 -1.0193300578
O  O2  1  0.50000000  0.28568000  0.00000000  1.0 -1.0193300578
O  O3  1  0.00000000  0.50000000  0.28568000  1.0 -1.0193300578
O  O4  1  0.50000000  0.71432000  0.00000000  1.0 -1.0193300578
O  O5  1  0.00000000  0.50000000  0.71432000  1.0 -1.0193300578
O  O6  1  0.71432000  0.00000000  0.50000000  1.0 -1.0193300578
O  O7  1  0.38481000  0.00000000  0.46297000  1.0 -0.5052064988
O  O8  1  0.46297000  0.38481000  0.00000000  1.0 -0.5052064988
O  O9  1  0.00000000  0.46297000  0.38481000  1.0 -0.5052064988
O  O10  1  0.00000000  0.53703000  0.38481000  1.0 -0.5052064988
O  O11  1  0.46297000  0.61519000  0.00000000  1.0 -0.5052064988
O  O12  1  0.00000000  0.46297000  0.61519000  1.0 -0.5052064988
O  O13  1  0.53703000  0.61519000  0.00000000  1.0 -0.5052064988
O  O14  1  0.53703000  0.38481000  0.00000000  1.0 -0.5052064988
O  O15  1  0.00000000  0.53703000  0.61519000  1.0 -0.5052064988
O  O16  1  0.61519000  0.00000000  0.46297000  1.0 -0.5052064988
O  O17  1  0.38481000  0.00000000  0.53703000  1.0 -0.5052064988
O  O18  1  0.61519000  0.00000000  0.53703000  1.0 -0.5052064988
O  O19  1  0.18639000  0.03687000  0.50000000  1.0 -0.5268762294
O  O20  1  0.50000000  0.18639000  0.03687000  1.0 -0.5268762294
O  O21  1  0.03687000  0.50000000  0.18639000  1.0 -0.5268762294
O  O22  1  0.96313000  0.50000000  0.18639000  1.0 -0.5268762294
O  O23  1  0.50000000  0.81361000  0.96313000  1.0 -0.5268762294
O  O24  1  0.96313000  0.50000000  0.81361000  1.0 -0.5268762294
O  O25  1  0.50000000  0.81361000  0.03687000  1.0 -0.5268762294
O  O26  1  0.50000000  0.18639000  0.96313000  1.0 -0.5268762294
O  O27  1  0.03687000  0.50000000  0.81361000  1.0 -0.5268762294
O  O28  1  0.81361000  0.96313000  0.50000000  1.0 -0.5268762294
O  O29  1  0.18639000  0.96313000  0.50000000  1.0 -0.5268762294
O  O30  1  0.81361000  0.03687000  0.50000000  1.0 -0.5268762294
O  O31  1  0.31213000  0.05267000  0.41093000  1.0 -0.5843545728
O  O32  1  0.41093000  0.31213000  0.05267000  1.0 -0.5843545728
O  O33  1  0.05267000  0.41093000  0.31213000  1.0 -0.5843545728
O  O34  1  0.94733000  0.58907000  0.31213000  1.0 -0.5843545728
O  O35  1  0.41093000  0.68787000  0.94733000  1.0 -0.5843545728
O  O36  1  0.94733000  0.41093000  0.68787000  1.0 -0.5843545728
O  O37  1  0.58907000  0.68787000  0.05267000  1.0 -0.5843545728
O  O38  1  0.58907000  0.31213000  0.94733000  1.0 -0.5843545728
O  O39  1  0.05267000  0.58907000  0.68787000  1.0 -0.5843545728
O  O40  1  0.68787000  0.94733000  0.41093000  1.0 -0.5843545728
O  O41  1  0.31213000  0.94733000  0.58907000  1.0 -0.5843545728
O  O42  1  0.68787000  0.05267000  0.58907000  1.0 -0.5843545728
O  O43  1  0.68787000  0.94733000  0.58907000  1.0 -0.5843545728
O  O44  1  0.58907000  0.68787000  0.94733000  1.0 -0.5843545728
O  O45  1  0.94733000  0.58907000  0.68787000  1.0 -0.5843545728
O  O46  1  0.05267000  0.41093000  0.68787000  1.0 -0.5843545728
O  O47  1  0.58907000  0.31213000  0.05267000  1.0 -0.5843545728
O  O48  1  0.05267000  0.58907000  0.31213000  1.0 -0.5843545728
O  O49  1  0.41093000  0.31213000  0.94733000  1.0 -0.5843545728
O  O50  1  0.41093000  0.68787000  0.05267000  1.0 -0.5843545728
O  O51  1  0.94733000  0.41093000  0.31213000  1.0 -0.5843545728
O  O52  1  0.31213000  0.05267000  0.58907000  1.0 -0.5843545728
O  O53  1  0.68787000  0.05267000  0.41093000  1.0 -0.5843545728
O  O54  1  0.31213000  0.94733000  0.41093000  1.0 -0.5843545728
O  O55  1  0.25863000  0.08918000  0.44734000  1.0 -0.5474716259
O  O56  1  0.44734000  0.25863000  0.08918000  1.0 -0.5474716259
O  O57  1  0.08918000  0.44734000  0.25863000  1.0 -0.5474716259
O  O58  1  0.91082000  0.55266000  0.25863000  1.0 -0.5474716259
O  O59  1  0.44734000  0.74137000  0.91082000  1.0 -0.5474716259
O  O60  1  0.91082000  0.44734000  0.74137000  1.0 -0.5474716259
O  O61  1  0.55266000  0.74137000  0.08918000  1.0 -0.5474716259
O  O62  1  0.55266000  0.25863000  0.91082000  1.0 -0.5474716259
O  O63  1  0.08918000  0.55266000  0.74137000  1.0 -0.5474716259
O  O64  1  0.74137000  0.91082000  0.44734000  1.0 -0.5474716259
O  O65  1  0.25863000  0.91082000  0.55266000  1.0 -0.5474716259
O  O66  1  0.74137000  0.08918000  0.55266000  1.0 -0.5474716259
O  O67  1  0.74137000  0.91082000  0.55266000  1.0 -0.5474716259
O  O68  1  0.55266000  0.74137000  0.91082000  1.0 -0.5474716259
O  O69  1  0.91082000  0.55266000  0.74137000  1.0 -0.5474716259
O  O70  1  0.08918000  0.44734000  0.74137000  1.0 -0.5474716259
O  O71  1  0.55266000  0.25863000  0.08918000  1.0 -0.5474716259
O  O72  1  0.08918000  0.55266000  0.25863000  1.0 -0.5474716259
O  O73  1  0.44734000  0.25863000  0.91082000  1.0 -0.5474716259
O  O74  1  0.44734000  0.74137000  0.08918000  1.0 -0.5474716259
O  O75  1  0.91082000  0.44734000  0.25863000  1.0 -0.5474716259
O  O76  1  0.25863000  0.08918000  0.55266000  1.0 -0.5474716259
O  O77  1  0.74137000  0.08918000  0.44734000  1.0 -0.5474716259
O  O78  1  0.25863000  0.91082000  0.44734000  1.0 -0.5474716259
O  O79  1  0.51330000  0.03280000  0.36960000  0.12 -0.0114482501
O  O80  1  0.36960000  0.51330000  0.03280000  0.12 -0.0114482501
O  O81  1  0.03280000  0.36960000  0.51330000  0.12 -0.0114482501
O  O82  1  0.96720000  0.63040000  0.51330000  0.12 -0.0114482501
O  O83  1  0.36960000  0.48670000  0.96720000  0.12 -0.0114482501
O  O84  1  0.96720000  0.36960000  0.48670000  0.12 -0.0114482501
O  O85  1  0.63040000  0.48670000  0.03280000  0.12 -0.0114482501
O  O86  1  0.63040000  0.51330000  0.96720000  0.12 -0.0114482501
O  O87  1  0.03280000  0.63040000  0.48670000  0.12 -0.0114482501
O  O88  1  0.48670000  0.96720000  0.36960000  0.12 -0.0114482501
O  O89  1  0.51330000  0.96720000  0.63040000  0.12 -0.0114482501
O  O90  1  0.48670000  0.03280000  0.63040000  0.12 -0.0114482501
O  O91  1  0.48670000  0.96720000  0.63040000  0.12 -0.0114482501
O  O92  1  0.63040000  0.48670000  0.96720000  0.12 -0.0114482501
O  O93  1  0.96720000  0.63040000  0.48670000  0.12 -0.0114482501
O  O94  1  0.03280000  0.36960000  0.48670000  0.12 -0.0114482501
O  O95  1  0.63040000  0.51330000  0.03280000  0.12 -0.0114482501
O  O96  1  0.03280000  0.63040000  0.51330000  0.12 -0.0114482501
O  O97  1  0.36960000  0.51330000  0.96720000  0.12 -0.0114482501
O  O98  1  0.36960000  0.48670000  0.03280000  0.12 -0.0114482501
O  O99  1  0.96720000  0.36960000  0.51330000  0.12 -0.0114482501
O  O100  1  0.51330000  0.03280000  0.63040000  0.12 -0.0114482501
O  O101  1  0.48670000  0.03280000  0.36960000  0.12 -0.0114482501
O  O102  1  0.51330000  0.96720000  0.36960000  0.12 -0.0114482501
