# DDEC6 charges by PACMAN v1.1 (https://github.com/mtap-research/PACMAN-charge/)
data_ja7b02272_si_005_FSR_pacman
_symmetry_space_group_name_H-M   'P 1'
_cell_length_a   22.68800000
_cell_length_b   22.68800000
_cell_length_c   22.68800000
_cell_angle_alpha   90.00000000
_cell_angle_beta   90.00000000
_cell_angle_gamma   90.00000000
_symmetry_Int_Tables_number   1
_chemical_formula_structural   Zn24H128.64C174N101.76O11.52
_chemical_formula_sum   'Zn24 H128.64 C174 N101.76 O11.52'
_cell_volume   11678.54236467
_cell_formula_units_Z   1
loop_
 _symmetry_equiv_pos_site_id
 _symmetry_equiv_pos_as_xyz
  1  'x, y, z'
loop_
 _atom_site_type_symbol
 _atom_site_label
 _atom_site_symmetry_multiplicity
 _atom_site_fract_x
 _atom_site_fract_y
 _atom_site_fract_z
 _atom_site_occupancy
 _atom_site_charge
Zn  Zn1  1  0.00000000  0.36861000  0.81677000  1.0 0.5341957653
Zn  Zn2  1  0.00000000  0.63139000  0.81677000  1.0 0.5341957653
Zn  Zn3  1  0.00000000  0.36861000  0.18323000  1.0 0.5341957653
Zn  Zn4  1  0.00000000  0.63139000  0.18323000  1.0 0.5341957653
Zn  Zn5  1  0.81677000  0.00000000  0.36861000  1.0 0.5341957653
Zn  Zn6  1  0.81677000  0.00000000  0.63139000  1.0 0.5341957653
Zn  Zn7  1  0.18323000  0.00000000  0.36861000  1.0 0.5341957653
Zn  Zn8  1  0.18323000  0.00000000  0.63139000  1.0 0.5341957653
Zn  Zn9  1  0.36861000  0.81677000  0.00000000  1.0 0.5341957653
Zn  Zn10  1  0.63139000  0.81677000  0.00000000  1.0 0.5341957653
Zn  Zn11  1  0.36861000  0.18323000  0.00000000  1.0 0.5341957653
Zn  Zn12  1  0.63139000  0.18323000  0.00000000  1.0 0.5341957653
Zn  Zn13  1  0.36861000  0.00000000  0.18323000  1.0 0.5341957653
Zn  Zn14  1  0.63139000  0.00000000  0.18323000  1.0 0.5341957653
Zn  Zn15  1  0.36861000  0.00000000  0.81677000  1.0 0.5341957653
Zn  Zn16  1  0.63139000  0.00000000  0.81677000  1.0 0.5341957653
Zn  Zn17  1  0.00000000  0.81677000  0.63139000  1.0 0.5341957653
Zn  Zn18  1  0.00000000  0.81677000  0.36861000  1.0 0.5341957653
Zn  Zn19  1  0.00000000  0.18323000  0.63139000  1.0 0.5341957653
Zn  Zn20  1  0.00000000  0.18323000  0.36861000  1.0 0.5341957653
Zn  Zn21  1  0.81677000  0.36861000  0.00000000  1.0 0.5341957653
Zn  Zn22  1  0.81677000  0.63139000  0.00000000  1.0 0.5341957653
Zn  Zn23  1  0.18323000  0.36861000  0.00000000  1.0 0.5341957653
Zn  Zn24  1  0.18323000  0.63139000  0.00000000  1.0 0.5341957653
H  H1  1  0.00000000  0.39590000  0.67610000  1.0 0.1187887863
H  H2  1  0.00000000  0.60410000  0.67610000  1.0 0.1187887863
H  H3  1  0.00000000  0.39590000  0.32390000  1.0 0.1187887863
H  H4  1  0.00000000  0.60410000  0.32390000  1.0 0.1187887863
H  H5  1  0.67610000  0.00000000  0.39590000  1.0 0.1187887863
H  H6  1  0.67610000  0.00000000  0.60410000  1.0 0.1187887863
H  H7  1  0.32390000  0.00000000  0.39590000  1.0 0.1187887863
H  H8  1  0.32390000  0.00000000  0.60410000  1.0 0.1187887863
H  H9  1  0.39590000  0.67610000  0.00000000  1.0 0.1187887863
H  H10  1  0.60410000  0.67610000  0.00000000  1.0 0.1187887863
H  H11  1  0.39590000  0.32390000  0.00000000  1.0 0.1187887863
H  H12  1  0.60410000  0.32390000  0.00000000  1.0 0.1187887863
H  H13  1  0.39590000  0.00000000  0.32390000  1.0 0.1187887863
H  H14  1  0.60410000  0.00000000  0.32390000  1.0 0.1187887863
H  H15  1  0.39590000  0.00000000  0.67610000  1.0 0.1187887863
H  H16  1  0.60410000  0.00000000  0.67610000  1.0 0.1187887863
H  H17  1  0.00000000  0.67610000  0.60410000  1.0 0.1187887863
H  H18  1  0.00000000  0.67610000  0.39590000  1.0 0.1187887863
H  H19  1  0.00000000  0.32390000  0.60410000  1.0 0.1187887863
H  H20  1  0.00000000  0.32390000  0.39590000  1.0 0.1187887863
H  H21  1  0.67610000  0.39590000  0.00000000  1.0 0.1187887863
H  H22  1  0.67610000  0.60410000  0.00000000  1.0 0.1187887863
H  H23  1  0.32390000  0.39590000  0.00000000  1.0 0.1187887863
H  H24  1  0.32390000  0.60410000  0.00000000  1.0 0.1187887863
H  H25  1  0.96470000  0.20180000  0.76940000  0.12 0.0911048709
H  H26  1  0.03530000  0.79820000  0.76940000  0.12 0.0911048709
H  H27  1  0.03530000  0.20180000  0.23060000  0.12 0.0911048709
H  H28  1  0.96470000  0.79820000  0.23060000  0.12 0.0911048709
H  H29  1  0.76940000  0.96470000  0.20180000  0.12 0.0911048709
H  H30  1  0.76940000  0.03530000  0.79820000  0.12 0.0911048709
H  H31  1  0.23060000  0.03530000  0.20180000  0.12 0.0911048709
H  H32  1  0.23060000  0.96470000  0.79820000  0.12 0.0911048709
H  H33  1  0.20180000  0.76940000  0.96470000  0.12 0.0911048709
H  H34  1  0.79820000  0.76940000  0.03530000  0.12 0.0911048709
H  H35  1  0.20180000  0.23060000  0.03530000  0.12 0.0911048709
H  H36  1  0.79820000  0.23060000  0.96470000  0.12 0.0911048709
H  H37  1  0.20180000  0.96470000  0.23060000  0.12 0.0911048709
H  H38  1  0.79820000  0.03530000  0.23060000  0.12 0.0911048709
H  H39  1  0.20180000  0.03530000  0.76940000  0.12 0.0911048709
H  H40  1  0.79820000  0.96470000  0.76940000  0.12 0.0911048709
H  H41  1  0.96470000  0.76940000  0.79820000  0.12 0.0911048709
H  H42  1  0.03530000  0.76940000  0.20180000  0.12 0.0911048709
H  H43  1  0.03530000  0.23060000  0.79820000  0.12 0.0911048709
H  H44  1  0.96470000  0.23060000  0.20180000  0.12 0.0911048709
H  H45  1  0.76940000  0.20180000  0.03530000  0.12 0.0911048709
H  H46  1  0.76940000  0.79820000  0.96470000  0.12 0.0911048709
H  H47  1  0.23060000  0.20180000  0.96470000  0.12 0.0911048709
H  H48  1  0.23060000  0.79820000  0.03530000  0.12 0.0911048709
H  H49  1  0.03530000  0.79820000  0.23060000  0.12 0.0911048709
H  H50  1  0.96470000  0.20180000  0.23060000  0.12 0.0911048709
H  H51  1  0.96470000  0.79820000  0.76940000  0.12 0.0911048709
H  H52  1  0.03530000  0.20180000  0.76940000  0.12 0.0911048709
H  H53  1  0.23060000  0.03530000  0.79820000  0.12 0.0911048709
H  H54  1  0.23060000  0.96470000  0.20180000  0.12 0.0911048709
H  H55  1  0.76940000  0.96470000  0.79820000  0.12 0.0911048709
H  H56  1  0.76940000  0.03530000  0.20180000  0.12 0.0911048709
H  H57  1  0.79820000  0.23060000  0.03530000  0.12 0.0911048709
H  H58  1  0.20180000  0.23060000  0.96470000  0.12 0.0911048709
H  H59  1  0.79820000  0.76940000  0.96470000  0.12 0.0911048709
H  H60  1  0.20180000  0.76940000  0.03530000  0.12 0.0911048709
H  H61  1  0.79820000  0.03530000  0.76940000  0.12 0.0911048709
H  H62  1  0.20180000  0.96470000  0.76940000  0.12 0.0911048709
H  H63  1  0.79820000  0.96470000  0.23060000  0.12 0.0911048709
H  H64  1  0.20180000  0.03530000  0.23060000  0.12 0.0911048709
H  H65  1  0.03530000  0.23060000  0.20180000  0.12 0.0911048709
H  H66  1  0.96470000  0.23060000  0.79820000  0.12 0.0911048709
H  H67  1  0.96470000  0.76940000  0.20180000  0.12 0.0911048709
H  H68  1  0.03530000  0.76940000  0.79820000  0.12 0.0911048709
H  H69  1  0.23060000  0.79820000  0.96470000  0.12 0.0911048709
H  H70  1  0.23060000  0.20180000  0.03530000  0.12 0.0911048709
H  H71  1  0.76940000  0.79820000  0.03530000  0.12 0.0911048709
H  H72  1  0.76940000  0.20180000  0.96470000  0.12 0.0911048709
H  H73  1  0.00000000  0.24500000  0.81260000  0.12 0.0719542382
H  H74  1  0.00000000  0.75500000  0.81260000  0.12 0.0719542382
H  H75  1  0.00000000  0.24500000  0.18740000  0.12 0.0719542382
H  H76  1  0.00000000  0.75500000  0.18740000  0.12 0.0719542382
H  H77  1  0.81260000  0.00000000  0.24500000  0.12 0.0719542382
H  H78  1  0.81260000  0.00000000  0.75500000  0.12 0.0719542382
H  H79  1  0.18740000  0.00000000  0.24500000  0.12 0.0719542382
H  H80  1  0.18740000  0.00000000  0.75500000  0.12 0.0719542382
H  H81  1  0.24500000  0.81260000  0.00000000  0.12 0.0719542382
H  H82  1  0.75500000  0.81260000  0.00000000  0.12 0.0719542382
H  H83  1  0.24500000  0.18740000  0.00000000  0.12 0.0719542382
H  H84  1  0.75500000  0.18740000  0.00000000  0.12 0.0719542382
H  H85  1  0.24500000  0.00000000  0.18740000  0.12 0.0719542382
H  H86  1  0.75500000  0.00000000  0.18740000  0.12 0.0719542382
H  H87  1  0.24500000  0.00000000  0.81260000  0.12 0.0719542382
H  H88  1  0.75500000  0.00000000  0.81260000  0.12 0.0719542382
H  H89  1  0.00000000  0.81260000  0.75500000  0.12 0.0719542382
H  H90  1  0.00000000  0.81260000  0.24500000  0.12 0.0719542382
H  H91  1  0.00000000  0.18740000  0.75500000  0.12 0.0719542382
H  H92  1  0.00000000  0.18740000  0.24500000  0.12 0.0719542382
H  H93  1  0.81260000  0.24500000  0.00000000  0.12 0.0719542382
H  H94  1  0.81260000  0.75500000  0.00000000  0.12 0.0719542382
H  H95  1  0.18740000  0.24500000  0.00000000  0.12 0.0719542382
H  H96  1  0.18740000  0.75500000  0.00000000  0.12 0.0719542382
H  H97  1  0.12220000  0.39900000  0.74720000  0.25 0.1187887863
H  H98  1  0.87780000  0.60100000  0.74720000  0.25 0.1187887863
H  H99  1  0.87780000  0.39900000  0.25280000  0.25 0.1187887863
H  H100  1  0.12220000  0.60100000  0.25280000  0.25 0.1187887863
H  H101  1  0.74720000  0.12220000  0.39900000  0.25 0.1187887863
H  H102  1  0.74720000  0.87780000  0.60100000  0.25 0.1187887863
H  H103  1  0.25280000  0.87780000  0.39900000  0.25 0.1187887863
H  H104  1  0.25280000  0.12220000  0.60100000  0.25 0.1187887863
H  H105  1  0.39900000  0.74720000  0.12220000  0.25 0.1187887863
H  H106  1  0.60100000  0.74720000  0.87780000  0.25 0.1187887863
H  H107  1  0.39900000  0.25280000  0.87780000  0.25 0.1187887863
H  H108  1  0.60100000  0.25280000  0.12220000  0.25 0.1187887863
H  H109  1  0.39900000  0.12220000  0.25280000  0.25 0.1187887863
H  H110  1  0.60100000  0.87780000  0.25280000  0.25 0.1187887863
H  H111  1  0.39900000  0.87780000  0.74720000  0.25 0.1187887863
H  H112  1  0.60100000  0.12220000  0.74720000  0.25 0.1187887863
H  H113  1  0.12220000  0.74720000  0.60100000  0.25 0.1187887863
H  H114  1  0.87780000  0.74720000  0.39900000  0.25 0.1187887863
H  H115  1  0.87780000  0.25280000  0.60100000  0.25 0.1187887863
H  H116  1  0.12220000  0.25280000  0.39900000  0.25 0.1187887863
H  H117  1  0.74720000  0.39900000  0.87780000  0.25 0.1187887863
H  H118  1  0.74720000  0.60100000  0.12220000  0.25 0.1187887863
H  H119  1  0.25280000  0.39900000  0.12220000  0.25 0.1187887863
H  H120  1  0.25280000  0.60100000  0.87780000  0.25 0.1187887863
H  H121  1  0.87780000  0.60100000  0.25280000  0.25 0.1187887863
H  H122  1  0.12220000  0.39900000  0.25280000  0.25 0.1187887863
H  H123  1  0.12220000  0.60100000  0.74720000  0.25 0.1187887863
H  H124  1  0.87780000  0.39900000  0.74720000  0.25 0.1187887863
H  H125  1  0.25280000  0.87780000  0.60100000  0.25 0.1187887863
H  H126  1  0.25280000  0.12220000  0.39900000  0.25 0.1187887863
H  H127  1  0.74720000  0.12220000  0.60100000  0.25 0.1187887863
H  H128  1  0.74720000  0.87780000  0.39900000  0.25 0.1187887863
H  H129  1  0.60100000  0.25280000  0.87780000  0.25 0.1187887863
H  H130  1  0.39900000  0.25280000  0.12220000  0.25 0.1187887863
H  H131  1  0.60100000  0.74720000  0.12220000  0.25 0.1187887863
H  H132  1  0.39900000  0.74720000  0.87780000  0.25 0.1187887863
H  H133  1  0.60100000  0.87780000  0.74720000  0.25 0.1187887863
H  H134  1  0.39900000  0.12220000  0.74720000  0.25 0.1187887863
H  H135  1  0.60100000  0.12220000  0.25280000  0.25 0.1187887863
H  H136  1  0.39900000  0.87780000  0.25280000  0.25 0.1187887863
H  H137  1  0.87780000  0.25280000  0.39900000  0.25 0.1187887863
H  H138  1  0.12220000  0.25280000  0.60100000  0.25 0.1187887863
H  H139  1  0.12220000  0.74720000  0.39900000  0.25 0.1187887863
H  H140  1  0.87780000  0.74720000  0.60100000  0.25 0.1187887863
H  H141  1  0.25280000  0.60100000  0.12220000  0.25 0.1187887863
H  H142  1  0.25280000  0.39900000  0.87780000  0.25 0.1187887863
H  H143  1  0.74720000  0.60100000  0.87780000  0.25 0.1187887863
H  H144  1  0.74720000  0.39900000  0.12220000  0.25 0.1187887863
H  H145  1  0.14830000  0.36310000  0.77980000  0.5 0.1000531153
H  H146  1  0.01990000  0.25090000  0.90570000  0.5 0.1072688415
H  H147  1  0.85170000  0.63690000  0.77980000  0.5 0.1000531153
H  H148  1  0.98010000  0.74910000  0.90570000  0.5 0.1072688415
H  H149  1  0.85170000  0.36310000  0.22020000  0.5 0.1000531153
H  H150  1  0.98010000  0.25090000  0.09430000  0.5 0.1072688415
H  H151  1  0.14830000  0.63690000  0.22020000  0.5 0.1000531153
H  H152  1  0.01990000  0.74910000  0.09430000  0.5 0.1072688415
H  H153  1  0.77980000  0.14830000  0.36310000  0.5 0.1000531153
H  H154  1  0.90570000  0.01990000  0.25090000  0.5 0.1072688415
H  H155  1  0.77980000  0.85170000  0.63690000  0.5 0.1000531153
H  H156  1  0.90570000  0.98010000  0.74910000  0.5 0.1072688415
H  H157  1  0.22020000  0.85170000  0.36310000  0.5 0.1000531153
H  H158  1  0.09430000  0.98010000  0.25090000  0.5 0.1072688415
H  H159  1  0.22020000  0.14830000  0.63690000  0.5 0.1000531153
H  H160  1  0.09430000  0.01990000  0.74910000  0.5 0.1072688415
H  H161  1  0.36310000  0.77980000  0.14830000  0.5 0.1000531153
H  H162  1  0.25090000  0.90570000  0.01990000  0.5 0.1072688415
H  H163  1  0.63690000  0.77980000  0.85170000  0.5 0.1000531153
H  H164  1  0.74910000  0.90570000  0.98010000  0.5 0.1072688415
H  H165  1  0.36310000  0.22020000  0.85170000  0.5 0.1000531153
H  H166  1  0.25090000  0.09430000  0.98010000  0.5 0.1072688415
H  H167  1  0.63690000  0.22020000  0.14830000  0.5 0.1000531153
H  H168  1  0.74910000  0.09430000  0.01990000  0.5 0.1072688415
H  H169  1  0.36310000  0.14830000  0.22020000  0.5 0.1000531153
H  H170  1  0.25090000  0.01990000  0.09430000  0.5 0.1072688415
H  H171  1  0.63690000  0.85170000  0.22020000  0.5 0.1000531153
H  H172  1  0.74910000  0.98010000  0.09430000  0.5 0.1072688415
H  H173  1  0.36310000  0.85170000  0.77980000  0.5 0.1000531153
H  H174  1  0.25090000  0.98010000  0.90570000  0.5 0.1072688415
H  H175  1  0.63690000  0.14830000  0.77980000  0.5 0.1000531153
H  H176  1  0.74910000  0.01990000  0.90570000  0.5 0.1072688415
H  H177  1  0.14830000  0.77980000  0.63690000  0.5 0.1000531153
H  H178  1  0.01990000  0.90570000  0.74910000  0.5 0.1072688415
H  H179  1  0.85170000  0.77980000  0.36310000  0.5 0.1000531153
H  H180  1  0.98010000  0.90570000  0.25090000  0.5 0.1072688415
H  H181  1  0.85170000  0.22020000  0.63690000  0.5 0.1000531153
H  H182  1  0.98010000  0.09430000  0.74910000  0.5 0.1072688415
H  H183  1  0.14830000  0.22020000  0.36310000  0.5 0.1000531153
H  H184  1  0.01990000  0.09430000  0.25090000  0.5 0.1072688415
H  H185  1  0.77980000  0.36310000  0.85170000  0.5 0.1000531153
H  H186  1  0.90570000  0.25090000  0.98010000  0.5 0.1072688415
H  H187  1  0.77980000  0.63690000  0.14830000  0.5 0.1000531153
H  H188  1  0.90570000  0.74910000  0.01990000  0.5 0.1072688415
H  H189  1  0.22020000  0.36310000  0.14830000  0.5 0.1000531153
H  H190  1  0.09430000  0.25090000  0.01990000  0.5 0.1072688415
H  H191  1  0.22020000  0.63690000  0.85170000  0.5 0.1000531153
H  H192  1  0.09430000  0.74910000  0.98010000  0.5 0.1072688415
H  H193  1  0.85170000  0.63690000  0.22020000  0.5 0.1000531153
H  H194  1  0.98010000  0.74910000  0.09430000  0.5 0.1072688415
H  H195  1  0.14830000  0.36310000  0.22020000  0.5 0.1000531153
H  H196  1  0.01990000  0.25090000  0.09430000  0.5 0.1072688415
H  H197  1  0.14830000  0.63690000  0.77980000  0.5 0.1000531153
H  H198  1  0.01990000  0.74910000  0.90570000  0.5 0.1072688415
H  H199  1  0.85170000  0.36310000  0.77980000  0.5 0.1000531153
H  H200  1  0.98010000  0.25090000  0.90570000  0.5 0.1072688415
H  H201  1  0.22020000  0.85170000  0.63690000  0.5 0.1000531153
H  H202  1  0.09430000  0.98010000  0.74910000  0.5 0.1072688415
H  H203  1  0.22020000  0.14830000  0.36310000  0.5 0.1000531153
H  H204  1  0.09430000  0.01990000  0.25090000  0.5 0.1072688415
H  H205  1  0.77980000  0.14830000  0.63690000  0.5 0.1000531153
H  H206  1  0.90570000  0.01990000  0.74910000  0.5 0.1072688415
H  H207  1  0.77980000  0.85170000  0.36310000  0.5 0.1000531153
H  H208  1  0.90570000  0.98010000  0.25090000  0.5 0.1072688415
H  H209  1  0.63690000  0.22020000  0.85170000  0.5 0.1000531153
H  H210  1  0.74910000  0.09430000  0.98010000  0.5 0.1072688415
H  H211  1  0.36310000  0.22020000  0.14830000  0.5 0.1000531153
H  H212  1  0.25090000  0.09430000  0.01990000  0.5 0.1072688415
H  H213  1  0.63690000  0.77980000  0.14830000  0.5 0.1000531153
H  H214  1  0.74910000  0.90570000  0.01990000  0.5 0.1072688415
H  H215  1  0.36310000  0.77980000  0.85170000  0.5 0.1000531153
H  H216  1  0.25090000  0.90570000  0.98010000  0.5 0.1072688415
H  H217  1  0.63690000  0.85170000  0.77980000  0.5 0.1000531153
H  H218  1  0.74910000  0.98010000  0.90570000  0.5 0.1072688415
H  H219  1  0.36310000  0.14830000  0.77980000  0.5 0.1000531153
H  H220  1  0.25090000  0.01990000  0.90570000  0.5 0.1072688415
H  H221  1  0.63690000  0.14830000  0.22020000  0.5 0.1000531153
H  H222  1  0.74910000  0.01990000  0.09430000  0.5 0.1072688415
H  H223  1  0.36310000  0.85170000  0.22020000  0.5 0.1000531153
H  H224  1  0.25090000  0.98010000  0.09430000  0.5 0.1072688415
H  H225  1  0.85170000  0.22020000  0.36310000  0.5 0.1000531153
H  H226  1  0.98010000  0.09430000  0.25090000  0.5 0.1072688415
H  H227  1  0.14830000  0.22020000  0.63690000  0.5 0.1000531153
H  H228  1  0.01990000  0.09430000  0.74910000  0.5 0.1072688415
H  H229  1  0.14830000  0.77980000  0.36310000  0.5 0.1000531153
H  H230  1  0.01990000  0.90570000  0.25090000  0.5 0.1072688415
H  H231  1  0.85170000  0.77980000  0.63690000  0.5 0.1000531153
H  H232  1  0.98010000  0.90570000  0.74910000  0.5 0.1072688415
H  H233  1  0.22020000  0.63690000  0.14830000  0.5 0.1000531153
H  H234  1  0.09430000  0.74910000  0.01990000  0.5 0.1072688415
H  H235  1  0.22020000  0.36310000  0.85170000  0.5 0.1000531153
H  H236  1  0.09430000  0.25090000  0.98010000  0.5 0.1072688415
H  H237  1  0.77980000  0.63690000  0.85170000  0.5 0.1000531153
H  H238  1  0.90570000  0.74910000  0.98010000  0.5 0.1072688415
H  H239  1  0.77980000  0.36310000  0.14830000  0.5 0.1000531153
H  H240  1  0.90570000  0.25090000  0.01990000  0.5 0.1072688415
H  H241  1  0.96400000  0.50000000  0.84090000  0.5 0.1187887863
H  H242  1  0.03600000  0.50000000  0.84090000  0.5 0.1187887863
H  H243  1  0.03600000  0.50000000  0.15910000  0.5 0.1187887863
H  H244  1  0.96400000  0.50000000  0.15910000  0.5 0.1187887863
H  H245  1  0.84090000  0.96400000  0.50000000  0.5 0.1187887863
H  H246  1  0.84090000  0.03600000  0.50000000  0.5 0.1187887863
H  H247  1  0.15910000  0.03600000  0.50000000  0.5 0.1187887863
H  H248  1  0.15910000  0.96400000  0.50000000  0.5 0.1187887863
H  H249  1  0.50000000  0.84090000  0.96400000  0.5 0.1187887863
H  H250  1  0.50000000  0.84090000  0.03600000  0.5 0.1187887863
H  H251  1  0.50000000  0.15910000  0.03600000  0.5 0.1187887863
H  H252  1  0.50000000  0.15910000  0.96400000  0.5 0.1187887863
H  H253  1  0.50000000  0.96400000  0.15910000  0.5 0.1187887863
H  H254  1  0.50000000  0.03600000  0.15910000  0.5 0.1187887863
H  H255  1  0.50000000  0.03600000  0.84090000  0.5 0.1187887863
H  H256  1  0.50000000  0.96400000  0.84090000  0.5 0.1187887863
H  H257  1  0.96400000  0.84090000  0.50000000  0.5 0.1187887863
H  H258  1  0.03600000  0.84090000  0.50000000  0.5 0.1187887863
H  H259  1  0.03600000  0.15910000  0.50000000  0.5 0.1187887863
H  H260  1  0.96400000  0.15910000  0.50000000  0.5 0.1187887863
H  H261  1  0.84090000  0.50000000  0.03600000  0.5 0.1187887863
H  H262  1  0.84090000  0.50000000  0.96400000  0.5 0.1187887863
H  H263  1  0.15910000  0.50000000  0.96400000  0.5 0.1187887863
H  H264  1  0.15910000  0.50000000  0.03600000  0.5 0.1187887863
H  H265  1  0.06430000  0.36400000  0.93570000  0.5 0.1000531153
H  H266  1  0.10650000  0.40380000  0.89350000  0.5 0.1072688415
H  H267  1  0.93570000  0.63600000  0.93570000  0.5 0.1000531153
H  H268  1  0.89350000  0.59620000  0.89350000  0.5 0.1072688415
H  H269  1  0.93570000  0.36400000  0.06430000  0.5 0.1000531153
H  H270  1  0.89350000  0.40380000  0.10650000  0.5 0.1072688415
H  H271  1  0.06430000  0.63600000  0.06430000  0.5 0.1000531153
H  H272  1  0.10650000  0.59620000  0.10650000  0.5 0.1072688415
H  H273  1  0.93570000  0.06430000  0.36400000  0.5 0.1000531153
H  H274  1  0.89350000  0.10650000  0.40380000  0.5 0.1072688415
H  H275  1  0.93570000  0.93570000  0.63600000  0.5 0.1000531153
H  H276  1  0.89350000  0.89350000  0.59620000  0.5 0.1072688415
H  H277  1  0.06430000  0.93570000  0.36400000  0.5 0.1000531153
H  H278  1  0.10650000  0.89350000  0.40380000  0.5 0.1072688415
H  H279  1  0.06430000  0.06430000  0.63600000  0.5 0.1000531153
H  H280  1  0.10650000  0.10650000  0.59620000  0.5 0.1072688415
H  H281  1  0.36400000  0.93570000  0.06430000  0.5 0.1000531153
H  H282  1  0.40380000  0.89350000  0.10650000  0.5 0.1072688415
H  H283  1  0.63600000  0.93570000  0.93570000  0.5 0.1000531153
H  H284  1  0.59620000  0.89350000  0.89350000  0.5 0.1072688415
H  H285  1  0.36400000  0.06430000  0.93570000  0.5 0.1000531153
H  H286  1  0.40380000  0.10650000  0.89350000  0.5 0.1072688415
H  H287  1  0.63600000  0.06430000  0.06430000  0.5 0.1000531153
H  H288  1  0.59620000  0.10650000  0.10650000  0.5 0.1072688415
H  H289  1  0.36400000  0.06430000  0.06430000  0.5 0.1000531153
H  H290  1  0.40380000  0.10650000  0.10650000  0.5 0.1072688415
H  H291  1  0.63600000  0.93570000  0.06430000  0.5 0.1000531153
H  H292  1  0.59620000  0.89350000  0.10650000  0.5 0.1072688415
H  H293  1  0.36400000  0.93570000  0.93570000  0.5 0.1000531153
H  H294  1  0.40380000  0.89350000  0.89350000  0.5 0.1072688415
H  H295  1  0.63600000  0.06430000  0.93570000  0.5 0.1000531153
H  H296  1  0.59620000  0.10650000  0.89350000  0.5 0.1072688415
H  H297  1  0.06430000  0.93570000  0.63600000  0.5 0.1000531153
H  H298  1  0.10650000  0.89350000  0.59620000  0.5 0.1072688415
H  H299  1  0.93570000  0.93570000  0.36400000  0.5 0.1000531153
H  H300  1  0.89350000  0.89350000  0.40380000  0.5 0.1072688415
H  H301  1  0.93570000  0.06430000  0.63600000  0.5 0.1000531153
H  H302  1  0.89350000  0.10650000  0.59620000  0.5 0.1072688415
H  H303  1  0.06430000  0.06430000  0.36400000  0.5 0.1000531153
H  H304  1  0.10650000  0.10650000  0.40380000  0.5 0.1072688415
H  H305  1  0.93570000  0.36400000  0.93570000  0.5 0.1000531153
H  H306  1  0.89350000  0.40380000  0.89350000  0.5 0.1072688415
H  H307  1  0.93570000  0.63600000  0.06430000  0.5 0.1000531153
H  H308  1  0.89350000  0.59620000  0.10650000  0.5 0.1072688415
H  H309  1  0.06430000  0.36400000  0.06430000  0.5 0.1000531153
H  H310  1  0.10650000  0.40380000  0.10650000  0.5 0.1072688415
H  H311  1  0.06430000  0.63600000  0.93570000  0.5 0.1000531153
H  H312  1  0.10650000  0.59620000  0.89350000  0.5 0.1072688415
C  C1  1  0.00000000  0.35480000  0.68410000  1.0 -0.0554859904
C  C2  1  0.00000000  0.64520000  0.68410000  1.0 -0.0554859904
C  C3  1  0.00000000  0.35480000  0.31590000  1.0 -0.0554859904
C  C4  1  0.00000000  0.64520000  0.31590000  1.0 -0.0554859904
C  C5  1  0.68410000  0.00000000  0.35480000  1.0 -0.0554859904
C  C6  1  0.68410000  0.00000000  0.64520000  1.0 -0.0554859904
C  C7  1  0.31590000  0.00000000  0.35480000  1.0 -0.0554859904
C  C8  1  0.31590000  0.00000000  0.64520000  1.0 -0.0554859904
C  C9  1  0.35480000  0.68410000  0.00000000  1.0 -0.0554859904
C  C10  1  0.64520000  0.68410000  0.00000000  1.0 -0.0554859904
C  C11  1  0.35480000  0.31590000  0.00000000  1.0 -0.0554859904
C  C12  1  0.64520000  0.31590000  0.00000000  1.0 -0.0554859904
C  C13  1  0.35480000  0.00000000  0.31590000  1.0 -0.0554859904
C  C14  1  0.64520000  0.00000000  0.31590000  1.0 -0.0554859904
C  C15  1  0.35480000  0.00000000  0.68410000  1.0 -0.0554859904
C  C16  1  0.64520000  0.00000000  0.68410000  1.0 -0.0554859904
C  C17  1  0.00000000  0.68410000  0.64520000  1.0 -0.0554859904
C  C18  1  0.00000000  0.68410000  0.35480000  1.0 -0.0554859904
C  C19  1  0.00000000  0.31590000  0.64520000  1.0 -0.0554859904
C  C20  1  0.00000000  0.31590000  0.35480000  1.0 -0.0554859904
C  C21  1  0.68410000  0.35480000  0.00000000  1.0 -0.0554859904
C  C22  1  0.68410000  0.64520000  0.00000000  1.0 -0.0554859904
C  C23  1  0.31590000  0.35480000  0.00000000  1.0 -0.0554859904
C  C24  1  0.31590000  0.64520000  0.00000000  1.0 -0.0554859904
C  C25  1  0.00000000  0.50000000  0.81950000  1.0 0.0719542382
C  C26  1  0.00000000  0.50000000  0.18050000  1.0 0.0719542382
C  C27  1  0.81950000  0.00000000  0.50000000  1.0 0.0719542382
C  C28  1  0.18050000  0.00000000  0.50000000  1.0 0.0719542382
C  C29  1  0.50000000  0.81950000  0.00000000  1.0 0.0719542382
C  C30  1  0.50000000  0.18050000  0.00000000  1.0 0.0719542382
C  C31  1  0.50000000  0.00000000  0.18050000  1.0 0.0719542382
C  C32  1  0.50000000  0.00000000  0.81950000  1.0 0.0719542382
C  C33  1  0.00000000  0.81950000  0.50000000  1.0 0.0719542382
C  C34  1  0.00000000  0.18050000  0.50000000  1.0 0.0719542382
C  C35  1  0.81950000  0.50000000  0.00000000  1.0 0.0719542382
C  C36  1  0.18050000  0.50000000  0.00000000  1.0 0.0719542382
C  C37  1  0.00000000  0.27440000  0.72560000  1.0 0.2768714199
C  C38  1  0.00000000  0.72560000  0.72560000  1.0 0.2768714199
C  C39  1  0.00000000  0.27440000  0.27440000  1.0 0.2768714199
C  C40  1  0.00000000  0.72560000  0.27440000  1.0 0.2768714199
C  C41  1  0.72560000  0.00000000  0.27440000  1.0 0.2768714199
C  C42  1  0.72560000  0.00000000  0.72560000  1.0 0.2768714199
C  C43  1  0.27440000  0.00000000  0.27440000  1.0 0.2768714199
C  C44  1  0.27440000  0.00000000  0.72560000  1.0 0.2768714199
C  C45  1  0.27440000  0.72560000  0.00000000  1.0 0.2768714199
C  C46  1  0.72560000  0.72560000  0.00000000  1.0 0.2768714199
C  C47  1  0.27440000  0.27440000  0.00000000  1.0 0.2768714199
C  C48  1  0.72560000  0.27440000  0.00000000  1.0 0.2768714199
C  C49  1  0.12180000  0.44090000  0.74670000  0.25 -0.141652058
C  C50  1  0.16510000  0.47050000  0.72020000  0.25 0.0360619892
C  C51  1  0.87820000  0.55910000  0.74670000  0.25 -0.141652058
C  C52  1  0.83490000  0.52950000  0.72020000  0.25 0.0360619892
C  C53  1  0.87820000  0.44090000  0.25330000  0.25 -0.141652058
C  C54  1  0.83490000  0.47050000  0.27980000  0.25 0.0360619892
C  C55  1  0.12180000  0.55910000  0.25330000  0.25 -0.141652058
C  C56  1  0.16510000  0.52950000  0.27980000  0.25 0.0360619892
C  C57  1  0.74670000  0.12180000  0.44090000  0.25 -0.141652058
C  C58  1  0.72020000  0.16510000  0.47050000  0.25 0.0360619892
C  C59  1  0.74670000  0.87820000  0.55910000  0.25 -0.141652058
C  C60  1  0.72020000  0.83490000  0.52950000  0.25 0.0360619892
C  C61  1  0.25330000  0.87820000  0.44090000  0.25 -0.141652058
C  C62  1  0.27980000  0.83490000  0.47050000  0.25 0.0360619892
C  C63  1  0.25330000  0.12180000  0.55910000  0.25 -0.141652058
C  C64  1  0.27980000  0.16510000  0.52950000  0.25 0.0360619892
C  C65  1  0.44090000  0.74670000  0.12180000  0.25 -0.141652058
C  C66  1  0.47050000  0.72020000  0.16510000  0.25 0.0360619892
C  C67  1  0.55910000  0.74670000  0.87820000  0.25 -0.141652058
C  C68  1  0.52950000  0.72020000  0.83490000  0.25 0.0360619892
C  C69  1  0.44090000  0.25330000  0.87820000  0.25 -0.141652058
C  C70  1  0.47050000  0.27980000  0.83490000  0.25 0.0360619892
C  C71  1  0.55910000  0.25330000  0.12180000  0.25 -0.141652058
C  C72  1  0.52950000  0.27980000  0.16510000  0.25 0.0360619892
C  C73  1  0.44090000  0.12180000  0.25330000  0.25 -0.141652058
C  C74  1  0.47050000  0.16510000  0.27980000  0.25 0.0360619892
C  C75  1  0.55910000  0.87820000  0.25330000  0.25 -0.141652058
C  C76  1  0.52950000  0.83490000  0.27980000  0.25 0.0360619892
C  C77  1  0.44090000  0.87820000  0.74670000  0.25 -0.141652058
C  C78  1  0.47050000  0.83490000  0.72020000  0.25 0.0360619892
C  C79  1  0.55910000  0.12180000  0.74670000  0.25 -0.141652058
C  C80  1  0.52950000  0.16510000  0.72020000  0.25 0.0360619892
C  C81  1  0.12180000  0.74670000  0.55910000  0.25 -0.141652058
C  C82  1  0.16510000  0.72020000  0.52950000  0.25 0.0360619892
C  C83  1  0.87820000  0.74670000  0.44090000  0.25 -0.141652058
C  C84  1  0.83490000  0.72020000  0.47050000  0.25 0.0360619892
C  C85  1  0.87820000  0.25330000  0.55910000  0.25 -0.141652058
C  C86  1  0.83490000  0.27980000  0.52950000  0.25 0.0360619892
C  C87  1  0.12180000  0.25330000  0.44090000  0.25 -0.141652058
C  C88  1  0.16510000  0.27980000  0.47050000  0.25 0.0360619892
C  C89  1  0.74670000  0.44090000  0.87820000  0.25 -0.141652058
C  C90  1  0.72020000  0.47050000  0.83490000  0.25 0.0360619892
C  C91  1  0.74670000  0.55910000  0.12180000  0.25 -0.141652058
C  C92  1  0.72020000  0.52950000  0.16510000  0.25 0.0360619892
C  C93  1  0.25330000  0.44090000  0.12180000  0.25 -0.141652058
C  C94  1  0.27980000  0.47050000  0.16510000  0.25 0.0360619892
C  C95  1  0.25330000  0.55910000  0.87820000  0.25 -0.141652058
C  C96  1  0.27980000  0.52950000  0.83490000  0.25 0.0360619892
C  C97  1  0.87820000  0.55910000  0.25330000  0.25 -0.141652058
C  C98  1  0.83490000  0.52950000  0.27980000  0.25 0.0360619892
C  C99  1  0.12180000  0.44090000  0.25330000  0.25 -0.141652058
C  C100  1  0.16510000  0.47050000  0.27980000  0.25 0.0360619892
C  C101  1  0.12180000  0.55910000  0.74670000  0.25 -0.141652058
C  C102  1  0.16510000  0.52950000  0.72020000  0.25 0.0360619892
C  C103  1  0.87820000  0.44090000  0.74670000  0.25 -0.141652058
C  C104  1  0.83490000  0.47050000  0.72020000  0.25 0.0360619892
C  C105  1  0.25330000  0.87820000  0.55910000  0.25 -0.141652058
C  C106  1  0.27980000  0.83490000  0.52950000  0.25 0.0360619892
C  C107  1  0.25330000  0.12180000  0.44090000  0.25 -0.141652058
C  C108  1  0.27980000  0.16510000  0.47050000  0.25 0.0360619892
C  C109  1  0.74670000  0.12180000  0.55910000  0.25 -0.141652058
C  C110  1  0.72020000  0.16510000  0.52950000  0.25 0.0360619892
C  C111  1  0.74670000  0.87820000  0.44090000  0.25 -0.141652058
C  C112  1  0.72020000  0.83490000  0.47050000  0.25 0.0360619892
C  C113  1  0.55910000  0.25330000  0.87820000  0.25 -0.141652058
C  C114  1  0.52950000  0.27980000  0.83490000  0.25 0.0360619892
C  C115  1  0.44090000  0.25330000  0.12180000  0.25 -0.141652058
C  C116  1  0.47050000  0.27980000  0.16510000  0.25 0.0360619892
C  C117  1  0.55910000  0.74670000  0.12180000  0.25 -0.141652058
C  C118  1  0.52950000  0.72020000  0.16510000  0.25 0.0360619892
C  C119  1  0.44090000  0.74670000  0.87820000  0.25 -0.141652058
C  C120  1  0.47050000  0.72020000  0.83490000  0.25 0.0360619892
C  C121  1  0.55910000  0.87820000  0.74670000  0.25 -0.141652058
C  C122  1  0.52950000  0.83490000  0.72020000  0.25 0.0360619892
C  C123  1  0.44090000  0.12180000  0.74670000  0.25 -0.141652058
C  C124  1  0.47050000  0.16510000  0.72020000  0.25 0.0360619892
C  C125  1  0.55910000  0.12180000  0.25330000  0.25 -0.141652058
C  C126  1  0.52950000  0.16510000  0.27980000  0.25 0.0360619892
C  C127  1  0.44090000  0.87820000  0.25330000  0.25 -0.141652058
C  C128  1  0.47050000  0.83490000  0.27980000  0.25 0.0360619892
C  C129  1  0.87820000  0.25330000  0.44090000  0.25 -0.141652058
C  C130  1  0.83490000  0.27980000  0.47050000  0.25 0.0360619892
C  C131  1  0.12180000  0.25330000  0.55910000  0.25 -0.141652058
C  C132  1  0.16510000  0.27980000  0.52950000  0.25 0.0360619892
C  C133  1  0.12180000  0.74670000  0.44090000  0.25 -0.141652058
C  C134  1  0.16510000  0.72020000  0.47050000  0.25 0.0360619892
C  C135  1  0.87820000  0.74670000  0.55910000  0.25 -0.141652058
C  C136  1  0.83490000  0.72020000  0.52950000  0.25 0.0360619892
C  C137  1  0.25330000  0.55910000  0.12180000  0.25 -0.141652058
C  C138  1  0.27980000  0.52950000  0.16510000  0.25 0.0360619892
C  C139  1  0.25330000  0.44090000  0.87820000  0.25 -0.141652058
C  C140  1  0.27980000  0.47050000  0.83490000  0.25 0.0360619892
C  C141  1  0.74670000  0.55910000  0.87820000  0.25 -0.141652058
C  C142  1  0.72020000  0.52950000  0.83490000  0.25 0.0360619892
C  C143  1  0.74670000  0.44090000  0.12180000  0.25 -0.141652058
C  C144  1  0.72020000  0.47050000  0.16510000  0.25 0.0360619892
C  C145  1  0.13960000  0.36430000  0.82080000  0.5 -0.180327632
C  C146  1  0.07770000  0.47050000  0.77280000  0.5 0.0360619892
C  C147  1  0.04870000  0.28070000  0.91190000  0.5 -0.212556764
C  C148  1  0.86040000  0.63570000  0.82080000  0.5 -0.180327632
C  C149  1  0.92230000  0.52950000  0.77280000  0.5 0.0360619892
C  C150  1  0.95130000  0.71930000  0.91190000  0.5 -0.212556764
C  C151  1  0.86040000  0.36430000  0.17920000  0.5 -0.180327632
C  C152  1  0.92230000  0.47050000  0.22720000  0.5 0.0360619892
C  C153  1  0.95130000  0.28070000  0.08810000  0.5 -0.212556764
C  C154  1  0.13960000  0.63570000  0.17920000  0.5 -0.180327632
C  C155  1  0.07770000  0.52950000  0.22720000  0.5 0.0360619892
C  C156  1  0.04870000  0.71930000  0.08810000  0.5 -0.212556764
C  C157  1  0.82080000  0.13960000  0.36430000  0.5 -0.180327632
C  C158  1  0.77280000  0.07770000  0.47050000  0.5 0.0360619892
C  C159  1  0.91190000  0.04870000  0.28070000  0.5 -0.212556764
C  C160  1  0.82080000  0.86040000  0.63570000  0.5 -0.180327632
C  C161  1  0.77280000  0.92230000  0.52950000  0.5 0.0360619892
C  C162  1  0.91190000  0.95130000  0.71930000  0.5 -0.212556764
C  C163  1  0.17920000  0.86040000  0.36430000  0.5 -0.180327632
C  C164  1  0.22720000  0.92230000  0.47050000  0.5 0.0360619892
C  C165  1  0.08810000  0.95130000  0.28070000  0.5 -0.212556764
C  C166  1  0.17920000  0.13960000  0.63570000  0.5 -0.180327632
C  C167  1  0.22720000  0.07770000  0.52950000  0.5 0.0360619892
C  C168  1  0.08810000  0.04870000  0.71930000  0.5 -0.212556764
C  C169  1  0.36430000  0.82080000  0.13960000  0.5 -0.180327632
C  C170  1  0.47050000  0.77280000  0.07770000  0.5 0.0360619892
C  C171  1  0.28070000  0.91190000  0.04870000  0.5 -0.212556764
C  C172  1  0.63570000  0.82080000  0.86040000  0.5 -0.180327632
C  C173  1  0.52950000  0.77280000  0.92230000  0.5 0.0360619892
C  C174  1  0.71930000  0.91190000  0.95130000  0.5 -0.212556764
C  C175  1  0.36430000  0.17920000  0.86040000  0.5 -0.180327632
C  C176  1  0.47050000  0.22720000  0.92230000  0.5 0.0360619892
C  C177  1  0.28070000  0.08810000  0.95130000  0.5 -0.212556764
C  C178  1  0.63570000  0.17920000  0.13960000  0.5 -0.180327632
C  C179  1  0.52950000  0.22720000  0.07770000  0.5 0.0360619892
C  C180  1  0.71930000  0.08810000  0.04870000  0.5 -0.212556764
C  C181  1  0.36430000  0.13960000  0.17920000  0.5 -0.180327632
C  C182  1  0.47050000  0.07770000  0.22720000  0.5 0.0360619892
C  C183  1  0.28070000  0.04870000  0.08810000  0.5 -0.212556764
C  C184  1  0.63570000  0.86040000  0.17920000  0.5 -0.180327632
C  C185  1  0.52950000  0.92230000  0.22720000  0.5 0.0360619892
C  C186  1  0.71930000  0.95130000  0.08810000  0.5 -0.212556764
C  C187  1  0.36430000  0.86040000  0.82080000  0.5 -0.180327632
C  C188  1  0.47050000  0.92230000  0.77280000  0.5 0.0360619892
C  C189  1  0.28070000  0.95130000  0.91190000  0.5 -0.212556764
C  C190  1  0.63570000  0.13960000  0.82080000  0.5 -0.180327632
C  C191  1  0.52950000  0.07770000  0.77280000  0.5 0.0360619892
C  C192  1  0.71930000  0.04870000  0.91190000  0.5 -0.212556764
C  C193  1  0.13960000  0.82080000  0.63570000  0.5 -0.180327632
C  C194  1  0.07770000  0.77280000  0.52950000  0.5 0.0360619892
C  C195  1  0.04870000  0.91190000  0.71930000  0.5 -0.212556764
C  C196  1  0.86040000  0.82080000  0.36430000  0.5 -0.180327632
C  C197  1  0.92230000  0.77280000  0.47050000  0.5 0.0360619892
C  C198  1  0.95130000  0.91190000  0.28070000  0.5 -0.212556764
C  C199  1  0.86040000  0.17920000  0.63570000  0.5 -0.180327632
C  C200  1  0.92230000  0.22720000  0.52950000  0.5 0.0360619892
C  C201  1  0.95130000  0.08810000  0.71930000  0.5 -0.212556764
C  C202  1  0.13960000  0.17920000  0.36430000  0.5 -0.180327632
C  C203  1  0.07770000  0.22720000  0.47050000  0.5 0.0360619892
C  C204  1  0.04870000  0.08810000  0.28070000  0.5 -0.212556764
C  C205  1  0.82080000  0.36430000  0.86040000  0.5 -0.180327632
C  C206  1  0.77280000  0.47050000  0.92230000  0.5 0.0360619892
C  C207  1  0.91190000  0.28070000  0.95130000  0.5 -0.212556764
C  C208  1  0.82080000  0.63570000  0.13960000  0.5 -0.180327632
C  C209  1  0.77280000  0.52950000  0.07770000  0.5 0.0360619892
C  C210  1  0.91190000  0.71930000  0.04870000  0.5 -0.212556764
C  C211  1  0.17920000  0.36430000  0.13960000  0.5 -0.180327632
C  C212  1  0.22720000  0.47050000  0.07770000  0.5 0.0360619892
C  C213  1  0.08810000  0.28070000  0.04870000  0.5 -0.212556764
C  C214  1  0.17920000  0.63570000  0.86040000  0.5 -0.180327632
C  C215  1  0.22720000  0.52950000  0.92230000  0.5 0.0360619892
C  C216  1  0.08810000  0.71930000  0.95130000  0.5 -0.212556764
C  C217  1  0.86040000  0.63570000  0.17920000  0.5 -0.180327632
C  C218  1  0.92230000  0.52950000  0.22720000  0.5 0.0360619892
C  C219  1  0.95130000  0.71930000  0.08810000  0.5 -0.212556764
C  C220  1  0.13960000  0.36430000  0.17920000  0.5 -0.180327632
C  C221  1  0.07770000  0.47050000  0.22720000  0.5 0.0360619892
C  C222  1  0.04870000  0.28070000  0.08810000  0.5 -0.212556764
C  C223  1  0.13960000  0.63570000  0.82080000  0.5 -0.180327632
C  C224  1  0.07770000  0.52950000  0.77280000  0.5 0.0360619892
C  C225  1  0.04870000  0.71930000  0.91190000  0.5 -0.212556764
C  C226  1  0.86040000  0.36430000  0.82080000  0.5 -0.180327632
C  C227  1  0.92230000  0.47050000  0.77280000  0.5 0.0360619892
C  C228  1  0.95130000  0.28070000  0.91190000  0.5 -0.212556764
C  C229  1  0.17920000  0.86040000  0.63570000  0.5 -0.180327632
C  C230  1  0.22720000  0.92230000  0.52950000  0.5 0.0360619892
C  C231  1  0.08810000  0.95130000  0.71930000  0.5 -0.212556764
C  C232  1  0.17920000  0.13960000  0.36430000  0.5 -0.180327632
C  C233  1  0.22720000  0.07770000  0.47050000  0.5 0.0360619892
C  C234  1  0.08810000  0.04870000  0.28070000  0.5 -0.212556764
C  C235  1  0.82080000  0.13960000  0.63570000  0.5 -0.180327632
C  C236  1  0.77280000  0.07770000  0.52950000  0.5 0.0360619892
C  C237  1  0.91190000  0.04870000  0.71930000  0.5 -0.212556764
C  C238  1  0.82080000  0.86040000  0.36430000  0.5 -0.180327632
C  C239  1  0.77280000  0.92230000  0.47050000  0.5 0.0360619892
C  C240  1  0.91190000  0.95130000  0.28070000  0.5 -0.212556764
C  C241  1  0.63570000  0.17920000  0.86040000  0.5 -0.180327632
C  C242  1  0.52950000  0.22720000  0.92230000  0.5 0.0360619892
C  C243  1  0.71930000  0.08810000  0.95130000  0.5 -0.212556764
C  C244  1  0.36430000  0.17920000  0.13960000  0.5 -0.180327632
C  C245  1  0.47050000  0.22720000  0.07770000  0.5 0.0360619892
C  C246  1  0.28070000  0.08810000  0.04870000  0.5 -0.212556764
C  C247  1  0.63570000  0.82080000  0.13960000  0.5 -0.180327632
C  C248  1  0.52950000  0.77280000  0.07770000  0.5 0.0360619892
C  C249  1  0.71930000  0.91190000  0.04870000  0.5 -0.212556764
C  C250  1  0.36430000  0.82080000  0.86040000  0.5 -0.180327632
C  C251  1  0.47050000  0.77280000  0.92230000  0.5 0.0360619892
C  C252  1  0.28070000  0.91190000  0.95130000  0.5 -0.212556764
C  C253  1  0.63570000  0.86040000  0.82080000  0.5 -0.180327632
C  C254  1  0.52950000  0.92230000  0.77280000  0.5 0.0360619892
C  C255  1  0.71930000  0.95130000  0.91190000  0.5 -0.212556764
C  C256  1  0.36430000  0.13960000  0.82080000  0.5 -0.180327632
C  C257  1  0.47050000  0.07770000  0.77280000  0.5 0.0360619892
C  C258  1  0.28070000  0.04870000  0.91190000  0.5 -0.212556764
C  C259  1  0.63570000  0.13960000  0.17920000  0.5 -0.180327632
C  C260  1  0.52950000  0.07770000  0.22720000  0.5 0.0360619892
C  C261  1  0.71930000  0.04870000  0.08810000  0.5 -0.212556764
C  C262  1  0.36430000  0.86040000  0.17920000  0.5 -0.180327632
C  C263  1  0.47050000  0.92230000  0.22720000  0.5 0.0360619892
C  C264  1  0.28070000  0.95130000  0.08810000  0.5 -0.212556764
C  C265  1  0.86040000  0.17920000  0.36430000  0.5 -0.180327632
C  C266  1  0.92230000  0.22720000  0.47050000  0.5 0.0360619892
C  C267  1  0.95130000  0.08810000  0.28070000  0.5 -0.212556764
C  C268  1  0.13960000  0.17920000  0.63570000  0.5 -0.180327632
C  C269  1  0.07770000  0.22720000  0.52950000  0.5 0.0360619892
C  C270  1  0.04870000  0.08810000  0.71930000  0.5 -0.212556764
C  C271  1  0.13960000  0.82080000  0.36430000  0.5 -0.180327632
C  C272  1  0.07770000  0.77280000  0.47050000  0.5 0.0360619892
C  C273  1  0.04870000  0.91190000  0.28070000  0.5 -0.212556764
C  C274  1  0.86040000  0.82080000  0.63570000  0.5 -0.180327632
C  C275  1  0.92230000  0.77280000  0.52950000  0.5 0.0360619892
C  C276  1  0.95130000  0.91190000  0.71930000  0.5 -0.212556764
C  C277  1  0.17920000  0.63570000  0.13960000  0.5 -0.180327632
C  C278  1  0.22720000  0.52950000  0.07770000  0.5 0.0360619892
C  C279  1  0.08810000  0.71930000  0.04870000  0.5 -0.212556764
C  C280  1  0.17920000  0.36430000  0.86040000  0.5 -0.180327632
C  C281  1  0.22720000  0.47050000  0.92230000  0.5 0.0360619892
C  C282  1  0.08810000  0.28070000  0.95130000  0.5 -0.212556764
C  C283  1  0.82080000  0.63570000  0.86040000  0.5 -0.180327632
C  C284  1  0.77280000  0.52950000  0.92230000  0.5 0.0360619892
C  C285  1  0.91190000  0.71930000  0.95130000  0.5 -0.212556764
C  C286  1  0.82080000  0.36430000  0.13960000  0.5 -0.180327632
C  C287  1  0.77280000  0.47050000  0.07770000  0.5 0.0360619892
C  C288  1  0.91190000  0.28070000  0.04870000  0.5 -0.212556764
C  C289  1  0.00000000  0.22630000  0.77370000  0.5 -0.3889766693
C  C290  1  0.00000000  0.77370000  0.77370000  0.5 -0.3889766693
C  C291  1  0.00000000  0.22630000  0.22630000  0.5 -0.3889766693
C  C292  1  0.00000000  0.77370000  0.22630000  0.5 -0.3889766693
C  C293  1  0.77370000  0.00000000  0.22630000  0.5 -0.3889766693
C  C294  1  0.77370000  0.00000000  0.77370000  0.5 -0.3889766693
C  C295  1  0.22630000  0.00000000  0.22630000  0.5 -0.3889766693
C  C296  1  0.22630000  0.00000000  0.77370000  0.5 -0.3889766693
C  C297  1  0.22630000  0.77370000  0.00000000  0.5 -0.3889766693
C  C298  1  0.77370000  0.77370000  0.00000000  0.5 -0.3889766693
C  C299  1  0.22630000  0.22630000  0.00000000  0.5 -0.3889766693
C  C300  1  0.77370000  0.22630000  0.00000000  0.5 -0.3889766693
C  C301  1  0.09390000  0.36500000  0.90610000  0.5 0.0605178973
C  C302  1  0.09640000  0.36400000  0.90360000  0.5 0.0605178973
C  C303  1  0.90610000  0.63500000  0.90610000  0.5 0.0605178973
C  C304  1  0.90360000  0.63600000  0.90360000  0.5 0.0605178973
C  C305  1  0.90610000  0.36500000  0.09390000  0.5 0.0605178973
C  C306  1  0.90360000  0.36400000  0.09640000  0.5 0.0605178973
C  C307  1  0.09390000  0.63500000  0.09390000  0.5 0.0605178973
C  C308  1  0.09640000  0.63600000  0.09640000  0.5 0.0605178973
C  C309  1  0.90610000  0.09390000  0.36500000  0.5 0.0605178973
C  C310  1  0.90360000  0.09640000  0.36400000  0.5 0.0605178973
C  C311  1  0.90610000  0.90610000  0.63500000  0.5 0.0605178973
C  C312  1  0.90360000  0.90360000  0.63600000  0.5 0.0605178973
C  C313  1  0.09390000  0.90610000  0.36500000  0.5 0.0605178973
C  C314  1  0.09640000  0.90360000  0.36400000  0.5 0.0605178973
C  C315  1  0.09390000  0.09390000  0.63500000  0.5 0.0605178973
C  C316  1  0.09640000  0.09640000  0.63600000  0.5 0.0605178973
C  C317  1  0.36500000  0.90610000  0.09390000  0.5 0.0605178973
C  C318  1  0.36400000  0.90360000  0.09640000  0.5 0.0605178973
C  C319  1  0.63500000  0.90610000  0.90610000  0.5 0.0605178973
C  C320  1  0.63600000  0.90360000  0.90360000  0.5 0.0605178973
C  C321  1  0.36500000  0.09390000  0.90610000  0.5 0.0605178973
C  C322  1  0.36400000  0.09640000  0.90360000  0.5 0.0605178973
C  C323  1  0.63500000  0.09390000  0.09390000  0.5 0.0605178973
C  C324  1  0.63600000  0.09640000  0.09640000  0.5 0.0605178973
C  C325  1  0.36500000  0.09390000  0.09390000  0.5 0.0605178973
C  C326  1  0.36400000  0.09640000  0.09640000  0.5 0.0605178973
C  C327  1  0.63500000  0.90610000  0.09390000  0.5 0.0605178973
C  C328  1  0.63600000  0.90360000  0.09640000  0.5 0.0605178973
C  C329  1  0.36500000  0.90610000  0.90610000  0.5 0.0605178973
C  C330  1  0.36400000  0.90360000  0.90360000  0.5 0.0605178973
C  C331  1  0.63500000  0.09390000  0.90610000  0.5 0.0605178973
C  C332  1  0.63600000  0.09640000  0.90360000  0.5 0.0605178973
C  C333  1  0.09390000  0.90610000  0.63500000  0.5 0.0605178973
C  C334  1  0.09640000  0.90360000  0.63600000  0.5 0.0605178973
C  C335  1  0.90610000  0.90610000  0.36500000  0.5 0.0605178973
C  C336  1  0.90360000  0.90360000  0.36400000  0.5 0.0605178973
C  C337  1  0.90610000  0.09390000  0.63500000  0.5 0.0605178973
C  C338  1  0.90360000  0.09640000  0.63600000  0.5 0.0605178973
C  C339  1  0.09390000  0.09390000  0.36500000  0.5 0.0605178973
C  C340  1  0.09640000  0.09640000  0.36400000  0.5 0.0605178973
C  C341  1  0.90610000  0.36500000  0.90610000  0.5 0.0605178973
C  C342  1  0.90360000  0.36400000  0.90360000  0.5 0.0605178973
C  C343  1  0.90610000  0.63500000  0.09390000  0.5 0.0605178973
C  C344  1  0.90360000  0.63600000  0.09640000  0.5 0.0605178973
C  C345  1  0.09390000  0.36500000  0.09390000  0.5 0.0605178973
C  C346  1  0.09640000  0.36400000  0.09640000  0.5 0.0605178973
C  C347  1  0.09390000  0.63500000  0.90610000  0.5 0.0605178973
C  C348  1  0.09640000  0.63600000  0.90360000  0.5 0.0605178973
N  N1  1  0.00000000  0.33180000  0.73830000  1.0 -0.3501442577
N  N2  1  0.00000000  0.66820000  0.73830000  1.0 -0.3501442577
N  N3  1  0.00000000  0.33180000  0.26170000  1.0 -0.3501442577
N  N4  1  0.00000000  0.66820000  0.26170000  1.0 -0.3501442577
N  N5  1  0.73830000  0.00000000  0.33180000  1.0 -0.3501442577
N  N6  1  0.73830000  0.00000000  0.66820000  1.0 -0.3501442577
N  N7  1  0.26170000  0.00000000  0.33180000  1.0 -0.3501442577
N  N8  1  0.26170000  0.00000000  0.66820000  1.0 -0.3501442577
N  N9  1  0.33180000  0.73830000  0.00000000  1.0 -0.3501442577
N  N10  1  0.66820000  0.73830000  0.00000000  1.0 -0.3501442577
N  N11  1  0.33180000  0.26170000  0.00000000  1.0 -0.3501442577
N  N12  1  0.66820000  0.26170000  0.00000000  1.0 -0.3501442577
N  N13  1  0.33180000  0.00000000  0.26170000  1.0 -0.3501442577
N  N14  1  0.66820000  0.00000000  0.26170000  1.0 -0.3501442577
N  N15  1  0.33180000  0.00000000  0.73830000  1.0 -0.3501442577
N  N16  1  0.66820000  0.00000000  0.73830000  1.0 -0.3501442577
N  N17  1  0.00000000  0.73830000  0.66820000  1.0 -0.3501442577
N  N18  1  0.00000000  0.73830000  0.33180000  1.0 -0.3501442577
N  N19  1  0.00000000  0.26170000  0.66820000  1.0 -0.3501442577
N  N20  1  0.00000000  0.26170000  0.33180000  1.0 -0.3501442577
N  N21  1  0.73830000  0.33180000  0.00000000  1.0 -0.3501442577
N  N22  1  0.73830000  0.66820000  0.00000000  1.0 -0.3501442577
N  N23  1  0.26170000  0.33180000  0.00000000  1.0 -0.3501442577
N  N24  1  0.26170000  0.66820000  0.00000000  1.0 -0.3501442577
N  N25  1  0.21580000  0.43700000  0.68820000  0.12 0.2381365568
N  N26  1  0.78420000  0.56300000  0.68820000  0.12 0.2381365568
N  N27  1  0.78420000  0.43700000  0.31180000  0.12 0.2381365568
N  N28  1  0.21580000  0.56300000  0.31180000  0.12 0.2381365568
N  N29  1  0.68820000  0.21580000  0.43700000  0.12 0.2381365568
N  N30  1  0.68820000  0.78420000  0.56300000  0.12 0.2381365568
N  N31  1  0.31180000  0.78420000  0.43700000  0.12 0.2381365568
N  N32  1  0.31180000  0.21580000  0.56300000  0.12 0.2381365568
N  N33  1  0.43700000  0.68820000  0.21580000  0.12 0.2381365568
N  N34  1  0.56300000  0.68820000  0.78420000  0.12 0.2381365568
N  N35  1  0.43700000  0.31180000  0.78420000  0.12 0.2381365568
N  N36  1  0.56300000  0.31180000  0.21580000  0.12 0.2381365568
N  N37  1  0.43700000  0.21580000  0.31180000  0.12 0.2381365568
N  N38  1  0.56300000  0.78420000  0.31180000  0.12 0.2381365568
N  N39  1  0.43700000  0.78420000  0.68820000  0.12 0.2381365568
N  N40  1  0.56300000  0.21580000  0.68820000  0.12 0.2381365568
N  N41  1  0.21580000  0.68820000  0.56300000  0.12 0.2381365568
N  N42  1  0.78420000  0.68820000  0.43700000  0.12 0.2381365568
N  N43  1  0.78420000  0.31180000  0.56300000  0.12 0.2381365568
N  N44  1  0.21580000  0.31180000  0.43700000  0.12 0.2381365568
N  N45  1  0.68820000  0.43700000  0.78420000  0.12 0.2381365568
N  N46  1  0.68820000  0.56300000  0.21580000  0.12 0.2381365568
N  N47  1  0.31180000  0.43700000  0.21580000  0.12 0.2381365568
N  N48  1  0.31180000  0.56300000  0.78420000  0.12 0.2381365568
N  N49  1  0.78420000  0.56300000  0.31180000  0.12 0.2381365568
N  N50  1  0.21580000  0.43700000  0.31180000  0.12 0.2381365568
N  N51  1  0.21580000  0.56300000  0.68820000  0.12 0.2381365568
N  N52  1  0.78420000  0.43700000  0.68820000  0.12 0.2381365568
N  N53  1  0.31180000  0.78420000  0.56300000  0.12 0.2381365568
N  N54  1  0.31180000  0.21580000  0.43700000  0.12 0.2381365568
N  N55  1  0.68820000  0.21580000  0.56300000  0.12 0.2381365568
N  N56  1  0.68820000  0.78420000  0.43700000  0.12 0.2381365568
N  N57  1  0.56300000  0.31180000  0.78420000  0.12 0.2381365568
N  N58  1  0.43700000  0.31180000  0.21580000  0.12 0.2381365568
N  N59  1  0.56300000  0.68820000  0.21580000  0.12 0.2381365568
N  N60  1  0.43700000  0.68820000  0.78420000  0.12 0.2381365568
N  N61  1  0.56300000  0.78420000  0.68820000  0.12 0.2381365568
N  N62  1  0.43700000  0.21580000  0.68820000  0.12 0.2381365568
N  N63  1  0.56300000  0.21580000  0.31180000  0.12 0.2381365568
N  N64  1  0.43700000  0.78420000  0.31180000  0.12 0.2381365568
N  N65  1  0.78420000  0.31180000  0.43700000  0.12 0.2381365568
N  N66  1  0.21580000  0.31180000  0.56300000  0.12 0.2381365568
N  N67  1  0.21580000  0.68820000  0.43700000  0.12 0.2381365568
N  N68  1  0.78420000  0.68820000  0.56300000  0.12 0.2381365568
N  N69  1  0.31180000  0.56300000  0.21580000  0.12 0.2381365568
N  N70  1  0.31180000  0.43700000  0.78420000  0.12 0.2381365568
N  N71  1  0.68820000  0.56300000  0.78420000  0.12 0.2381365568
N  N72  1  0.68820000  0.43700000  0.21580000  0.12 0.2381365568
N  N73  1  0.02900000  0.44980000  0.80220000  0.5 -0.1671891804
N  N74  1  0.07820000  0.36640000  0.84430000  0.5 -0.0709622631
N  N75  1  0.05520000  0.33290000  0.87870000  0.5 0.0304993154
N  N76  1  0.97100000  0.55020000  0.80220000  0.5 -0.1671891804
N  N77  1  0.92180000  0.63360000  0.84430000  0.5 -0.0709622631
N  N78  1  0.94480000  0.66710000  0.87870000  0.5 0.0304993154
N  N79  1  0.97100000  0.44980000  0.19780000  0.5 -0.1671891804
N  N80  1  0.92180000  0.36640000  0.15570000  0.5 -0.0709622631
N  N81  1  0.94480000  0.33290000  0.12130000  0.5 0.0304993154
N  N82  1  0.02900000  0.55020000  0.19780000  0.5 -0.1671891804
N  N83  1  0.07820000  0.63360000  0.15570000  0.5 -0.0709622631
N  N84  1  0.05520000  0.66710000  0.12130000  0.5 0.0304993154
N  N85  1  0.80220000  0.02900000  0.44980000  0.5 -0.1671891804
N  N86  1  0.84430000  0.07820000  0.36640000  0.5 -0.0709622631
N  N87  1  0.87870000  0.05520000  0.33290000  0.5 0.0304993154
N  N88  1  0.80220000  0.97100000  0.55020000  0.5 -0.1671891804
N  N89  1  0.84430000  0.92180000  0.63360000  0.5 -0.0709622631
N  N90  1  0.87870000  0.94480000  0.66710000  0.5 0.0304993154
N  N91  1  0.19780000  0.97100000  0.44980000  0.5 -0.1671891804
N  N92  1  0.15570000  0.92180000  0.36640000  0.5 -0.0709622631
N  N93  1  0.12130000  0.94480000  0.33290000  0.5 0.0304993154
N  N94  1  0.19780000  0.02900000  0.55020000  0.5 -0.1671891804
N  N95  1  0.15570000  0.07820000  0.63360000  0.5 -0.0709622631
N  N96  1  0.12130000  0.05520000  0.66710000  0.5 0.0304993154
N  N97  1  0.44980000  0.80220000  0.02900000  0.5 -0.1671891804
N  N98  1  0.36640000  0.84430000  0.07820000  0.5 -0.0709622631
N  N99  1  0.33290000  0.87870000  0.05520000  0.5 0.0304993154
N  N100  1  0.55020000  0.80220000  0.97100000  0.5 -0.1671891804
N  N101  1  0.63360000  0.84430000  0.92180000  0.5 -0.0709622631
N  N102  1  0.66710000  0.87870000  0.94480000  0.5 0.0304993154
N  N103  1  0.44980000  0.19780000  0.97100000  0.5 -0.1671891804
N  N104  1  0.36640000  0.15570000  0.92180000  0.5 -0.0709622631
N  N105  1  0.33290000  0.12130000  0.94480000  0.5 0.0304993154
N  N106  1  0.55020000  0.19780000  0.02900000  0.5 -0.1671891804
N  N107  1  0.63360000  0.15570000  0.07820000  0.5 -0.0709622631
N  N108  1  0.66710000  0.12130000  0.05520000  0.5 0.0304993154
N  N109  1  0.44980000  0.02900000  0.19780000  0.5 -0.1671891804
N  N110  1  0.36640000  0.07820000  0.15570000  0.5 -0.0709622631
N  N111  1  0.33290000  0.05520000  0.12130000  0.5 0.0304993154
N  N112  1  0.55020000  0.97100000  0.19780000  0.5 -0.1671891804
N  N113  1  0.63360000  0.92180000  0.15570000  0.5 -0.0709622631
N  N114  1  0.66710000  0.94480000  0.12130000  0.5 0.0304993154
N  N115  1  0.44980000  0.97100000  0.80220000  0.5 -0.1671891804
N  N116  1  0.36640000  0.92180000  0.84430000  0.5 -0.0709622631
N  N117  1  0.33290000  0.94480000  0.87870000  0.5 0.0304993154
N  N118  1  0.55020000  0.02900000  0.80220000  0.5 -0.1671891804
N  N119  1  0.63360000  0.07820000  0.84430000  0.5 -0.0709622631
N  N120  1  0.66710000  0.05520000  0.87870000  0.5 0.0304993154
N  N121  1  0.02900000  0.80220000  0.55020000  0.5 -0.1671891804
N  N122  1  0.07820000  0.84430000  0.63360000  0.5 -0.0709622631
N  N123  1  0.05520000  0.87870000  0.66710000  0.5 0.0304993154
N  N124  1  0.97100000  0.80220000  0.44980000  0.5 -0.1671891804
N  N125  1  0.92180000  0.84430000  0.36640000  0.5 -0.0709622631
N  N126  1  0.94480000  0.87870000  0.33290000  0.5 0.0304993154
N  N127  1  0.97100000  0.19780000  0.55020000  0.5 -0.1671891804
N  N128  1  0.92180000  0.15570000  0.63360000  0.5 -0.0709622631
N  N129  1  0.94480000  0.12130000  0.66710000  0.5 0.0304993154
N  N130  1  0.02900000  0.19780000  0.44980000  0.5 -0.1671891804
N  N131  1  0.07820000  0.15570000  0.36640000  0.5 -0.0709622631
N  N132  1  0.05520000  0.12130000  0.33290000  0.5 0.0304993154
N  N133  1  0.80220000  0.44980000  0.97100000  0.5 -0.1671891804
N  N134  1  0.84430000  0.36640000  0.92180000  0.5 -0.0709622631
N  N135  1  0.87870000  0.33290000  0.94480000  0.5 0.0304993154
N  N136  1  0.80220000  0.55020000  0.02900000  0.5 -0.1671891804
N  N137  1  0.84430000  0.63360000  0.07820000  0.5 -0.0709622631
N  N138  1  0.87870000  0.66710000  0.05520000  0.5 0.0304993154
N  N139  1  0.19780000  0.44980000  0.02900000  0.5 -0.1671891804
N  N140  1  0.15570000  0.36640000  0.07820000  0.5 -0.0709622631
N  N141  1  0.12130000  0.33290000  0.05520000  0.5 0.0304993154
N  N142  1  0.19780000  0.55020000  0.97100000  0.5 -0.1671891804
N  N143  1  0.15570000  0.63360000  0.92180000  0.5 -0.0709622631
N  N144  1  0.12130000  0.66710000  0.94480000  0.5 0.0304993154
N  N145  1  0.97100000  0.55020000  0.19780000  0.5 -0.1671891804
N  N146  1  0.92180000  0.63360000  0.15570000  0.5 -0.0709622631
N  N147  1  0.94480000  0.66710000  0.12130000  0.5 0.0304993154
N  N148  1  0.02900000  0.44980000  0.19780000  0.5 -0.1671891804
N  N149  1  0.07820000  0.36640000  0.15570000  0.5 -0.0709622631
N  N150  1  0.05520000  0.33290000  0.12130000  0.5 0.0304993154
N  N151  1  0.02900000  0.55020000  0.80220000  0.5 -0.1671891804
N  N152  1  0.07820000  0.63360000  0.84430000  0.5 -0.0709622631
N  N153  1  0.05520000  0.66710000  0.87870000  0.5 0.0304993154
N  N154  1  0.97100000  0.44980000  0.80220000  0.5 -0.1671891804
N  N155  1  0.92180000  0.36640000  0.84430000  0.5 -0.0709622631
N  N156  1  0.94480000  0.33290000  0.87870000  0.5 0.0304993154
N  N157  1  0.19780000  0.97100000  0.55020000  0.5 -0.1671891804
N  N158  1  0.15570000  0.92180000  0.63360000  0.5 -0.0709622631
N  N159  1  0.12130000  0.94480000  0.66710000  0.5 0.0304993154
N  N160  1  0.19780000  0.02900000  0.44980000  0.5 -0.1671891804
N  N161  1  0.15570000  0.07820000  0.36640000  0.5 -0.0709622631
N  N162  1  0.12130000  0.05520000  0.33290000  0.5 0.0304993154
N  N163  1  0.80220000  0.02900000  0.55020000  0.5 -0.1671891804
N  N164  1  0.84430000  0.07820000  0.63360000  0.5 -0.0709622631
N  N165  1  0.87870000  0.05520000  0.66710000  0.5 0.0304993154
N  N166  1  0.80220000  0.97100000  0.44980000  0.5 -0.1671891804
N  N167  1  0.84430000  0.92180000  0.36640000  0.5 -0.0709622631
N  N168  1  0.87870000  0.94480000  0.33290000  0.5 0.0304993154
N  N169  1  0.55020000  0.19780000  0.97100000  0.5 -0.1671891804
N  N170  1  0.63360000  0.15570000  0.92180000  0.5 -0.0709622631
N  N171  1  0.66710000  0.12130000  0.94480000  0.5 0.0304993154
N  N172  1  0.44980000  0.19780000  0.02900000  0.5 -0.1671891804
N  N173  1  0.36640000  0.15570000  0.07820000  0.5 -0.0709622631
N  N174  1  0.33290000  0.12130000  0.05520000  0.5 0.0304993154
N  N175  1  0.55020000  0.80220000  0.02900000  0.5 -0.1671891804
N  N176  1  0.63360000  0.84430000  0.07820000  0.5 -0.0709622631
N  N177  1  0.66710000  0.87870000  0.05520000  0.5 0.0304993154
N  N178  1  0.44980000  0.80220000  0.97100000  0.5 -0.1671891804
N  N179  1  0.36640000  0.84430000  0.92180000  0.5 -0.0709622631
N  N180  1  0.33290000  0.87870000  0.94480000  0.5 0.0304993154
N  N181  1  0.55020000  0.97100000  0.80220000  0.5 -0.1671891804
N  N182  1  0.63360000  0.92180000  0.84430000  0.5 -0.0709622631
N  N183  1  0.66710000  0.94480000  0.87870000  0.5 0.0304993154
N  N184  1  0.44980000  0.02900000  0.80220000  0.5 -0.1671891804
N  N185  1  0.36640000  0.07820000  0.84430000  0.5 -0.0709622631
N  N186  1  0.33290000  0.05520000  0.87870000  0.5 0.0304993154
N  N187  1  0.55020000  0.02900000  0.19780000  0.5 -0.1671891804
N  N188  1  0.63360000  0.07820000  0.15570000  0.5 -0.0709622631
N  N189  1  0.66710000  0.05520000  0.12130000  0.5 0.0304993154
N  N190  1  0.44980000  0.97100000  0.19780000  0.5 -0.1671891804
N  N191  1  0.36640000  0.92180000  0.15570000  0.5 -0.0709622631
N  N192  1  0.33290000  0.94480000  0.12130000  0.5 0.0304993154
N  N193  1  0.97100000  0.19780000  0.44980000  0.5 -0.1671891804
N  N194  1  0.92180000  0.15570000  0.36640000  0.5 -0.0709622631
N  N195  1  0.94480000  0.12130000  0.33290000  0.5 0.0304993154
N  N196  1  0.02900000  0.19780000  0.55020000  0.5 -0.1671891804
N  N197  1  0.07820000  0.15570000  0.63360000  0.5 -0.0709622631
N  N198  1  0.05520000  0.12130000  0.66710000  0.5 0.0304993154
N  N199  1  0.02900000  0.80220000  0.44980000  0.5 -0.1671891804
N  N200  1  0.07820000  0.84430000  0.36640000  0.5 -0.0709622631
N  N201  1  0.05520000  0.87870000  0.33290000  0.5 0.0304993154
N  N202  1  0.97100000  0.80220000  0.55020000  0.5 -0.1671891804
N  N203  1  0.92180000  0.84430000  0.63360000  0.5 -0.0709622631
N  N204  1  0.94480000  0.87870000  0.66710000  0.5 0.0304993154
N  N205  1  0.19780000  0.55020000  0.02900000  0.5 -0.1671891804
N  N206  1  0.15570000  0.63360000  0.07820000  0.5 -0.0709622631
N  N207  1  0.12130000  0.66710000  0.05520000  0.5 0.0304993154
N  N208  1  0.19780000  0.44980000  0.97100000  0.5 -0.1671891804
N  N209  1  0.15570000  0.36640000  0.92180000  0.5 -0.0709622631
N  N210  1  0.12130000  0.33290000  0.94480000  0.5 0.0304993154
N  N211  1  0.80220000  0.55020000  0.97100000  0.5 -0.1671891804
N  N212  1  0.84430000  0.63360000  0.92180000  0.5 -0.0709622631
N  N213  1  0.87870000  0.66710000  0.94480000  0.5 0.0304993154
N  N214  1  0.80220000  0.44980000  0.02900000  0.5 -0.1671891804
N  N215  1  0.84430000  0.36640000  0.07820000  0.5 -0.0709622631
N  N216  1  0.87870000  0.33290000  0.05520000  0.5 0.0304993154
O  O1  1  0.21200000  0.37760000  0.69000000  0.12 -0.3889766693
O  O2  1  0.25600000  0.47200000  0.66300000  0.12 0.0304993154
O  O3  1  0.78800000  0.62240000  0.69000000  0.12 -0.3889766693
O  O4  1  0.74400000  0.52800000  0.66300000  0.12 0.0304993154
O  O5  1  0.78800000  0.37760000  0.31000000  0.12 -0.3889766693
O  O6  1  0.74400000  0.47200000  0.33700000  0.12 0.0304993154
O  O7  1  0.21200000  0.62240000  0.31000000  0.12 -0.3889766693
O  O8  1  0.25600000  0.52800000  0.33700000  0.12 0.0304993154
O  O9  1  0.69000000  0.21200000  0.37760000  0.12 -0.3889766693
O  O10  1  0.66300000  0.25600000  0.47200000  0.12 0.0304993154
O  O11  1  0.69000000  0.78800000  0.62240000  0.12 -0.3889766693
O  O12  1  0.66300000  0.74400000  0.52800000  0.12 0.0304993154
O  O13  1  0.31000000  0.78800000  0.37760000  0.12 -0.3889766693
O  O14  1  0.33700000  0.74400000  0.47200000  0.12 0.0304993154
O  O15  1  0.31000000  0.21200000  0.62240000  0.12 -0.3889766693
O  O16  1  0.33700000  0.25600000  0.52800000  0.12 0.0304993154
O  O17  1  0.37760000  0.69000000  0.21200000  0.12 -0.3889766693
O  O18  1  0.47200000  0.66300000  0.25600000  0.12 0.0304993154
O  O19  1  0.62240000  0.69000000  0.78800000  0.12 -0.3889766693
O  O20  1  0.52800000  0.66300000  0.74400000  0.12 0.0304993154
O  O21  1  0.37760000  0.31000000  0.78800000  0.12 -0.3889766693
O  O22  1  0.47200000  0.33700000  0.74400000  0.12 0.0304993154
O  O23  1  0.62240000  0.31000000  0.21200000  0.12 -0.3889766693
O  O24  1  0.52800000  0.33700000  0.25600000  0.12 0.0304993154
O  O25  1  0.37760000  0.21200000  0.31000000  0.12 -0.3889766693
O  O26  1  0.47200000  0.25600000  0.33700000  0.12 0.0304993154
O  O27  1  0.62240000  0.78800000  0.31000000  0.12 -0.3889766693
O  O28  1  0.52800000  0.74400000  0.33700000  0.12 0.0304993154
O  O29  1  0.37760000  0.78800000  0.69000000  0.12 -0.3889766693
O  O30  1  0.47200000  0.74400000  0.66300000  0.12 0.0304993154
O  O31  1  0.62240000  0.21200000  0.69000000  0.12 -0.3889766693
O  O32  1  0.52800000  0.25600000  0.66300000  0.12 0.0304993154
O  O33  1  0.21200000  0.69000000  0.62240000  0.12 -0.3889766693
O  O34  1  0.25600000  0.66300000  0.52800000  0.12 0.0304993154
O  O35  1  0.78800000  0.69000000  0.37760000  0.12 -0.3889766693
O  O36  1  0.74400000  0.66300000  0.47200000  0.12 0.0304993154
O  O37  1  0.78800000  0.31000000  0.62240000  0.12 -0.3889766693
O  O38  1  0.74400000  0.33700000  0.52800000  0.12 0.0304993154
O  O39  1  0.21200000  0.31000000  0.37760000  0.12 -0.3889766693
O  O40  1  0.25600000  0.33700000  0.47200000  0.12 0.0304993154
O  O41  1  0.69000000  0.37760000  0.78800000  0.12 -0.3889766693
O  O42  1  0.66300000  0.47200000  0.74400000  0.12 0.0304993154
O  O43  1  0.69000000  0.62240000  0.21200000  0.12 -0.3889766693
O  O44  1  0.66300000  0.52800000  0.25600000  0.12 0.0304993154
O  O45  1  0.31000000  0.37760000  0.21200000  0.12 -0.3889766693
O  O46  1  0.33700000  0.47200000  0.25600000  0.12 0.0304993154
O  O47  1  0.31000000  0.62240000  0.78800000  0.12 -0.3889766693
O  O48  1  0.33700000  0.52800000  0.74400000  0.12 0.0304993154
O  O49  1  0.78800000  0.62240000  0.31000000  0.12 -0.3889766693
O  O50  1  0.74400000  0.52800000  0.33700000  0.12 0.0304993154
O  O51  1  0.21200000  0.37760000  0.31000000  0.12 -0.3889766693
O  O52  1  0.25600000  0.47200000  0.33700000  0.12 0.0304993154
O  O53  1  0.21200000  0.62240000  0.69000000  0.12 -0.3889766693
O  O54  1  0.25600000  0.52800000  0.66300000  0.12 0.0304993154
O  O55  1  0.78800000  0.37760000  0.69000000  0.12 -0.3889766693
O  O56  1  0.74400000  0.47200000  0.66300000  0.12 0.0304993154
O  O57  1  0.31000000  0.78800000  0.62240000  0.12 -0.3889766693
O  O58  1  0.33700000  0.74400000  0.52800000  0.12 0.0304993154
O  O59  1  0.31000000  0.21200000  0.37760000  0.12 -0.3889766693
O  O60  1  0.33700000  0.25600000  0.47200000  0.12 0.0304993154
O  O61  1  0.69000000  0.21200000  0.62240000  0.12 -0.3889766693
O  O62  1  0.66300000  0.25600000  0.52800000  0.12 0.0304993154
O  O63  1  0.69000000  0.78800000  0.37760000  0.12 -0.3889766693
O  O64  1  0.66300000  0.74400000  0.47200000  0.12 0.0304993154
O  O65  1  0.62240000  0.31000000  0.78800000  0.12 -0.3889766693
O  O66  1  0.52800000  0.33700000  0.74400000  0.12 0.0304993154
O  O67  1  0.37760000  0.31000000  0.21200000  0.12 -0.3889766693
O  O68  1  0.47200000  0.33700000  0.25600000  0.12 0.0304993154
O  O69  1  0.62240000  0.69000000  0.21200000  0.12 -0.3889766693
O  O70  1  0.52800000  0.66300000  0.25600000  0.12 0.0304993154
O  O71  1  0.37760000  0.69000000  0.78800000  0.12 -0.3889766693
O  O72  1  0.47200000  0.66300000  0.74400000  0.12 0.0304993154
O  O73  1  0.62240000  0.78800000  0.69000000  0.12 -0.3889766693
O  O74  1  0.52800000  0.74400000  0.66300000  0.12 0.0304993154
O  O75  1  0.37760000  0.21200000  0.69000000  0.12 -0.3889766693
O  O76  1  0.47200000  0.25600000  0.66300000  0.12 0.0304993154
O  O77  1  0.62240000  0.21200000  0.31000000  0.12 -0.3889766693
O  O78  1  0.52800000  0.25600000  0.33700000  0.12 0.0304993154
O  O79  1  0.37760000  0.78800000  0.31000000  0.12 -0.3889766693
O  O80  1  0.47200000  0.74400000  0.33700000  0.12 0.0304993154
O  O81  1  0.78800000  0.31000000  0.37760000  0.12 -0.3889766693
O  O82  1  0.74400000  0.33700000  0.47200000  0.12 0.0304993154
O  O83  1  0.21200000  0.31000000  0.62240000  0.12 -0.3889766693
O  O84  1  0.25600000  0.33700000  0.52800000  0.12 0.0304993154
O  O85  1  0.21200000  0.69000000  0.37760000  0.12 -0.3889766693
O  O86  1  0.25600000  0.66300000  0.47200000  0.12 0.0304993154
O  O87  1  0.78800000  0.69000000  0.62240000  0.12 -0.3889766693
O  O88  1  0.74400000  0.66300000  0.52800000  0.12 0.0304993154
O  O89  1  0.31000000  0.62240000  0.21200000  0.12 -0.3889766693
O  O90  1  0.33700000  0.52800000  0.25600000  0.12 0.0304993154
O  O91  1  0.31000000  0.37760000  0.78800000  0.12 -0.3889766693
O  O92  1  0.33700000  0.47200000  0.74400000  0.12 0.0304993154
O  O93  1  0.69000000  0.62240000  0.78800000  0.12 -0.3889766693
O  O94  1  0.66300000  0.52800000  0.74400000  0.12 0.0304993154
O  O95  1  0.69000000  0.37760000  0.21200000  0.12 -0.3889766693
O  O96  1  0.66300000  0.47200000  0.25600000  0.12 0.0304993154
