# DDEC6 charges by PACMAN v1.1 (https://github.com/mtap-research/PACMAN-charge/)
data_d3sc04119k2_1_FSR_pacman
_symmetry_space_group_name_H-M   'P 1'
_cell_length_a   20.15260000
_cell_length_b   20.15260000
_cell_length_c   20.15260000
_cell_angle_alpha   90.00000000
_cell_angle_beta   90.00000000
_cell_angle_gamma   90.00000000
_symmetry_Int_Tables_number   1
_chemical_formula_structural   Zn32H128.0256C160.032N64.0128O56.0096
_chemical_formula_sum   'Zn32 H128.0256 C160.032 N64.0128 O56.0096'
_cell_volume   8184.52075916
_cell_formula_units_Z   1
loop_
 _symmetry_equiv_pos_site_id
 _symmetry_equiv_pos_as_xyz
  1  'x, y, z'
loop_
 _atom_site_type_symbol
 _atom_site_label
 _atom_site_symmetry_multiplicity
 _atom_site_fract_x
 _atom_site_fract_y
 _atom_site_fract_z
 _atom_site_occupancy
 _atom_site_charge
Zn  Zn1  1  0.30583000  0.69417000  0.30583000  1.0 0.4200173337
Zn  Zn2  1  0.30583000  0.30583000  0.30583000  1.0 0.4200173337
Zn  Zn3  1  0.69417000  0.30583000  0.30583000  1.0 0.4200173337
Zn  Zn4  1  0.69417000  0.69417000  0.30583000  1.0 0.4200173337
Zn  Zn5  1  0.30583000  0.69417000  0.69417000  1.0 0.4200173337
Zn  Zn6  1  0.30583000  0.30583000  0.69417000  1.0 0.4200173337
Zn  Zn7  1  0.69417000  0.69417000  0.69417000  1.0 0.4200173337
Zn  Zn8  1  0.69417000  0.30583000  0.69417000  1.0 0.4200173337
Zn  Zn9  1  0.30583000  0.19417000  0.80583000  1.0 0.4200173337
Zn  Zn10  1  0.30583000  0.80583000  0.80583000  1.0 0.4200173337
Zn  Zn11  1  0.69417000  0.80583000  0.80583000  1.0 0.4200173337
Zn  Zn12  1  0.69417000  0.19417000  0.80583000  1.0 0.4200173337
Zn  Zn13  1  0.30583000  0.19417000  0.19417000  1.0 0.4200173337
Zn  Zn14  1  0.30583000  0.80583000  0.19417000  1.0 0.4200173337
Zn  Zn15  1  0.69417000  0.19417000  0.19417000  1.0 0.4200173337
Zn  Zn16  1  0.69417000  0.80583000  0.19417000  1.0 0.4200173337
Zn  Zn17  1  0.80583000  0.69417000  0.80583000  1.0 0.4200173337
Zn  Zn18  1  0.80583000  0.30583000  0.80583000  1.0 0.4200173337
Zn  Zn19  1  0.19417000  0.30583000  0.80583000  1.0 0.4200173337
Zn  Zn20  1  0.19417000  0.69417000  0.80583000  1.0 0.4200173337
Zn  Zn21  1  0.80583000  0.69417000  0.19417000  1.0 0.4200173337
Zn  Zn22  1  0.80583000  0.30583000  0.19417000  1.0 0.4200173337
Zn  Zn23  1  0.19417000  0.69417000  0.19417000  1.0 0.4200173337
Zn  Zn24  1  0.19417000  0.30583000  0.19417000  1.0 0.4200173337
Zn  Zn25  1  0.80583000  0.19417000  0.30583000  1.0 0.4200173337
Zn  Zn26  1  0.80583000  0.80583000  0.30583000  1.0 0.4200173337
Zn  Zn27  1  0.19417000  0.80583000  0.30583000  1.0 0.4200173337
Zn  Zn28  1  0.19417000  0.19417000  0.30583000  1.0 0.4200173337
Zn  Zn29  1  0.80583000  0.19417000  0.69417000  1.0 0.4200173337
Zn  Zn30  1  0.80583000  0.80583000  0.69417000  1.0 0.4200173337
Zn  Zn31  1  0.19417000  0.19417000  0.69417000  1.0 0.4200173337
Zn  Zn32  1  0.19417000  0.80583000  0.69417000  1.0 0.4200173337
H  H1  1  0.17080000  0.81260000  0.48287000  0.1667 0.0495508019
H  H2  1  0.18740000  0.17080000  0.48287000  0.1667 0.0495508019
H  H3  1  0.82920000  0.18740000  0.48287000  0.1667 0.0495508019
H  H4  1  0.81260000  0.82920000  0.48287000  0.1667 0.0495508019
H  H5  1  0.17080000  0.51713000  0.81260000  0.1667 0.0495508019
H  H6  1  0.17080000  0.18740000  0.51713000  0.1667 0.0495508019
H  H7  1  0.17080000  0.48287000  0.18740000  0.1667 0.0495508019
H  H8  1  0.48287000  0.81260000  0.82920000  0.1667 0.0495508019
H  H9  1  0.82920000  0.81260000  0.51713000  0.1667 0.0495508019
H  H10  1  0.51713000  0.81260000  0.17080000  0.1667 0.0495508019
H  H11  1  0.48287000  0.17080000  0.81260000  0.1667 0.0495508019
H  H12  1  0.81260000  0.48287000  0.17080000  0.1667 0.0495508019
H  H13  1  0.18740000  0.51713000  0.17080000  0.1667 0.0495508019
H  H14  1  0.48287000  0.82920000  0.18740000  0.1667 0.0495508019
H  H15  1  0.18740000  0.48287000  0.82920000  0.1667 0.0495508019
H  H16  1  0.51713000  0.82920000  0.81260000  0.1667 0.0495508019
H  H17  1  0.51713000  0.17080000  0.18740000  0.1667 0.0495508019
H  H18  1  0.81260000  0.51713000  0.82920000  0.1667 0.0495508019
H  H19  1  0.81260000  0.17080000  0.51713000  0.1667 0.0495508019
H  H20  1  0.18740000  0.82920000  0.51713000  0.1667 0.0495508019
H  H21  1  0.82920000  0.48287000  0.81260000  0.1667 0.0495508019
H  H22  1  0.82920000  0.51713000  0.18740000  0.1667 0.0495508019
H  H23  1  0.48287000  0.18740000  0.17080000  0.1667 0.0495508019
H  H24  1  0.51713000  0.18740000  0.82920000  0.1667 0.0495508019
H  H25  1  0.17080000  0.31260000  0.98287000  0.1667 0.0495508019
H  H26  1  0.18740000  0.67080000  0.98287000  0.1667 0.0495508019
H  H27  1  0.82920000  0.68740000  0.98287000  0.1667 0.0495508019
H  H28  1  0.81260000  0.32920000  0.98287000  0.1667 0.0495508019
H  H29  1  0.17080000  0.01713000  0.31260000  0.1667 0.0495508019
H  H30  1  0.17080000  0.68740000  0.01713000  0.1667 0.0495508019
H  H31  1  0.17080000  0.98287000  0.68740000  0.1667 0.0495508019
H  H32  1  0.48287000  0.31260000  0.32920000  0.1667 0.0495508019
H  H33  1  0.82920000  0.31260000  0.01713000  0.1667 0.0495508019
H  H34  1  0.51713000  0.31260000  0.67080000  0.1667 0.0495508019
H  H35  1  0.48287000  0.67080000  0.31260000  0.1667 0.0495508019
H  H36  1  0.81260000  0.98287000  0.67080000  0.1667 0.0495508019
H  H37  1  0.18740000  0.01713000  0.67080000  0.1667 0.0495508019
H  H38  1  0.48287000  0.32920000  0.68740000  0.1667 0.0495508019
H  H39  1  0.18740000  0.98287000  0.32920000  0.1667 0.0495508019
H  H40  1  0.51713000  0.32920000  0.31260000  0.1667 0.0495508019
H  H41  1  0.51713000  0.67080000  0.68740000  0.1667 0.0495508019
H  H42  1  0.81260000  0.01713000  0.32920000  0.1667 0.0495508019
H  H43  1  0.81260000  0.67080000  0.01713000  0.1667 0.0495508019
H  H44  1  0.18740000  0.32920000  0.01713000  0.1667 0.0495508019
H  H45  1  0.82920000  0.98287000  0.31260000  0.1667 0.0495508019
H  H46  1  0.82920000  0.01713000  0.68740000  0.1667 0.0495508019
H  H47  1  0.48287000  0.68740000  0.67080000  0.1667 0.0495508019
H  H48  1  0.51713000  0.68740000  0.32920000  0.1667 0.0495508019
H  H49  1  0.67080000  0.81260000  0.98287000  0.1667 0.0495508019
H  H50  1  0.68740000  0.17080000  0.98287000  0.1667 0.0495508019
H  H51  1  0.32920000  0.18740000  0.98287000  0.1667 0.0495508019
H  H52  1  0.31260000  0.82920000  0.98287000  0.1667 0.0495508019
H  H53  1  0.67080000  0.51713000  0.31260000  0.1667 0.0495508019
H  H54  1  0.67080000  0.18740000  0.01713000  0.1667 0.0495508019
H  H55  1  0.67080000  0.48287000  0.68740000  0.1667 0.0495508019
H  H56  1  0.98287000  0.81260000  0.32920000  0.1667 0.0495508019
H  H57  1  0.32920000  0.81260000  0.01713000  0.1667 0.0495508019
H  H58  1  0.01713000  0.81260000  0.67080000  0.1667 0.0495508019
H  H59  1  0.98287000  0.17080000  0.31260000  0.1667 0.0495508019
H  H60  1  0.31260000  0.48287000  0.67080000  0.1667 0.0495508019
H  H61  1  0.68740000  0.51713000  0.67080000  0.1667 0.0495508019
H  H62  1  0.98287000  0.82920000  0.68740000  0.1667 0.0495508019
H  H63  1  0.68740000  0.48287000  0.32920000  0.1667 0.0495508019
H  H64  1  0.01713000  0.82920000  0.31260000  0.1667 0.0495508019
H  H65  1  0.01713000  0.17080000  0.68740000  0.1667 0.0495508019
H  H66  1  0.31260000  0.51713000  0.32920000  0.1667 0.0495508019
H  H67  1  0.31260000  0.17080000  0.01713000  0.1667 0.0495508019
H  H68  1  0.68740000  0.82920000  0.01713000  0.1667 0.0495508019
H  H69  1  0.32920000  0.48287000  0.31260000  0.1667 0.0495508019
H  H70  1  0.32920000  0.51713000  0.68740000  0.1667 0.0495508019
H  H71  1  0.98287000  0.18740000  0.67080000  0.1667 0.0495508019
H  H72  1  0.01713000  0.18740000  0.32920000  0.1667 0.0495508019
H  H73  1  0.67080000  0.31260000  0.48287000  0.1667 0.0495508019
H  H74  1  0.68740000  0.67080000  0.48287000  0.1667 0.0495508019
H  H75  1  0.32920000  0.68740000  0.48287000  0.1667 0.0495508019
H  H76  1  0.31260000  0.32920000  0.48287000  0.1667 0.0495508019
H  H77  1  0.67080000  0.01713000  0.81260000  0.1667 0.0495508019
H  H78  1  0.67080000  0.68740000  0.51713000  0.1667 0.0495508019
H  H79  1  0.67080000  0.98287000  0.18740000  0.1667 0.0495508019
H  H80  1  0.98287000  0.31260000  0.82920000  0.1667 0.0495508019
H  H81  1  0.32920000  0.31260000  0.51713000  0.1667 0.0495508019
H  H82  1  0.01713000  0.31260000  0.17080000  0.1667 0.0495508019
H  H83  1  0.98287000  0.67080000  0.81260000  0.1667 0.0495508019
H  H84  1  0.31260000  0.98287000  0.17080000  0.1667 0.0495508019
H  H85  1  0.68740000  0.01713000  0.17080000  0.1667 0.0495508019
H  H86  1  0.98287000  0.32920000  0.18740000  0.1667 0.0495508019
H  H87  1  0.68740000  0.98287000  0.82920000  0.1667 0.0495508019
H  H88  1  0.01713000  0.32920000  0.81260000  0.1667 0.0495508019
H  H89  1  0.01713000  0.67080000  0.18740000  0.1667 0.0495508019
H  H90  1  0.31260000  0.01713000  0.82920000  0.1667 0.0495508019
H  H91  1  0.31260000  0.67080000  0.51713000  0.1667 0.0495508019
H  H92  1  0.68740000  0.32920000  0.51713000  0.1667 0.0495508019
H  H93  1  0.32920000  0.98287000  0.81260000  0.1667 0.0495508019
H  H94  1  0.32920000  0.01713000  0.18740000  0.1667 0.0495508019
H  H95  1  0.98287000  0.68740000  0.17080000  0.1667 0.0495508019
H  H96  1  0.01713000  0.68740000  0.82920000  0.1667 0.0495508019
H  H97  1  0.82920000  0.18740000  0.51713000  0.1667 0.0495508019
H  H98  1  0.81260000  0.82920000  0.51713000  0.1667 0.0495508019
H  H99  1  0.17080000  0.81260000  0.51713000  0.1667 0.0495508019
H  H100  1  0.18740000  0.17080000  0.51713000  0.1667 0.0495508019
H  H101  1  0.82920000  0.48287000  0.18740000  0.1667 0.0495508019
H  H102  1  0.82920000  0.81260000  0.48287000  0.1667 0.0495508019
H  H103  1  0.82920000  0.51713000  0.81260000  0.1667 0.0495508019
H  H104  1  0.51713000  0.18740000  0.17080000  0.1667 0.0495508019
H  H105  1  0.17080000  0.18740000  0.48287000  0.1667 0.0495508019
H  H106  1  0.48287000  0.18740000  0.82920000  0.1667 0.0495508019
H  H107  1  0.51713000  0.82920000  0.18740000  0.1667 0.0495508019
H  H108  1  0.18740000  0.51713000  0.82920000  0.1667 0.0495508019
H  H109  1  0.81260000  0.48287000  0.82920000  0.1667 0.0495508019
H  H110  1  0.51713000  0.17080000  0.81260000  0.1667 0.0495508019
H  H111  1  0.81260000  0.51713000  0.17080000  0.1667 0.0495508019
H  H112  1  0.48287000  0.17080000  0.18740000  0.1667 0.0495508019
H  H113  1  0.48287000  0.82920000  0.81260000  0.1667 0.0495508019
H  H114  1  0.18740000  0.48287000  0.17080000  0.1667 0.0495508019
H  H115  1  0.18740000  0.82920000  0.48287000  0.1667 0.0495508019
H  H116  1  0.81260000  0.17080000  0.48287000  0.1667 0.0495508019
H  H117  1  0.17080000  0.51713000  0.18740000  0.1667 0.0495508019
H  H118  1  0.17080000  0.48287000  0.81260000  0.1667 0.0495508019
H  H119  1  0.51713000  0.81260000  0.82920000  0.1667 0.0495508019
H  H120  1  0.48287000  0.81260000  0.17080000  0.1667 0.0495508019
H  H121  1  0.82920000  0.68740000  0.01713000  0.1667 0.0495508019
H  H122  1  0.81260000  0.32920000  0.01713000  0.1667 0.0495508019
H  H123  1  0.17080000  0.31260000  0.01713000  0.1667 0.0495508019
H  H124  1  0.18740000  0.67080000  0.01713000  0.1667 0.0495508019
H  H125  1  0.82920000  0.98287000  0.68740000  0.1667 0.0495508019
H  H126  1  0.82920000  0.31260000  0.98287000  0.1667 0.0495508019
H  H127  1  0.82920000  0.01713000  0.31260000  0.1667 0.0495508019
H  H128  1  0.51713000  0.68740000  0.67080000  0.1667 0.0495508019
H  H129  1  0.17080000  0.68740000  0.98287000  0.1667 0.0495508019
H  H130  1  0.48287000  0.68740000  0.32920000  0.1667 0.0495508019
H  H131  1  0.51713000  0.32920000  0.68740000  0.1667 0.0495508019
H  H132  1  0.18740000  0.01713000  0.32920000  0.1667 0.0495508019
H  H133  1  0.81260000  0.98287000  0.32920000  0.1667 0.0495508019
H  H134  1  0.51713000  0.67080000  0.31260000  0.1667 0.0495508019
H  H135  1  0.81260000  0.01713000  0.67080000  0.1667 0.0495508019
H  H136  1  0.48287000  0.67080000  0.68740000  0.1667 0.0495508019
H  H137  1  0.48287000  0.32920000  0.31260000  0.1667 0.0495508019
H  H138  1  0.18740000  0.98287000  0.67080000  0.1667 0.0495508019
H  H139  1  0.18740000  0.32920000  0.98287000  0.1667 0.0495508019
H  H140  1  0.81260000  0.67080000  0.98287000  0.1667 0.0495508019
H  H141  1  0.17080000  0.01713000  0.68740000  0.1667 0.0495508019
H  H142  1  0.17080000  0.98287000  0.31260000  0.1667 0.0495508019
H  H143  1  0.51713000  0.31260000  0.32920000  0.1667 0.0495508019
H  H144  1  0.48287000  0.31260000  0.67080000  0.1667 0.0495508019
H  H145  1  0.32920000  0.18740000  0.01713000  0.1667 0.0495508019
H  H146  1  0.31260000  0.82920000  0.01713000  0.1667 0.0495508019
H  H147  1  0.67080000  0.81260000  0.01713000  0.1667 0.0495508019
H  H148  1  0.68740000  0.17080000  0.01713000  0.1667 0.0495508019
H  H149  1  0.32920000  0.48287000  0.68740000  0.1667 0.0495508019
H  H150  1  0.32920000  0.81260000  0.98287000  0.1667 0.0495508019
H  H151  1  0.32920000  0.51713000  0.31260000  0.1667 0.0495508019
H  H152  1  0.01713000  0.18740000  0.67080000  0.1667 0.0495508019
H  H153  1  0.67080000  0.18740000  0.98287000  0.1667 0.0495508019
H  H154  1  0.98287000  0.18740000  0.32920000  0.1667 0.0495508019
H  H155  1  0.01713000  0.82920000  0.68740000  0.1667 0.0495508019
H  H156  1  0.68740000  0.51713000  0.32920000  0.1667 0.0495508019
H  H157  1  0.31260000  0.48287000  0.32920000  0.1667 0.0495508019
H  H158  1  0.01713000  0.17080000  0.31260000  0.1667 0.0495508019
H  H159  1  0.31260000  0.51713000  0.67080000  0.1667 0.0495508019
H  H160  1  0.98287000  0.17080000  0.68740000  0.1667 0.0495508019
H  H161  1  0.98287000  0.82920000  0.31260000  0.1667 0.0495508019
H  H162  1  0.68740000  0.48287000  0.67080000  0.1667 0.0495508019
H  H163  1  0.68740000  0.82920000  0.98287000  0.1667 0.0495508019
H  H164  1  0.31260000  0.17080000  0.98287000  0.1667 0.0495508019
H  H165  1  0.67080000  0.51713000  0.68740000  0.1667 0.0495508019
H  H166  1  0.67080000  0.48287000  0.31260000  0.1667 0.0495508019
H  H167  1  0.01713000  0.81260000  0.32920000  0.1667 0.0495508019
H  H168  1  0.98287000  0.81260000  0.67080000  0.1667 0.0495508019
H  H169  1  0.32920000  0.68740000  0.51713000  0.1667 0.0495508019
H  H170  1  0.31260000  0.32920000  0.51713000  0.1667 0.0495508019
H  H171  1  0.67080000  0.31260000  0.51713000  0.1667 0.0495508019
H  H172  1  0.68740000  0.67080000  0.51713000  0.1667 0.0495508019
H  H173  1  0.32920000  0.98287000  0.18740000  0.1667 0.0495508019
H  H174  1  0.32920000  0.31260000  0.48287000  0.1667 0.0495508019
H  H175  1  0.32920000  0.01713000  0.81260000  0.1667 0.0495508019
H  H176  1  0.01713000  0.68740000  0.17080000  0.1667 0.0495508019
H  H177  1  0.67080000  0.68740000  0.48287000  0.1667 0.0495508019
H  H178  1  0.98287000  0.68740000  0.82920000  0.1667 0.0495508019
H  H179  1  0.01713000  0.32920000  0.18740000  0.1667 0.0495508019
H  H180  1  0.68740000  0.01713000  0.82920000  0.1667 0.0495508019
H  H181  1  0.31260000  0.98287000  0.82920000  0.1667 0.0495508019
H  H182  1  0.01713000  0.67080000  0.81260000  0.1667 0.0495508019
H  H183  1  0.31260000  0.01713000  0.17080000  0.1667 0.0495508019
H  H184  1  0.98287000  0.67080000  0.18740000  0.1667 0.0495508019
H  H185  1  0.98287000  0.32920000  0.81260000  0.1667 0.0495508019
H  H186  1  0.68740000  0.98287000  0.17080000  0.1667 0.0495508019
H  H187  1  0.68740000  0.32920000  0.48287000  0.1667 0.0495508019
H  H188  1  0.31260000  0.67080000  0.48287000  0.1667 0.0495508019
H  H189  1  0.67080000  0.01713000  0.18740000  0.1667 0.0495508019
H  H190  1  0.67080000  0.98287000  0.81260000  0.1667 0.0495508019
H  H191  1  0.01713000  0.31260000  0.82920000  0.1667 0.0495508019
H  H192  1  0.98287000  0.31260000  0.17080000  0.1667 0.0495508019
H  H193  1  0.37562000  0.68708000  0.50860000  0.1667 0.0495508019
H  H194  1  0.31292000  0.37562000  0.50860000  0.1667 0.0495508019
H  H195  1  0.62438000  0.31292000  0.50860000  0.1667 0.0495508019
H  H196  1  0.68708000  0.62438000  0.50860000  0.1667 0.0495508019
H  H197  1  0.37562000  0.49140000  0.68708000  0.1667 0.0495508019
H  H198  1  0.37562000  0.31292000  0.49140000  0.1667 0.0495508019
H  H199  1  0.37562000  0.50860000  0.31292000  0.1667 0.0495508019
H  H200  1  0.50860000  0.68708000  0.62438000  0.1667 0.0495508019
H  H201  1  0.62438000  0.68708000  0.49140000  0.1667 0.0495508019
H  H202  1  0.49140000  0.68708000  0.37562000  0.1667 0.0495508019
H  H203  1  0.50860000  0.37562000  0.68708000  0.1667 0.0495508019
H  H204  1  0.68708000  0.50860000  0.37562000  0.1667 0.0495508019
H  H205  1  0.31292000  0.49140000  0.37562000  0.1667 0.0495508019
H  H206  1  0.50860000  0.62438000  0.31292000  0.1667 0.0495508019
H  H207  1  0.31292000  0.50860000  0.62438000  0.1667 0.0495508019
H  H208  1  0.49140000  0.62438000  0.68708000  0.1667 0.0495508019
H  H209  1  0.49140000  0.37562000  0.31292000  0.1667 0.0495508019
H  H210  1  0.68708000  0.49140000  0.62438000  0.1667 0.0495508019
H  H211  1  0.68708000  0.37562000  0.49140000  0.1667 0.0495508019
H  H212  1  0.31292000  0.62438000  0.49140000  0.1667 0.0495508019
H  H213  1  0.62438000  0.50860000  0.68708000  0.1667 0.0495508019
H  H214  1  0.62438000  0.49140000  0.31292000  0.1667 0.0495508019
H  H215  1  0.50860000  0.31292000  0.37562000  0.1667 0.0495508019
H  H216  1  0.49140000  0.31292000  0.62438000  0.1667 0.0495508019
H  H217  1  0.37562000  0.18708000  0.00860000  0.1667 0.0495508019
H  H218  1  0.31292000  0.87562000  0.00860000  0.1667 0.0495508019
H  H219  1  0.62438000  0.81292000  0.00860000  0.1667 0.0495508019
H  H220  1  0.68708000  0.12438000  0.00860000  0.1667 0.0495508019
H  H221  1  0.37562000  0.99140000  0.18708000  0.1667 0.0495508019
H  H222  1  0.37562000  0.81292000  0.99140000  0.1667 0.0495508019
H  H223  1  0.37562000  0.00860000  0.81292000  0.1667 0.0495508019
H  H224  1  0.50860000  0.18708000  0.12438000  0.1667 0.0495508019
H  H225  1  0.62438000  0.18708000  0.99140000  0.1667 0.0495508019
H  H226  1  0.49140000  0.18708000  0.87562000  0.1667 0.0495508019
H  H227  1  0.50860000  0.87562000  0.18708000  0.1667 0.0495508019
H  H228  1  0.68708000  0.00860000  0.87562000  0.1667 0.0495508019
H  H229  1  0.31292000  0.99140000  0.87562000  0.1667 0.0495508019
H  H230  1  0.50860000  0.12438000  0.81292000  0.1667 0.0495508019
H  H231  1  0.31292000  0.00860000  0.12438000  0.1667 0.0495508019
H  H232  1  0.49140000  0.12438000  0.18708000  0.1667 0.0495508019
H  H233  1  0.49140000  0.87562000  0.81292000  0.1667 0.0495508019
H  H234  1  0.68708000  0.99140000  0.12438000  0.1667 0.0495508019
H  H235  1  0.68708000  0.87562000  0.99140000  0.1667 0.0495508019
H  H236  1  0.31292000  0.12438000  0.99140000  0.1667 0.0495508019
H  H237  1  0.62438000  0.00860000  0.18708000  0.1667 0.0495508019
H  H238  1  0.62438000  0.99140000  0.81292000  0.1667 0.0495508019
H  H239  1  0.50860000  0.81292000  0.87562000  0.1667 0.0495508019
H  H240  1  0.49140000  0.81292000  0.12438000  0.1667 0.0495508019
H  H241  1  0.87562000  0.68708000  0.00860000  0.1667 0.0495508019
H  H242  1  0.81292000  0.37562000  0.00860000  0.1667 0.0495508019
H  H243  1  0.12438000  0.31292000  0.00860000  0.1667 0.0495508019
H  H244  1  0.18708000  0.62438000  0.00860000  0.1667 0.0495508019
H  H245  1  0.87562000  0.49140000  0.18708000  0.1667 0.0495508019
H  H246  1  0.87562000  0.31292000  0.99140000  0.1667 0.0495508019
H  H247  1  0.87562000  0.50860000  0.81292000  0.1667 0.0495508019
H  H248  1  0.00860000  0.68708000  0.12438000  0.1667 0.0495508019
H  H249  1  0.12438000  0.68708000  0.99140000  0.1667 0.0495508019
H  H250  1  0.99140000  0.68708000  0.87562000  0.1667 0.0495508019
H  H251  1  0.00860000  0.37562000  0.18708000  0.1667 0.0495508019
H  H252  1  0.18708000  0.50860000  0.87562000  0.1667 0.0495508019
H  H253  1  0.81292000  0.49140000  0.87562000  0.1667 0.0495508019
H  H254  1  0.00860000  0.62438000  0.81292000  0.1667 0.0495508019
H  H255  1  0.81292000  0.50860000  0.12438000  0.1667 0.0495508019
H  H256  1  0.99140000  0.62438000  0.18708000  0.1667 0.0495508019
H  H257  1  0.99140000  0.37562000  0.81292000  0.1667 0.0495508019
H  H258  1  0.18708000  0.49140000  0.12438000  0.1667 0.0495508019
H  H259  1  0.18708000  0.37562000  0.99140000  0.1667 0.0495508019
H  H260  1  0.81292000  0.62438000  0.99140000  0.1667 0.0495508019
H  H261  1  0.12438000  0.50860000  0.18708000  0.1667 0.0495508019
H  H262  1  0.12438000  0.49140000  0.81292000  0.1667 0.0495508019
H  H263  1  0.00860000  0.31292000  0.87562000  0.1667 0.0495508019
H  H264  1  0.99140000  0.31292000  0.12438000  0.1667 0.0495508019
H  H265  1  0.87562000  0.18708000  0.50860000  0.1667 0.0495508019
H  H266  1  0.81292000  0.87562000  0.50860000  0.1667 0.0495508019
H  H267  1  0.12438000  0.81292000  0.50860000  0.1667 0.0495508019
H  H268  1  0.18708000  0.12438000  0.50860000  0.1667 0.0495508019
H  H269  1  0.87562000  0.99140000  0.68708000  0.1667 0.0495508019
H  H270  1  0.87562000  0.81292000  0.49140000  0.1667 0.0495508019
H  H271  1  0.87562000  0.00860000  0.31292000  0.1667 0.0495508019
H  H272  1  0.00860000  0.18708000  0.62438000  0.1667 0.0495508019
H  H273  1  0.12438000  0.18708000  0.49140000  0.1667 0.0495508019
H  H274  1  0.99140000  0.18708000  0.37562000  0.1667 0.0495508019
H  H275  1  0.00860000  0.87562000  0.68708000  0.1667 0.0495508019
H  H276  1  0.18708000  0.00860000  0.37562000  0.1667 0.0495508019
H  H277  1  0.81292000  0.99140000  0.37562000  0.1667 0.0495508019
H  H278  1  0.00860000  0.12438000  0.31292000  0.1667 0.0495508019
H  H279  1  0.81292000  0.00860000  0.62438000  0.1667 0.0495508019
H  H280  1  0.99140000  0.12438000  0.68708000  0.1667 0.0495508019
H  H281  1  0.99140000  0.87562000  0.31292000  0.1667 0.0495508019
H  H282  1  0.18708000  0.99140000  0.62438000  0.1667 0.0495508019
H  H283  1  0.18708000  0.87562000  0.49140000  0.1667 0.0495508019
H  H284  1  0.81292000  0.12438000  0.49140000  0.1667 0.0495508019
H  H285  1  0.12438000  0.00860000  0.68708000  0.1667 0.0495508019
H  H286  1  0.12438000  0.99140000  0.31292000  0.1667 0.0495508019
H  H287  1  0.00860000  0.81292000  0.37562000  0.1667 0.0495508019
H  H288  1  0.99140000  0.81292000  0.62438000  0.1667 0.0495508019
H  H289  1  0.62438000  0.31292000  0.49140000  0.1667 0.0495508019
H  H290  1  0.68708000  0.62438000  0.49140000  0.1667 0.0495508019
H  H291  1  0.37562000  0.68708000  0.49140000  0.1667 0.0495508019
H  H292  1  0.31292000  0.37562000  0.49140000  0.1667 0.0495508019
H  H293  1  0.62438000  0.50860000  0.31292000  0.1667 0.0495508019
H  H294  1  0.62438000  0.68708000  0.50860000  0.1667 0.0495508019
H  H295  1  0.62438000  0.49140000  0.68708000  0.1667 0.0495508019
H  H296  1  0.49140000  0.31292000  0.37562000  0.1667 0.0495508019
H  H297  1  0.37562000  0.31292000  0.50860000  0.1667 0.0495508019
H  H298  1  0.50860000  0.31292000  0.62438000  0.1667 0.0495508019
H  H299  1  0.49140000  0.62438000  0.31292000  0.1667 0.0495508019
H  H300  1  0.31292000  0.49140000  0.62438000  0.1667 0.0495508019
H  H301  1  0.68708000  0.50860000  0.62438000  0.1667 0.0495508019
H  H302  1  0.49140000  0.37562000  0.68708000  0.1667 0.0495508019
H  H303  1  0.68708000  0.49140000  0.37562000  0.1667 0.0495508019
H  H304  1  0.50860000  0.37562000  0.31292000  0.1667 0.0495508019
H  H305  1  0.50860000  0.62438000  0.68708000  0.1667 0.0495508019
H  H306  1  0.31292000  0.50860000  0.37562000  0.1667 0.0495508019
H  H307  1  0.31292000  0.62438000  0.50860000  0.1667 0.0495508019
H  H308  1  0.68708000  0.37562000  0.50860000  0.1667 0.0495508019
H  H309  1  0.37562000  0.49140000  0.31292000  0.1667 0.0495508019
H  H310  1  0.37562000  0.50860000  0.68708000  0.1667 0.0495508019
H  H311  1  0.49140000  0.68708000  0.62438000  0.1667 0.0495508019
H  H312  1  0.50860000  0.68708000  0.37562000  0.1667 0.0495508019
H  H313  1  0.62438000  0.81292000  0.99140000  0.1667 0.0495508019
H  H314  1  0.68708000  0.12438000  0.99140000  0.1667 0.0495508019
H  H315  1  0.37562000  0.18708000  0.99140000  0.1667 0.0495508019
H  H316  1  0.31292000  0.87562000  0.99140000  0.1667 0.0495508019
H  H317  1  0.62438000  0.00860000  0.81292000  0.1667 0.0495508019
H  H318  1  0.62438000  0.18708000  0.00860000  0.1667 0.0495508019
H  H319  1  0.62438000  0.99140000  0.18708000  0.1667 0.0495508019
H  H320  1  0.49140000  0.81292000  0.87562000  0.1667 0.0495508019
H  H321  1  0.37562000  0.81292000  0.00860000  0.1667 0.0495508019
H  H322  1  0.50860000  0.81292000  0.12438000  0.1667 0.0495508019
H  H323  1  0.49140000  0.12438000  0.81292000  0.1667 0.0495508019
H  H324  1  0.31292000  0.99140000  0.12438000  0.1667 0.0495508019
H  H325  1  0.68708000  0.00860000  0.12438000  0.1667 0.0495508019
H  H326  1  0.49140000  0.87562000  0.18708000  0.1667 0.0495508019
H  H327  1  0.68708000  0.99140000  0.87562000  0.1667 0.0495508019
H  H328  1  0.50860000  0.87562000  0.81292000  0.1667 0.0495508019
H  H329  1  0.50860000  0.12438000  0.18708000  0.1667 0.0495508019
H  H330  1  0.31292000  0.00860000  0.87562000  0.1667 0.0495508019
H  H331  1  0.31292000  0.12438000  0.00860000  0.1667 0.0495508019
H  H332  1  0.68708000  0.87562000  0.00860000  0.1667 0.0495508019
H  H333  1  0.37562000  0.99140000  0.81292000  0.1667 0.0495508019
H  H334  1  0.37562000  0.00860000  0.18708000  0.1667 0.0495508019
H  H335  1  0.49140000  0.18708000  0.12438000  0.1667 0.0495508019
H  H336  1  0.50860000  0.18708000  0.87562000  0.1667 0.0495508019
H  H337  1  0.12438000  0.31292000  0.99140000  0.1667 0.0495508019
H  H338  1  0.18708000  0.62438000  0.99140000  0.1667 0.0495508019
H  H339  1  0.87562000  0.68708000  0.99140000  0.1667 0.0495508019
H  H340  1  0.81292000  0.37562000  0.99140000  0.1667 0.0495508019
H  H341  1  0.12438000  0.50860000  0.81292000  0.1667 0.0495508019
H  H342  1  0.12438000  0.68708000  0.00860000  0.1667 0.0495508019
H  H343  1  0.12438000  0.49140000  0.18708000  0.1667 0.0495508019
H  H344  1  0.99140000  0.31292000  0.87562000  0.1667 0.0495508019
H  H345  1  0.87562000  0.31292000  0.00860000  0.1667 0.0495508019
H  H346  1  0.00860000  0.31292000  0.12438000  0.1667 0.0495508019
H  H347  1  0.99140000  0.62438000  0.81292000  0.1667 0.0495508019
H  H348  1  0.81292000  0.49140000  0.12438000  0.1667 0.0495508019
H  H349  1  0.18708000  0.50860000  0.12438000  0.1667 0.0495508019
H  H350  1  0.99140000  0.37562000  0.18708000  0.1667 0.0495508019
H  H351  1  0.18708000  0.49140000  0.87562000  0.1667 0.0495508019
H  H352  1  0.00860000  0.37562000  0.81292000  0.1667 0.0495508019
H  H353  1  0.00860000  0.62438000  0.18708000  0.1667 0.0495508019
H  H354  1  0.81292000  0.50860000  0.87562000  0.1667 0.0495508019
H  H355  1  0.81292000  0.62438000  0.00860000  0.1667 0.0495508019
H  H356  1  0.18708000  0.37562000  0.00860000  0.1667 0.0495508019
H  H357  1  0.87562000  0.49140000  0.81292000  0.1667 0.0495508019
H  H358  1  0.87562000  0.50860000  0.18708000  0.1667 0.0495508019
H  H359  1  0.99140000  0.68708000  0.12438000  0.1667 0.0495508019
H  H360  1  0.00860000  0.68708000  0.87562000  0.1667 0.0495508019
H  H361  1  0.12438000  0.81292000  0.49140000  0.1667 0.0495508019
H  H362  1  0.18708000  0.12438000  0.49140000  0.1667 0.0495508019
H  H363  1  0.87562000  0.18708000  0.49140000  0.1667 0.0495508019
H  H364  1  0.81292000  0.87562000  0.49140000  0.1667 0.0495508019
H  H365  1  0.12438000  0.00860000  0.31292000  0.1667 0.0495508019
H  H366  1  0.12438000  0.18708000  0.50860000  0.1667 0.0495508019
H  H367  1  0.12438000  0.99140000  0.68708000  0.1667 0.0495508019
H  H368  1  0.99140000  0.81292000  0.37562000  0.1667 0.0495508019
H  H369  1  0.87562000  0.81292000  0.50860000  0.1667 0.0495508019
H  H370  1  0.00860000  0.81292000  0.62438000  0.1667 0.0495508019
H  H371  1  0.99140000  0.12438000  0.31292000  0.1667 0.0495508019
H  H372  1  0.81292000  0.99140000  0.62438000  0.1667 0.0495508019
H  H373  1  0.18708000  0.00860000  0.62438000  0.1667 0.0495508019
H  H374  1  0.99140000  0.87562000  0.68708000  0.1667 0.0495508019
H  H375  1  0.18708000  0.99140000  0.37562000  0.1667 0.0495508019
H  H376  1  0.00860000  0.87562000  0.31292000  0.1667 0.0495508019
H  H377  1  0.00860000  0.12438000  0.68708000  0.1667 0.0495508019
H  H378  1  0.81292000  0.00860000  0.37562000  0.1667 0.0495508019
H  H379  1  0.81292000  0.12438000  0.50860000  0.1667 0.0495508019
H  H380  1  0.18708000  0.87562000  0.50860000  0.1667 0.0495508019
H  H381  1  0.87562000  0.99140000  0.31292000  0.1667 0.0495508019
H  H382  1  0.87562000  0.00860000  0.68708000  0.1667 0.0495508019
H  H383  1  0.99140000  0.18708000  0.62438000  0.1667 0.0495508019
H  H384  1  0.00860000  0.18708000  0.37562000  0.1667 0.0495508019
H  H385  1  0.37867000  0.66228000  0.43322000  0.1667 0.0100549065
H  H386  1  0.33772000  0.37867000  0.43322000  0.1667 0.0100549065
H  H387  1  0.62133000  0.33772000  0.43322000  0.1667 0.0100549065
H  H388  1  0.66228000  0.62133000  0.43322000  0.1667 0.0100549065
H  H389  1  0.37867000  0.56678000  0.66228000  0.1667 0.0100549065
H  H390  1  0.37867000  0.33772000  0.56678000  0.1667 0.0100549065
H  H391  1  0.37867000  0.43322000  0.33772000  0.1667 0.0100549065
H  H392  1  0.43322000  0.66228000  0.62133000  0.1667 0.0100549065
H  H393  1  0.62133000  0.66228000  0.56678000  0.1667 0.0100549065
H  H394  1  0.56678000  0.66228000  0.37867000  0.1667 0.0100549065
H  H395  1  0.43322000  0.37867000  0.66228000  0.1667 0.0100549065
H  H396  1  0.66228000  0.43322000  0.37867000  0.1667 0.0100549065
H  H397  1  0.33772000  0.56678000  0.37867000  0.1667 0.0100549065
H  H398  1  0.43322000  0.62133000  0.33772000  0.1667 0.0100549065
H  H399  1  0.33772000  0.43322000  0.62133000  0.1667 0.0100549065
H  H400  1  0.56678000  0.62133000  0.66228000  0.1667 0.0100549065
H  H401  1  0.56678000  0.37867000  0.33772000  0.1667 0.0100549065
H  H402  1  0.66228000  0.56678000  0.62133000  0.1667 0.0100549065
H  H403  1  0.66228000  0.37867000  0.56678000  0.1667 0.0100549065
H  H404  1  0.33772000  0.62133000  0.56678000  0.1667 0.0100549065
H  H405  1  0.62133000  0.43322000  0.66228000  0.1667 0.0100549065
H  H406  1  0.62133000  0.56678000  0.33772000  0.1667 0.0100549065
H  H407  1  0.43322000  0.33772000  0.37867000  0.1667 0.0100549065
H  H408  1  0.56678000  0.33772000  0.62133000  0.1667 0.0100549065
H  H409  1  0.37867000  0.16228000  0.93322000  0.1667 0.0100549065
H  H410  1  0.33772000  0.87867000  0.93322000  0.1667 0.0100549065
H  H411  1  0.62133000  0.83772000  0.93322000  0.1667 0.0100549065
H  H412  1  0.66228000  0.12133000  0.93322000  0.1667 0.0100549065
H  H413  1  0.37867000  0.06678000  0.16228000  0.1667 0.0100549065
H  H414  1  0.37867000  0.83772000  0.06678000  0.1667 0.0100549065
H  H415  1  0.37867000  0.93322000  0.83772000  0.1667 0.0100549065
H  H416  1  0.43322000  0.16228000  0.12133000  0.1667 0.0100549065
H  H417  1  0.62133000  0.16228000  0.06678000  0.1667 0.0100549065
H  H418  1  0.56678000  0.16228000  0.87867000  0.1667 0.0100549065
H  H419  1  0.43322000  0.87867000  0.16228000  0.1667 0.0100549065
H  H420  1  0.66228000  0.93322000  0.87867000  0.1667 0.0100549065
H  H421  1  0.33772000  0.06678000  0.87867000  0.1667 0.0100549065
H  H422  1  0.43322000  0.12133000  0.83772000  0.1667 0.0100549065
H  H423  1  0.33772000  0.93322000  0.12133000  0.1667 0.0100549065
H  H424  1  0.56678000  0.12133000  0.16228000  0.1667 0.0100549065
H  H425  1  0.56678000  0.87867000  0.83772000  0.1667 0.0100549065
H  H426  1  0.66228000  0.06678000  0.12133000  0.1667 0.0100549065
H  H427  1  0.66228000  0.87867000  0.06678000  0.1667 0.0100549065
H  H428  1  0.33772000  0.12133000  0.06678000  0.1667 0.0100549065
H  H429  1  0.62133000  0.93322000  0.16228000  0.1667 0.0100549065
H  H430  1  0.62133000  0.06678000  0.83772000  0.1667 0.0100549065
H  H431  1  0.43322000  0.83772000  0.87867000  0.1667 0.0100549065
H  H432  1  0.56678000  0.83772000  0.12133000  0.1667 0.0100549065
H  H433  1  0.87867000  0.66228000  0.93322000  0.1667 0.0100549065
H  H434  1  0.83772000  0.37867000  0.93322000  0.1667 0.0100549065
H  H435  1  0.12133000  0.33772000  0.93322000  0.1667 0.0100549065
H  H436  1  0.16228000  0.62133000  0.93322000  0.1667 0.0100549065
H  H437  1  0.87867000  0.56678000  0.16228000  0.1667 0.0100549065
H  H438  1  0.87867000  0.33772000  0.06678000  0.1667 0.0100549065
H  H439  1  0.87867000  0.43322000  0.83772000  0.1667 0.0100549065
H  H440  1  0.93322000  0.66228000  0.12133000  0.1667 0.0100549065
H  H441  1  0.12133000  0.66228000  0.06678000  0.1667 0.0100549065
H  H442  1  0.06678000  0.66228000  0.87867000  0.1667 0.0100549065
H  H443  1  0.93322000  0.37867000  0.16228000  0.1667 0.0100549065
H  H444  1  0.16228000  0.43322000  0.87867000  0.1667 0.0100549065
H  H445  1  0.83772000  0.56678000  0.87867000  0.1667 0.0100549065
H  H446  1  0.93322000  0.62133000  0.83772000  0.1667 0.0100549065
H  H447  1  0.83772000  0.43322000  0.12133000  0.1667 0.0100549065
H  H448  1  0.06678000  0.62133000  0.16228000  0.1667 0.0100549065
H  H449  1  0.06678000  0.37867000  0.83772000  0.1667 0.0100549065
H  H450  1  0.16228000  0.56678000  0.12133000  0.1667 0.0100549065
H  H451  1  0.16228000  0.37867000  0.06678000  0.1667 0.0100549065
H  H452  1  0.83772000  0.62133000  0.06678000  0.1667 0.0100549065
H  H453  1  0.12133000  0.43322000  0.16228000  0.1667 0.0100549065
H  H454  1  0.12133000  0.56678000  0.83772000  0.1667 0.0100549065
H  H455  1  0.93322000  0.33772000  0.87867000  0.1667 0.0100549065
H  H456  1  0.06678000  0.33772000  0.12133000  0.1667 0.0100549065
H  H457  1  0.87867000  0.16228000  0.43322000  0.1667 0.0100549065
H  H458  1  0.83772000  0.87867000  0.43322000  0.1667 0.0100549065
H  H459  1  0.12133000  0.83772000  0.43322000  0.1667 0.0100549065
H  H460  1  0.16228000  0.12133000  0.43322000  0.1667 0.0100549065
H  H461  1  0.87867000  0.06678000  0.66228000  0.1667 0.0100549065
H  H462  1  0.87867000  0.83772000  0.56678000  0.1667 0.0100549065
H  H463  1  0.87867000  0.93322000  0.33772000  0.1667 0.0100549065
H  H464  1  0.93322000  0.16228000  0.62133000  0.1667 0.0100549065
H  H465  1  0.12133000  0.16228000  0.56678000  0.1667 0.0100549065
H  H466  1  0.06678000  0.16228000  0.37867000  0.1667 0.0100549065
H  H467  1  0.93322000  0.87867000  0.66228000  0.1667 0.0100549065
H  H468  1  0.16228000  0.93322000  0.37867000  0.1667 0.0100549065
H  H469  1  0.83772000  0.06678000  0.37867000  0.1667 0.0100549065
H  H470  1  0.93322000  0.12133000  0.33772000  0.1667 0.0100549065
H  H471  1  0.83772000  0.93322000  0.62133000  0.1667 0.0100549065
H  H472  1  0.06678000  0.12133000  0.66228000  0.1667 0.0100549065
H  H473  1  0.06678000  0.87867000  0.33772000  0.1667 0.0100549065
H  H474  1  0.16228000  0.06678000  0.62133000  0.1667 0.0100549065
H  H475  1  0.16228000  0.87867000  0.56678000  0.1667 0.0100549065
H  H476  1  0.83772000  0.12133000  0.56678000  0.1667 0.0100549065
H  H477  1  0.12133000  0.93322000  0.66228000  0.1667 0.0100549065
H  H478  1  0.12133000  0.06678000  0.33772000  0.1667 0.0100549065
H  H479  1  0.93322000  0.83772000  0.37867000  0.1667 0.0100549065
H  H480  1  0.06678000  0.83772000  0.62133000  0.1667 0.0100549065
H  H481  1  0.62133000  0.33772000  0.56678000  0.1667 0.0100549065
H  H482  1  0.66228000  0.62133000  0.56678000  0.1667 0.0100549065
H  H483  1  0.37867000  0.66228000  0.56678000  0.1667 0.0100549065
H  H484  1  0.33772000  0.37867000  0.56678000  0.1667 0.0100549065
H  H485  1  0.62133000  0.43322000  0.33772000  0.1667 0.0100549065
H  H486  1  0.62133000  0.66228000  0.43322000  0.1667 0.0100549065
H  H487  1  0.62133000  0.56678000  0.66228000  0.1667 0.0100549065
H  H488  1  0.56678000  0.33772000  0.37867000  0.1667 0.0100549065
H  H489  1  0.37867000  0.33772000  0.43322000  0.1667 0.0100549065
H  H490  1  0.43322000  0.33772000  0.62133000  0.1667 0.0100549065
H  H491  1  0.56678000  0.62133000  0.33772000  0.1667 0.0100549065
H  H492  1  0.33772000  0.56678000  0.62133000  0.1667 0.0100549065
H  H493  1  0.66228000  0.43322000  0.62133000  0.1667 0.0100549065
H  H494  1  0.56678000  0.37867000  0.66228000  0.1667 0.0100549065
H  H495  1  0.66228000  0.56678000  0.37867000  0.1667 0.0100549065
H  H496  1  0.43322000  0.37867000  0.33772000  0.1667 0.0100549065
H  H497  1  0.43322000  0.62133000  0.66228000  0.1667 0.0100549065
H  H498  1  0.33772000  0.43322000  0.37867000  0.1667 0.0100549065
H  H499  1  0.33772000  0.62133000  0.43322000  0.1667 0.0100549065
H  H500  1  0.66228000  0.37867000  0.43322000  0.1667 0.0100549065
H  H501  1  0.37867000  0.56678000  0.33772000  0.1667 0.0100549065
H  H502  1  0.37867000  0.43322000  0.66228000  0.1667 0.0100549065
H  H503  1  0.56678000  0.66228000  0.62133000  0.1667 0.0100549065
H  H504  1  0.43322000  0.66228000  0.37867000  0.1667 0.0100549065
H  H505  1  0.62133000  0.83772000  0.06678000  0.1667 0.0100549065
H  H506  1  0.66228000  0.12133000  0.06678000  0.1667 0.0100549065
H  H507  1  0.37867000  0.16228000  0.06678000  0.1667 0.0100549065
H  H508  1  0.33772000  0.87867000  0.06678000  0.1667 0.0100549065
H  H509  1  0.62133000  0.93322000  0.83772000  0.1667 0.0100549065
H  H510  1  0.62133000  0.16228000  0.93322000  0.1667 0.0100549065
H  H511  1  0.62133000  0.06678000  0.16228000  0.1667 0.0100549065
H  H512  1  0.56678000  0.83772000  0.87867000  0.1667 0.0100549065
H  H513  1  0.37867000  0.83772000  0.93322000  0.1667 0.0100549065
H  H514  1  0.43322000  0.83772000  0.12133000  0.1667 0.0100549065
H  H515  1  0.56678000  0.12133000  0.83772000  0.1667 0.0100549065
H  H516  1  0.33772000  0.06678000  0.12133000  0.1667 0.0100549065
H  H517  1  0.66228000  0.93322000  0.12133000  0.1667 0.0100549065
H  H518  1  0.56678000  0.87867000  0.16228000  0.1667 0.0100549065
H  H519  1  0.66228000  0.06678000  0.87867000  0.1667 0.0100549065
H  H520  1  0.43322000  0.87867000  0.83772000  0.1667 0.0100549065
H  H521  1  0.43322000  0.12133000  0.16228000  0.1667 0.0100549065
H  H522  1  0.33772000  0.93322000  0.87867000  0.1667 0.0100549065
H  H523  1  0.33772000  0.12133000  0.93322000  0.1667 0.0100549065
H  H524  1  0.66228000  0.87867000  0.93322000  0.1667 0.0100549065
H  H525  1  0.37867000  0.06678000  0.83772000  0.1667 0.0100549065
H  H526  1  0.37867000  0.93322000  0.16228000  0.1667 0.0100549065
H  H527  1  0.56678000  0.16228000  0.12133000  0.1667 0.0100549065
H  H528  1  0.43322000  0.16228000  0.87867000  0.1667 0.0100549065
H  H529  1  0.12133000  0.33772000  0.06678000  0.1667 0.0100549065
H  H530  1  0.16228000  0.62133000  0.06678000  0.1667 0.0100549065
H  H531  1  0.87867000  0.66228000  0.06678000  0.1667 0.0100549065
H  H532  1  0.83772000  0.37867000  0.06678000  0.1667 0.0100549065
H  H533  1  0.12133000  0.43322000  0.83772000  0.1667 0.0100549065
H  H534  1  0.12133000  0.66228000  0.93322000  0.1667 0.0100549065
H  H535  1  0.12133000  0.56678000  0.16228000  0.1667 0.0100549065
H  H536  1  0.06678000  0.33772000  0.87867000  0.1667 0.0100549065
H  H537  1  0.87867000  0.33772000  0.93322000  0.1667 0.0100549065
H  H538  1  0.93322000  0.33772000  0.12133000  0.1667 0.0100549065
H  H539  1  0.06678000  0.62133000  0.83772000  0.1667 0.0100549065
H  H540  1  0.83772000  0.56678000  0.12133000  0.1667 0.0100549065
H  H541  1  0.16228000  0.43322000  0.12133000  0.1667 0.0100549065
H  H542  1  0.06678000  0.37867000  0.16228000  0.1667 0.0100549065
H  H543  1  0.16228000  0.56678000  0.87867000  0.1667 0.0100549065
H  H544  1  0.93322000  0.37867000  0.83772000  0.1667 0.0100549065
H  H545  1  0.93322000  0.62133000  0.16228000  0.1667 0.0100549065
H  H546  1  0.83772000  0.43322000  0.87867000  0.1667 0.0100549065
H  H547  1  0.83772000  0.62133000  0.93322000  0.1667 0.0100549065
H  H548  1  0.16228000  0.37867000  0.93322000  0.1667 0.0100549065
H  H549  1  0.87867000  0.56678000  0.83772000  0.1667 0.0100549065
H  H550  1  0.87867000  0.43322000  0.16228000  0.1667 0.0100549065
H  H551  1  0.06678000  0.66228000  0.12133000  0.1667 0.0100549065
H  H552  1  0.93322000  0.66228000  0.87867000  0.1667 0.0100549065
H  H553  1  0.12133000  0.83772000  0.56678000  0.1667 0.0100549065
H  H554  1  0.16228000  0.12133000  0.56678000  0.1667 0.0100549065
H  H555  1  0.87867000  0.16228000  0.56678000  0.1667 0.0100549065
H  H556  1  0.83772000  0.87867000  0.56678000  0.1667 0.0100549065
H  H557  1  0.12133000  0.93322000  0.33772000  0.1667 0.0100549065
H  H558  1  0.12133000  0.16228000  0.43322000  0.1667 0.0100549065
H  H559  1  0.12133000  0.06678000  0.66228000  0.1667 0.0100549065
H  H560  1  0.06678000  0.83772000  0.37867000  0.1667 0.0100549065
H  H561  1  0.87867000  0.83772000  0.43322000  0.1667 0.0100549065
H  H562  1  0.93322000  0.83772000  0.62133000  0.1667 0.0100549065
H  H563  1  0.06678000  0.12133000  0.33772000  0.1667 0.0100549065
H  H564  1  0.83772000  0.06678000  0.62133000  0.1667 0.0100549065
H  H565  1  0.16228000  0.93322000  0.62133000  0.1667 0.0100549065
H  H566  1  0.06678000  0.87867000  0.66228000  0.1667 0.0100549065
H  H567  1  0.16228000  0.06678000  0.37867000  0.1667 0.0100549065
H  H568  1  0.93322000  0.87867000  0.33772000  0.1667 0.0100549065
H  H569  1  0.93322000  0.12133000  0.66228000  0.1667 0.0100549065
H  H570  1  0.83772000  0.93322000  0.37867000  0.1667 0.0100549065
H  H571  1  0.83772000  0.12133000  0.43322000  0.1667 0.0100549065
H  H572  1  0.16228000  0.87867000  0.43322000  0.1667 0.0100549065
H  H573  1  0.87867000  0.06678000  0.33772000  0.1667 0.0100549065
H  H574  1  0.87867000  0.93322000  0.66228000  0.1667 0.0100549065
H  H575  1  0.06678000  0.16228000  0.62133000  0.1667 0.0100549065
H  H576  1  0.93322000  0.16228000  0.37867000  0.1667 0.0100549065
H  H577  1  0.33570000  0.62207000  0.48654000  0.1667 0.041775464
H  H578  1  0.37793000  0.33570000  0.48654000  0.1667 0.041775464
H  H579  1  0.66430000  0.37793000  0.48654000  0.1667 0.041775464
H  H580  1  0.62207000  0.66430000  0.48654000  0.1667 0.041775464
H  H581  1  0.33570000  0.51346000  0.62207000  0.1667 0.041775464
H  H582  1  0.33570000  0.37793000  0.51346000  0.1667 0.041775464
H  H583  1  0.33570000  0.48654000  0.37793000  0.1667 0.041775464
H  H584  1  0.48654000  0.62207000  0.66430000  0.1667 0.041775464
H  H585  1  0.66430000  0.62207000  0.51346000  0.1667 0.041775464
H  H586  1  0.51346000  0.62207000  0.33570000  0.1667 0.041775464
H  H587  1  0.48654000  0.33570000  0.62207000  0.1667 0.041775464
H  H588  1  0.62207000  0.48654000  0.33570000  0.1667 0.041775464
H  H589  1  0.37793000  0.51346000  0.33570000  0.1667 0.041775464
H  H590  1  0.48654000  0.66430000  0.37793000  0.1667 0.041775464
H  H591  1  0.37793000  0.48654000  0.66430000  0.1667 0.041775464
H  H592  1  0.51346000  0.66430000  0.62207000  0.1667 0.041775464
H  H593  1  0.51346000  0.33570000  0.37793000  0.1667 0.041775464
H  H594  1  0.62207000  0.51346000  0.66430000  0.1667 0.041775464
H  H595  1  0.62207000  0.33570000  0.51346000  0.1667 0.041775464
H  H596  1  0.37793000  0.66430000  0.51346000  0.1667 0.041775464
H  H597  1  0.66430000  0.48654000  0.62207000  0.1667 0.041775464
H  H598  1  0.66430000  0.51346000  0.37793000  0.1667 0.041775464
H  H599  1  0.48654000  0.37793000  0.33570000  0.1667 0.041775464
H  H600  1  0.51346000  0.37793000  0.66430000  0.1667 0.041775464
H  H601  1  0.33570000  0.12207000  0.98654000  0.1667 0.041775464
H  H602  1  0.37793000  0.83570000  0.98654000  0.1667 0.041775464
H  H603  1  0.66430000  0.87793000  0.98654000  0.1667 0.041775464
H  H604  1  0.62207000  0.16430000  0.98654000  0.1667 0.041775464
H  H605  1  0.33570000  0.01346000  0.12207000  0.1667 0.041775464
H  H606  1  0.33570000  0.87793000  0.01346000  0.1667 0.041775464
H  H607  1  0.33570000  0.98654000  0.87793000  0.1667 0.041775464
H  H608  1  0.48654000  0.12207000  0.16430000  0.1667 0.041775464
H  H609  1  0.66430000  0.12207000  0.01346000  0.1667 0.041775464
H  H610  1  0.51346000  0.12207000  0.83570000  0.1667 0.041775464
H  H611  1  0.48654000  0.83570000  0.12207000  0.1667 0.041775464
H  H612  1  0.62207000  0.98654000  0.83570000  0.1667 0.041775464
H  H613  1  0.37793000  0.01346000  0.83570000  0.1667 0.041775464
H  H614  1  0.48654000  0.16430000  0.87793000  0.1667 0.041775464
H  H615  1  0.37793000  0.98654000  0.16430000  0.1667 0.041775464
H  H616  1  0.51346000  0.16430000  0.12207000  0.1667 0.041775464
H  H617  1  0.51346000  0.83570000  0.87793000  0.1667 0.041775464
H  H618  1  0.62207000  0.01346000  0.16430000  0.1667 0.041775464
H  H619  1  0.62207000  0.83570000  0.01346000  0.1667 0.041775464
H  H620  1  0.37793000  0.16430000  0.01346000  0.1667 0.041775464
H  H621  1  0.66430000  0.98654000  0.12207000  0.1667 0.041775464
H  H622  1  0.66430000  0.01346000  0.87793000  0.1667 0.041775464
H  H623  1  0.48654000  0.87793000  0.83570000  0.1667 0.041775464
H  H624  1  0.51346000  0.87793000  0.16430000  0.1667 0.041775464
H  H625  1  0.83570000  0.62207000  0.98654000  0.1667 0.041775464
H  H626  1  0.87793000  0.33570000  0.98654000  0.1667 0.041775464
H  H627  1  0.16430000  0.37793000  0.98654000  0.1667 0.041775464
H  H628  1  0.12207000  0.66430000  0.98654000  0.1667 0.041775464
H  H629  1  0.83570000  0.51346000  0.12207000  0.1667 0.041775464
H  H630  1  0.83570000  0.37793000  0.01346000  0.1667 0.041775464
H  H631  1  0.83570000  0.48654000  0.87793000  0.1667 0.041775464
H  H632  1  0.98654000  0.62207000  0.16430000  0.1667 0.041775464
H  H633  1  0.16430000  0.62207000  0.01346000  0.1667 0.041775464
H  H634  1  0.01346000  0.62207000  0.83570000  0.1667 0.041775464
H  H635  1  0.98654000  0.33570000  0.12207000  0.1667 0.041775464
H  H636  1  0.12207000  0.48654000  0.83570000  0.1667 0.041775464
H  H637  1  0.87793000  0.51346000  0.83570000  0.1667 0.041775464
H  H638  1  0.98654000  0.66430000  0.87793000  0.1667 0.041775464
H  H639  1  0.87793000  0.48654000  0.16430000  0.1667 0.041775464
H  H640  1  0.01346000  0.66430000  0.12207000  0.1667 0.041775464
H  H641  1  0.01346000  0.33570000  0.87793000  0.1667 0.041775464
H  H642  1  0.12207000  0.51346000  0.16430000  0.1667 0.041775464
H  H643  1  0.12207000  0.33570000  0.01346000  0.1667 0.041775464
H  H644  1  0.87793000  0.66430000  0.01346000  0.1667 0.041775464
H  H645  1  0.16430000  0.48654000  0.12207000  0.1667 0.041775464
H  H646  1  0.16430000  0.51346000  0.87793000  0.1667 0.041775464
H  H647  1  0.98654000  0.37793000  0.83570000  0.1667 0.041775464
H  H648  1  0.01346000  0.37793000  0.16430000  0.1667 0.041775464
H  H649  1  0.83570000  0.12207000  0.48654000  0.1667 0.041775464
H  H650  1  0.87793000  0.83570000  0.48654000  0.1667 0.041775464
H  H651  1  0.16430000  0.87793000  0.48654000  0.1667 0.041775464
H  H652  1  0.12207000  0.16430000  0.48654000  0.1667 0.041775464
H  H653  1  0.83570000  0.01346000  0.62207000  0.1667 0.041775464
H  H654  1  0.83570000  0.87793000  0.51346000  0.1667 0.041775464
H  H655  1  0.83570000  0.98654000  0.37793000  0.1667 0.041775464
H  H656  1  0.98654000  0.12207000  0.66430000  0.1667 0.041775464
H  H657  1  0.16430000  0.12207000  0.51346000  0.1667 0.041775464
H  H658  1  0.01346000  0.12207000  0.33570000  0.1667 0.041775464
H  H659  1  0.98654000  0.83570000  0.62207000  0.1667 0.041775464
H  H660  1  0.12207000  0.98654000  0.33570000  0.1667 0.041775464
H  H661  1  0.87793000  0.01346000  0.33570000  0.1667 0.041775464
H  H662  1  0.98654000  0.16430000  0.37793000  0.1667 0.041775464
H  H663  1  0.87793000  0.98654000  0.66430000  0.1667 0.041775464
H  H664  1  0.01346000  0.16430000  0.62207000  0.1667 0.041775464
H  H665  1  0.01346000  0.83570000  0.37793000  0.1667 0.041775464
H  H666  1  0.12207000  0.01346000  0.66430000  0.1667 0.041775464
H  H667  1  0.12207000  0.83570000  0.51346000  0.1667 0.041775464
H  H668  1  0.87793000  0.16430000  0.51346000  0.1667 0.041775464
H  H669  1  0.16430000  0.98654000  0.62207000  0.1667 0.041775464
H  H670  1  0.16430000  0.01346000  0.37793000  0.1667 0.041775464
H  H671  1  0.98654000  0.87793000  0.33570000  0.1667 0.041775464
H  H672  1  0.01346000  0.87793000  0.66430000  0.1667 0.041775464
H  H673  1  0.66430000  0.37793000  0.51346000  0.1667 0.041775464
H  H674  1  0.62207000  0.66430000  0.51346000  0.1667 0.041775464
H  H675  1  0.33570000  0.62207000  0.51346000  0.1667 0.041775464
H  H676  1  0.37793000  0.33570000  0.51346000  0.1667 0.041775464
H  H677  1  0.66430000  0.48654000  0.37793000  0.1667 0.041775464
H  H678  1  0.66430000  0.62207000  0.48654000  0.1667 0.041775464
H  H679  1  0.66430000  0.51346000  0.62207000  0.1667 0.041775464
H  H680  1  0.51346000  0.37793000  0.33570000  0.1667 0.041775464
H  H681  1  0.33570000  0.37793000  0.48654000  0.1667 0.041775464
H  H682  1  0.48654000  0.37793000  0.66430000  0.1667 0.041775464
H  H683  1  0.51346000  0.66430000  0.37793000  0.1667 0.041775464
H  H684  1  0.37793000  0.51346000  0.66430000  0.1667 0.041775464
H  H685  1  0.62207000  0.48654000  0.66430000  0.1667 0.041775464
H  H686  1  0.51346000  0.33570000  0.62207000  0.1667 0.041775464
H  H687  1  0.62207000  0.51346000  0.33570000  0.1667 0.041775464
H  H688  1  0.48654000  0.33570000  0.37793000  0.1667 0.041775464
H  H689  1  0.48654000  0.66430000  0.62207000  0.1667 0.041775464
H  H690  1  0.37793000  0.48654000  0.33570000  0.1667 0.041775464
H  H691  1  0.37793000  0.66430000  0.48654000  0.1667 0.041775464
H  H692  1  0.62207000  0.33570000  0.48654000  0.1667 0.041775464
H  H693  1  0.33570000  0.51346000  0.37793000  0.1667 0.041775464
H  H694  1  0.33570000  0.48654000  0.62207000  0.1667 0.041775464
H  H695  1  0.51346000  0.62207000  0.66430000  0.1667 0.041775464
H  H696  1  0.48654000  0.62207000  0.33570000  0.1667 0.041775464
H  H697  1  0.66430000  0.87793000  0.01346000  0.1667 0.041775464
H  H698  1  0.62207000  0.16430000  0.01346000  0.1667 0.041775464
H  H699  1  0.33570000  0.12207000  0.01346000  0.1667 0.041775464
H  H700  1  0.37793000  0.83570000  0.01346000  0.1667 0.041775464
H  H701  1  0.66430000  0.98654000  0.87793000  0.1667 0.041775464
H  H702  1  0.66430000  0.12207000  0.98654000  0.1667 0.041775464
H  H703  1  0.66430000  0.01346000  0.12207000  0.1667 0.041775464
H  H704  1  0.51346000  0.87793000  0.83570000  0.1667 0.041775464
H  H705  1  0.33570000  0.87793000  0.98654000  0.1667 0.041775464
H  H706  1  0.48654000  0.87793000  0.16430000  0.1667 0.041775464
H  H707  1  0.51346000  0.16430000  0.87793000  0.1667 0.041775464
H  H708  1  0.37793000  0.01346000  0.16430000  0.1667 0.041775464
H  H709  1  0.62207000  0.98654000  0.16430000  0.1667 0.041775464
H  H710  1  0.51346000  0.83570000  0.12207000  0.1667 0.041775464
H  H711  1  0.62207000  0.01346000  0.83570000  0.1667 0.041775464
H  H712  1  0.48654000  0.83570000  0.87793000  0.1667 0.041775464
H  H713  1  0.48654000  0.16430000  0.12207000  0.1667 0.041775464
H  H714  1  0.37793000  0.98654000  0.83570000  0.1667 0.041775464
H  H715  1  0.37793000  0.16430000  0.98654000  0.1667 0.041775464
H  H716  1  0.62207000  0.83570000  0.98654000  0.1667 0.041775464
H  H717  1  0.33570000  0.01346000  0.87793000  0.1667 0.041775464
H  H718  1  0.33570000  0.98654000  0.12207000  0.1667 0.041775464
H  H719  1  0.51346000  0.12207000  0.16430000  0.1667 0.041775464
H  H720  1  0.48654000  0.12207000  0.83570000  0.1667 0.041775464
H  H721  1  0.16430000  0.37793000  0.01346000  0.1667 0.041775464
H  H722  1  0.12207000  0.66430000  0.01346000  0.1667 0.041775464
H  H723  1  0.83570000  0.62207000  0.01346000  0.1667 0.041775464
H  H724  1  0.87793000  0.33570000  0.01346000  0.1667 0.041775464
H  H725  1  0.16430000  0.48654000  0.87793000  0.1667 0.041775464
H  H726  1  0.16430000  0.62207000  0.98654000  0.1667 0.041775464
H  H727  1  0.16430000  0.51346000  0.12207000  0.1667 0.041775464
H  H728  1  0.01346000  0.37793000  0.83570000  0.1667 0.041775464
H  H729  1  0.83570000  0.37793000  0.98654000  0.1667 0.041775464
H  H730  1  0.98654000  0.37793000  0.16430000  0.1667 0.041775464
H  H731  1  0.01346000  0.66430000  0.87793000  0.1667 0.041775464
H  H732  1  0.87793000  0.51346000  0.16430000  0.1667 0.041775464
H  H733  1  0.12207000  0.48654000  0.16430000  0.1667 0.041775464
H  H734  1  0.01346000  0.33570000  0.12207000  0.1667 0.041775464
H  H735  1  0.12207000  0.51346000  0.83570000  0.1667 0.041775464
H  H736  1  0.98654000  0.33570000  0.87793000  0.1667 0.041775464
H  H737  1  0.98654000  0.66430000  0.12207000  0.1667 0.041775464
H  H738  1  0.87793000  0.48654000  0.83570000  0.1667 0.041775464
H  H739  1  0.87793000  0.66430000  0.98654000  0.1667 0.041775464
H  H740  1  0.12207000  0.33570000  0.98654000  0.1667 0.041775464
H  H741  1  0.83570000  0.51346000  0.87793000  0.1667 0.041775464
H  H742  1  0.83570000  0.48654000  0.12207000  0.1667 0.041775464
H  H743  1  0.01346000  0.62207000  0.16430000  0.1667 0.041775464
H  H744  1  0.98654000  0.62207000  0.83570000  0.1667 0.041775464
H  H745  1  0.16430000  0.87793000  0.51346000  0.1667 0.041775464
H  H746  1  0.12207000  0.16430000  0.51346000  0.1667 0.041775464
H  H747  1  0.83570000  0.12207000  0.51346000  0.1667 0.041775464
H  H748  1  0.87793000  0.83570000  0.51346000  0.1667 0.041775464
H  H749  1  0.16430000  0.98654000  0.37793000  0.1667 0.041775464
H  H750  1  0.16430000  0.12207000  0.48654000  0.1667 0.041775464
H  H751  1  0.16430000  0.01346000  0.62207000  0.1667 0.041775464
H  H752  1  0.01346000  0.87793000  0.33570000  0.1667 0.041775464
H  H753  1  0.83570000  0.87793000  0.48654000  0.1667 0.041775464
H  H754  1  0.98654000  0.87793000  0.66430000  0.1667 0.041775464
H  H755  1  0.01346000  0.16430000  0.37793000  0.1667 0.041775464
H  H756  1  0.87793000  0.01346000  0.66430000  0.1667 0.041775464
H  H757  1  0.12207000  0.98654000  0.66430000  0.1667 0.041775464
H  H758  1  0.01346000  0.83570000  0.62207000  0.1667 0.041775464
H  H759  1  0.12207000  0.01346000  0.33570000  0.1667 0.041775464
H  H760  1  0.98654000  0.83570000  0.37793000  0.1667 0.041775464
H  H761  1  0.98654000  0.16430000  0.62207000  0.1667 0.041775464
H  H762  1  0.87793000  0.98654000  0.33570000  0.1667 0.041775464
H  H763  1  0.87793000  0.16430000  0.48654000  0.1667 0.041775464
H  H764  1  0.12207000  0.83570000  0.48654000  0.1667 0.041775464
H  H765  1  0.83570000  0.01346000  0.37793000  0.1667 0.041775464
H  H766  1  0.83570000  0.98654000  0.62207000  0.1667 0.041775464
H  H767  1  0.01346000  0.12207000  0.66430000  0.1667 0.041775464
H  H768  1  0.98654000  0.12207000  0.33570000  0.1667 0.041775464
C  C1  1  0.20320000  0.78350000  0.46490000  0.1667 0.0839451434
C  C2  1  0.21650000  0.20320000  0.46490000  0.1667 0.0839451434
C  C3  1  0.79680000  0.21650000  0.46490000  0.1667 0.0839451434
C  C4  1  0.78350000  0.79680000  0.46490000  0.1667 0.0839451434
C  C5  1  0.20320000  0.53510000  0.78350000  0.1667 0.0839451434
C  C6  1  0.20320000  0.21650000  0.53510000  0.1667 0.0839451434
C  C7  1  0.20320000  0.46490000  0.21650000  0.1667 0.0839451434
C  C8  1  0.46490000  0.78350000  0.79680000  0.1667 0.0839451434
C  C9  1  0.79680000  0.78350000  0.53510000  0.1667 0.0839451434
C  C10  1  0.53510000  0.78350000  0.20320000  0.1667 0.0839451434
C  C11  1  0.46490000  0.20320000  0.78350000  0.1667 0.0839451434
C  C12  1  0.78350000  0.46490000  0.20320000  0.1667 0.0839451434
C  C13  1  0.21650000  0.53510000  0.20320000  0.1667 0.0839451434
C  C14  1  0.46490000  0.79680000  0.21650000  0.1667 0.0839451434
C  C15  1  0.21650000  0.46490000  0.79680000  0.1667 0.0839451434
C  C16  1  0.53510000  0.79680000  0.78350000  0.1667 0.0839451434
C  C17  1  0.53510000  0.20320000  0.21650000  0.1667 0.0839451434
C  C18  1  0.78350000  0.53510000  0.79680000  0.1667 0.0839451434
C  C19  1  0.78350000  0.20320000  0.53510000  0.1667 0.0839451434
C  C20  1  0.21650000  0.79680000  0.53510000  0.1667 0.0839451434
C  C21  1  0.79680000  0.46490000  0.78350000  0.1667 0.0839451434
C  C22  1  0.79680000  0.53510000  0.21650000  0.1667 0.0839451434
C  C23  1  0.46490000  0.21650000  0.20320000  0.1667 0.0839451434
C  C24  1  0.53510000  0.21650000  0.79680000  0.1667 0.0839451434
C  C25  1  0.20320000  0.28350000  0.96490000  0.1667 0.0839451434
C  C26  1  0.21650000  0.70320000  0.96490000  0.1667 0.0839451434
C  C27  1  0.79680000  0.71650000  0.96490000  0.1667 0.0839451434
C  C28  1  0.78350000  0.29680000  0.96490000  0.1667 0.0839451434
C  C29  1  0.20320000  0.03510000  0.28350000  0.1667 0.0839451434
C  C30  1  0.20320000  0.71650000  0.03510000  0.1667 0.0839451434
C  C31  1  0.20320000  0.96490000  0.71650000  0.1667 0.0839451434
C  C32  1  0.46490000  0.28350000  0.29680000  0.1667 0.0839451434
C  C33  1  0.79680000  0.28350000  0.03510000  0.1667 0.0839451434
C  C34  1  0.53510000  0.28350000  0.70320000  0.1667 0.0839451434
C  C35  1  0.46490000  0.70320000  0.28350000  0.1667 0.0839451434
C  C36  1  0.78350000  0.96490000  0.70320000  0.1667 0.0839451434
C  C37  1  0.21650000  0.03510000  0.70320000  0.1667 0.0839451434
C  C38  1  0.46490000  0.29680000  0.71650000  0.1667 0.0839451434
C  C39  1  0.21650000  0.96490000  0.29680000  0.1667 0.0839451434
C  C40  1  0.53510000  0.29680000  0.28350000  0.1667 0.0839451434
C  C41  1  0.53510000  0.70320000  0.71650000  0.1667 0.0839451434
C  C42  1  0.78350000  0.03510000  0.29680000  0.1667 0.0839451434
C  C43  1  0.78350000  0.70320000  0.03510000  0.1667 0.0839451434
C  C44  1  0.21650000  0.29680000  0.03510000  0.1667 0.0839451434
C  C45  1  0.79680000  0.96490000  0.28350000  0.1667 0.0839451434
C  C46  1  0.79680000  0.03510000  0.71650000  0.1667 0.0839451434
C  C47  1  0.46490000  0.71650000  0.70320000  0.1667 0.0839451434
C  C48  1  0.53510000  0.71650000  0.29680000  0.1667 0.0839451434
C  C49  1  0.70320000  0.78350000  0.96490000  0.1667 0.0839451434
C  C50  1  0.71650000  0.20320000  0.96490000  0.1667 0.0839451434
C  C51  1  0.29680000  0.21650000  0.96490000  0.1667 0.0839451434
C  C52  1  0.28350000  0.79680000  0.96490000  0.1667 0.0839451434
C  C53  1  0.70320000  0.53510000  0.28350000  0.1667 0.0839451434
C  C54  1  0.70320000  0.21650000  0.03510000  0.1667 0.0839451434
C  C55  1  0.70320000  0.46490000  0.71650000  0.1667 0.0839451434
C  C56  1  0.96490000  0.78350000  0.29680000  0.1667 0.0839451434
C  C57  1  0.29680000  0.78350000  0.03510000  0.1667 0.0839451434
C  C58  1  0.03510000  0.78350000  0.70320000  0.1667 0.0839451434
C  C59  1  0.96490000  0.20320000  0.28350000  0.1667 0.0839451434
C  C60  1  0.28350000  0.46490000  0.70320000  0.1667 0.0839451434
C  C61  1  0.71650000  0.53510000  0.70320000  0.1667 0.0839451434
C  C62  1  0.96490000  0.79680000  0.71650000  0.1667 0.0839451434
C  C63  1  0.71650000  0.46490000  0.29680000  0.1667 0.0839451434
C  C64  1  0.03510000  0.79680000  0.28350000  0.1667 0.0839451434
C  C65  1  0.03510000  0.20320000  0.71650000  0.1667 0.0839451434
C  C66  1  0.28350000  0.53510000  0.29680000  0.1667 0.0839451434
C  C67  1  0.28350000  0.20320000  0.03510000  0.1667 0.0839451434
C  C68  1  0.71650000  0.79680000  0.03510000  0.1667 0.0839451434
C  C69  1  0.29680000  0.46490000  0.28350000  0.1667 0.0839451434
C  C70  1  0.29680000  0.53510000  0.71650000  0.1667 0.0839451434
C  C71  1  0.96490000  0.21650000  0.70320000  0.1667 0.0839451434
C  C72  1  0.03510000  0.21650000  0.29680000  0.1667 0.0839451434
C  C73  1  0.70320000  0.28350000  0.46490000  0.1667 0.0839451434
C  C74  1  0.71650000  0.70320000  0.46490000  0.1667 0.0839451434
C  C75  1  0.29680000  0.71650000  0.46490000  0.1667 0.0839451434
C  C76  1  0.28350000  0.29680000  0.46490000  0.1667 0.0839451434
C  C77  1  0.70320000  0.03510000  0.78350000  0.1667 0.0839451434
C  C78  1  0.70320000  0.71650000  0.53510000  0.1667 0.0839451434
C  C79  1  0.70320000  0.96490000  0.21650000  0.1667 0.0839451434
C  C80  1  0.96490000  0.28350000  0.79680000  0.1667 0.0839451434
C  C81  1  0.29680000  0.28350000  0.53510000  0.1667 0.0839451434
C  C82  1  0.03510000  0.28350000  0.20320000  0.1667 0.0839451434
C  C83  1  0.96490000  0.70320000  0.78350000  0.1667 0.0839451434
C  C84  1  0.28350000  0.96490000  0.20320000  0.1667 0.0839451434
C  C85  1  0.71650000  0.03510000  0.20320000  0.1667 0.0839451434
C  C86  1  0.96490000  0.29680000  0.21650000  0.1667 0.0839451434
C  C87  1  0.71650000  0.96490000  0.79680000  0.1667 0.0839451434
C  C88  1  0.03510000  0.29680000  0.78350000  0.1667 0.0839451434
C  C89  1  0.03510000  0.70320000  0.21650000  0.1667 0.0839451434
C  C90  1  0.28350000  0.03510000  0.79680000  0.1667 0.0839451434
C  C91  1  0.28350000  0.70320000  0.53510000  0.1667 0.0839451434
C  C92  1  0.71650000  0.29680000  0.53510000  0.1667 0.0839451434
C  C93  1  0.29680000  0.96490000  0.78350000  0.1667 0.0839451434
C  C94  1  0.29680000  0.03510000  0.21650000  0.1667 0.0839451434
C  C95  1  0.96490000  0.71650000  0.20320000  0.1667 0.0839451434
C  C96  1  0.03510000  0.71650000  0.79680000  0.1667 0.0839451434
C  C97  1  0.79680000  0.21650000  0.53510000  0.1667 0.0839451434
C  C98  1  0.78350000  0.79680000  0.53510000  0.1667 0.0839451434
C  C99  1  0.20320000  0.78350000  0.53510000  0.1667 0.0839451434
C  C100  1  0.21650000  0.20320000  0.53510000  0.1667 0.0839451434
C  C101  1  0.79680000  0.46490000  0.21650000  0.1667 0.0839451434
C  C102  1  0.79680000  0.78350000  0.46490000  0.1667 0.0839451434
C  C103  1  0.79680000  0.53510000  0.78350000  0.1667 0.0839451434
C  C104  1  0.53510000  0.21650000  0.20320000  0.1667 0.0839451434
C  C105  1  0.20320000  0.21650000  0.46490000  0.1667 0.0839451434
C  C106  1  0.46490000  0.21650000  0.79680000  0.1667 0.0839451434
C  C107  1  0.53510000  0.79680000  0.21650000  0.1667 0.0839451434
C  C108  1  0.21650000  0.53510000  0.79680000  0.1667 0.0839451434
C  C109  1  0.78350000  0.46490000  0.79680000  0.1667 0.0839451434
C  C110  1  0.53510000  0.20320000  0.78350000  0.1667 0.0839451434
C  C111  1  0.78350000  0.53510000  0.20320000  0.1667 0.0839451434
C  C112  1  0.46490000  0.20320000  0.21650000  0.1667 0.0839451434
C  C113  1  0.46490000  0.79680000  0.78350000  0.1667 0.0839451434
C  C114  1  0.21650000  0.46490000  0.20320000  0.1667 0.0839451434
C  C115  1  0.21650000  0.79680000  0.46490000  0.1667 0.0839451434
C  C116  1  0.78350000  0.20320000  0.46490000  0.1667 0.0839451434
C  C117  1  0.20320000  0.53510000  0.21650000  0.1667 0.0839451434
C  C118  1  0.20320000  0.46490000  0.78350000  0.1667 0.0839451434
C  C119  1  0.53510000  0.78350000  0.79680000  0.1667 0.0839451434
C  C120  1  0.46490000  0.78350000  0.20320000  0.1667 0.0839451434
C  C121  1  0.79680000  0.71650000  0.03510000  0.1667 0.0839451434
C  C122  1  0.78350000  0.29680000  0.03510000  0.1667 0.0839451434
C  C123  1  0.20320000  0.28350000  0.03510000  0.1667 0.0839451434
C  C124  1  0.21650000  0.70320000  0.03510000  0.1667 0.0839451434
C  C125  1  0.79680000  0.96490000  0.71650000  0.1667 0.0839451434
C  C126  1  0.79680000  0.28350000  0.96490000  0.1667 0.0839451434
C  C127  1  0.79680000  0.03510000  0.28350000  0.1667 0.0839451434
C  C128  1  0.53510000  0.71650000  0.70320000  0.1667 0.0839451434
C  C129  1  0.20320000  0.71650000  0.96490000  0.1667 0.0839451434
C  C130  1  0.46490000  0.71650000  0.29680000  0.1667 0.0839451434
C  C131  1  0.53510000  0.29680000  0.71650000  0.1667 0.0839451434
C  C132  1  0.21650000  0.03510000  0.29680000  0.1667 0.0839451434
C  C133  1  0.78350000  0.96490000  0.29680000  0.1667 0.0839451434
C  C134  1  0.53510000  0.70320000  0.28350000  0.1667 0.0839451434
C  C135  1  0.78350000  0.03510000  0.70320000  0.1667 0.0839451434
C  C136  1  0.46490000  0.70320000  0.71650000  0.1667 0.0839451434
C  C137  1  0.46490000  0.29680000  0.28350000  0.1667 0.0839451434
C  C138  1  0.21650000  0.96490000  0.70320000  0.1667 0.0839451434
C  C139  1  0.21650000  0.29680000  0.96490000  0.1667 0.0839451434
C  C140  1  0.78350000  0.70320000  0.96490000  0.1667 0.0839451434
C  C141  1  0.20320000  0.03510000  0.71650000  0.1667 0.0839451434
C  C142  1  0.20320000  0.96490000  0.28350000  0.1667 0.0839451434
C  C143  1  0.53510000  0.28350000  0.29680000  0.1667 0.0839451434
C  C144  1  0.46490000  0.28350000  0.70320000  0.1667 0.0839451434
C  C145  1  0.29680000  0.21650000  0.03510000  0.1667 0.0839451434
C  C146  1  0.28350000  0.79680000  0.03510000  0.1667 0.0839451434
C  C147  1  0.70320000  0.78350000  0.03510000  0.1667 0.0839451434
C  C148  1  0.71650000  0.20320000  0.03510000  0.1667 0.0839451434
C  C149  1  0.29680000  0.46490000  0.71650000  0.1667 0.0839451434
C  C150  1  0.29680000  0.78350000  0.96490000  0.1667 0.0839451434
C  C151  1  0.29680000  0.53510000  0.28350000  0.1667 0.0839451434
C  C152  1  0.03510000  0.21650000  0.70320000  0.1667 0.0839451434
C  C153  1  0.70320000  0.21650000  0.96490000  0.1667 0.0839451434
C  C154  1  0.96490000  0.21650000  0.29680000  0.1667 0.0839451434
C  C155  1  0.03510000  0.79680000  0.71650000  0.1667 0.0839451434
C  C156  1  0.71650000  0.53510000  0.29680000  0.1667 0.0839451434
C  C157  1  0.28350000  0.46490000  0.29680000  0.1667 0.0839451434
C  C158  1  0.03510000  0.20320000  0.28350000  0.1667 0.0839451434
C  C159  1  0.28350000  0.53510000  0.70320000  0.1667 0.0839451434
C  C160  1  0.96490000  0.20320000  0.71650000  0.1667 0.0839451434
C  C161  1  0.96490000  0.79680000  0.28350000  0.1667 0.0839451434
C  C162  1  0.71650000  0.46490000  0.70320000  0.1667 0.0839451434
C  C163  1  0.71650000  0.79680000  0.96490000  0.1667 0.0839451434
C  C164  1  0.28350000  0.20320000  0.96490000  0.1667 0.0839451434
C  C165  1  0.70320000  0.53510000  0.71650000  0.1667 0.0839451434
C  C166  1  0.70320000  0.46490000  0.28350000  0.1667 0.0839451434
C  C167  1  0.03510000  0.78350000  0.29680000  0.1667 0.0839451434
C  C168  1  0.96490000  0.78350000  0.70320000  0.1667 0.0839451434
C  C169  1  0.29680000  0.71650000  0.53510000  0.1667 0.0839451434
C  C170  1  0.28350000  0.29680000  0.53510000  0.1667 0.0839451434
C  C171  1  0.70320000  0.28350000  0.53510000  0.1667 0.0839451434
C  C172  1  0.71650000  0.70320000  0.53510000  0.1667 0.0839451434
C  C173  1  0.29680000  0.96490000  0.21650000  0.1667 0.0839451434
C  C174  1  0.29680000  0.28350000  0.46490000  0.1667 0.0839451434
C  C175  1  0.29680000  0.03510000  0.78350000  0.1667 0.0839451434
C  C176  1  0.03510000  0.71650000  0.20320000  0.1667 0.0839451434
C  C177  1  0.70320000  0.71650000  0.46490000  0.1667 0.0839451434
C  C178  1  0.96490000  0.71650000  0.79680000  0.1667 0.0839451434
C  C179  1  0.03510000  0.29680000  0.21650000  0.1667 0.0839451434
C  C180  1  0.71650000  0.03510000  0.79680000  0.1667 0.0839451434
C  C181  1  0.28350000  0.96490000  0.79680000  0.1667 0.0839451434
C  C182  1  0.03510000  0.70320000  0.78350000  0.1667 0.0839451434
C  C183  1  0.28350000  0.03510000  0.20320000  0.1667 0.0839451434
C  C184  1  0.96490000  0.70320000  0.21650000  0.1667 0.0839451434
C  C185  1  0.96490000  0.29680000  0.78350000  0.1667 0.0839451434
C  C186  1  0.71650000  0.96490000  0.20320000  0.1667 0.0839451434
C  C187  1  0.71650000  0.29680000  0.46490000  0.1667 0.0839451434
C  C188  1  0.28350000  0.70320000  0.46490000  0.1667 0.0839451434
C  C189  1  0.70320000  0.03510000  0.21650000  0.1667 0.0839451434
C  C190  1  0.70320000  0.96490000  0.78350000  0.1667 0.0839451434
C  C191  1  0.03510000  0.28350000  0.79680000  0.1667 0.0839451434
C  C192  1  0.96490000  0.28350000  0.20320000  0.1667 0.0839451434
C  C193  1  0.25060000  0.74640000  0.50160000  0.1667 -0.1339829442
C  C194  1  0.25360000  0.25060000  0.50160000  0.1667 -0.1362898916
C  C195  1  0.74940000  0.25360000  0.50160000  0.1667 -0.1362898916
C  C196  1  0.74640000  0.74940000  0.50160000  0.1667 -0.1339829442
C  C197  1  0.25060000  0.49840000  0.74640000  0.1667 -0.1362898916
C  C198  1  0.25060000  0.25360000  0.49840000  0.1667 -0.1362898916
C  C199  1  0.25060000  0.50160000  0.25360000  0.1667 -0.1339829442
C  C200  1  0.50160000  0.74640000  0.74940000  0.1667 -0.1339829442
C  C201  1  0.74940000  0.74640000  0.49840000  0.1667 -0.1339829442
C  C202  1  0.49840000  0.74640000  0.25060000  0.1667 -0.1339829442
C  C203  1  0.50160000  0.25060000  0.74640000  0.1667 -0.1362898916
C  C204  1  0.74640000  0.50160000  0.25060000  0.1667 -0.1339829442
C  C205  1  0.25360000  0.49840000  0.25060000  0.1667 -0.1339829442
C  C206  1  0.50160000  0.74940000  0.25360000  0.1667 -0.1339829442
C  C207  1  0.25360000  0.50160000  0.74940000  0.1667 -0.1362898916
C  C208  1  0.49840000  0.74940000  0.74640000  0.1667 -0.1339829442
C  C209  1  0.49840000  0.25060000  0.25360000  0.1667 -0.1339829442
C  C210  1  0.74640000  0.49840000  0.74940000  0.1667 -0.1362898916
C  C211  1  0.74640000  0.25060000  0.49840000  0.1667 -0.1362898916
C  C212  1  0.25360000  0.74940000  0.49840000  0.1667 -0.1339829442
C  C213  1  0.74940000  0.50160000  0.74640000  0.1667 -0.1362898916
C  C214  1  0.74940000  0.49840000  0.25360000  0.1667 -0.1339829442
C  C215  1  0.50160000  0.25360000  0.25060000  0.1667 -0.1339829442
C  C216  1  0.49840000  0.25360000  0.74940000  0.1667 -0.1362898916
C  C217  1  0.25060000  0.24640000  0.00160000  0.1667 -0.1339829442
C  C218  1  0.25360000  0.75060000  0.00160000  0.1667 -0.1339829442
C  C219  1  0.74940000  0.75360000  0.00160000  0.1667 -0.1339829442
C  C220  1  0.74640000  0.24940000  0.00160000  0.1667 -0.1339829442
C  C221  1  0.25060000  0.99840000  0.24640000  0.1667 -0.1339829442
C  C222  1  0.25060000  0.75360000  0.99840000  0.1667 -0.1339829442
C  C223  1  0.25060000  0.00160000  0.75360000  0.1667 -0.1362898916
C  C224  1  0.50160000  0.24640000  0.24940000  0.1667 -0.1339829442
C  C225  1  0.74940000  0.24640000  0.99840000  0.1667 -0.1362898916
C  C226  1  0.49840000  0.24640000  0.75060000  0.1667 -0.1362898916
C  C227  1  0.50160000  0.75060000  0.24640000  0.1667 -0.1339829442
C  C228  1  0.74640000  0.00160000  0.75060000  0.1667 -0.1362898916
C  C229  1  0.25360000  0.99840000  0.75060000  0.1667 -0.1339829442
C  C230  1  0.50160000  0.24940000  0.75360000  0.1667 -0.1362898916
C  C231  1  0.25360000  0.00160000  0.24940000  0.1667 -0.1339829442
C  C232  1  0.49840000  0.24940000  0.24640000  0.1667 -0.1339829442
C  C233  1  0.49840000  0.75060000  0.75360000  0.1667 -0.1339829442
C  C234  1  0.74640000  0.99840000  0.24940000  0.1667 -0.1339829442
C  C235  1  0.74640000  0.75060000  0.99840000  0.1667 -0.1362898916
C  C236  1  0.25360000  0.24940000  0.99840000  0.1667 -0.1362898916
C  C237  1  0.74940000  0.00160000  0.24640000  0.1667 -0.1339829442
C  C238  1  0.74940000  0.99840000  0.75360000  0.1667 -0.1362898916
C  C239  1  0.50160000  0.75360000  0.75060000  0.1667 -0.1339829442
C  C240  1  0.49840000  0.75360000  0.24940000  0.1667 -0.1339829442
C  C241  1  0.75060000  0.74640000  0.00160000  0.1667 -0.1339829442
C  C242  1  0.75360000  0.25060000  0.00160000  0.1667 -0.1339829442
C  C243  1  0.24940000  0.25360000  0.00160000  0.1667 -0.1339829442
C  C244  1  0.24640000  0.74940000  0.00160000  0.1667 -0.1339829442
C  C245  1  0.75060000  0.49840000  0.24640000  0.1667 -0.1339829442
C  C246  1  0.75060000  0.25360000  0.99840000  0.1667 -0.1362898916
C  C247  1  0.75060000  0.50160000  0.75360000  0.1667 -0.1362898916
C  C248  1  0.00160000  0.74640000  0.24940000  0.1667 -0.1339829442
C  C249  1  0.24940000  0.74640000  0.99840000  0.1667 -0.1339829442
C  C250  1  0.99840000  0.74640000  0.75060000  0.1667 -0.1339829442
C  C251  1  0.00160000  0.25060000  0.24640000  0.1667 -0.1339829442
C  C252  1  0.24640000  0.50160000  0.75060000  0.1667 -0.1362898916
C  C253  1  0.75360000  0.49840000  0.75060000  0.1667 -0.1362898916
C  C254  1  0.00160000  0.74940000  0.75360000  0.1667 -0.1339829442
C  C255  1  0.75360000  0.50160000  0.24940000  0.1667 -0.1339829442
C  C256  1  0.99840000  0.74940000  0.24640000  0.1667 -0.1339829442
C  C257  1  0.99840000  0.25060000  0.75360000  0.1667 -0.1362898916
C  C258  1  0.24640000  0.49840000  0.24940000  0.1667 -0.1339829442
C  C259  1  0.24640000  0.25060000  0.99840000  0.1667 -0.1362898916
C  C260  1  0.75360000  0.74940000  0.99840000  0.1667 -0.1362898916
C  C261  1  0.24940000  0.50160000  0.24640000  0.1667 -0.1339829442
C  C262  1  0.24940000  0.49840000  0.75360000  0.1667 -0.1362898916
C  C263  1  0.00160000  0.25360000  0.75060000  0.1667 -0.1362898916
C  C264  1  0.99840000  0.25360000  0.24940000  0.1667 -0.1339829442
C  C265  1  0.75060000  0.24640000  0.50160000  0.1667 -0.1362898916
C  C266  1  0.75360000  0.75060000  0.50160000  0.1667 -0.1339829442
C  C267  1  0.24940000  0.75360000  0.50160000  0.1667 -0.1339829442
C  C268  1  0.24640000  0.24940000  0.50160000  0.1667 -0.1362898916
C  C269  1  0.75060000  0.99840000  0.74640000  0.1667 -0.1362898916
C  C270  1  0.75060000  0.75360000  0.49840000  0.1667 -0.1339829442
C  C271  1  0.75060000  0.00160000  0.25360000  0.1667 -0.1339829442
C  C272  1  0.00160000  0.24640000  0.74940000  0.1667 -0.1362898916
C  C273  1  0.24940000  0.24640000  0.49840000  0.1667 -0.1362898916
C  C274  1  0.99840000  0.24640000  0.25060000  0.1667 -0.1339829442
C  C275  1  0.00160000  0.75060000  0.74640000  0.1667 -0.1339829442
C  C276  1  0.24640000  0.00160000  0.25060000  0.1667 -0.1339829442
C  C277  1  0.75360000  0.99840000  0.25060000  0.1667 -0.1339829442
C  C278  1  0.00160000  0.24940000  0.25360000  0.1667 -0.1362898916
C  C279  1  0.75360000  0.00160000  0.74940000  0.1667 -0.1362898916
C  C280  1  0.99840000  0.24940000  0.74640000  0.1667 -0.1362898916
C  C281  1  0.99840000  0.75060000  0.25360000  0.1667 -0.1339829442
C  C282  1  0.24640000  0.99840000  0.74940000  0.1667 -0.1339829442
C  C283  1  0.24640000  0.75060000  0.49840000  0.1667 -0.1339829442
C  C284  1  0.75360000  0.24940000  0.49840000  0.1667 -0.1362898916
C  C285  1  0.24940000  0.00160000  0.74640000  0.1667 -0.1362898916
C  C286  1  0.24940000  0.99840000  0.25360000  0.1667 -0.1339829442
C  C287  1  0.00160000  0.75360000  0.25060000  0.1667 -0.1339829442
C  C288  1  0.99840000  0.75360000  0.74940000  0.1667 -0.1339829442
C  C289  1  0.74940000  0.25360000  0.49840000  0.1667 -0.1362898916
C  C290  1  0.74640000  0.74940000  0.49840000  0.1667 -0.1339829442
C  C291  1  0.25060000  0.74640000  0.49840000  0.1667 -0.1339829442
C  C292  1  0.25360000  0.25060000  0.49840000  0.1667 -0.1362898916
C  C293  1  0.74940000  0.50160000  0.25360000  0.1667 -0.1339829442
C  C294  1  0.74940000  0.74640000  0.50160000  0.1667 -0.1339829442
C  C295  1  0.74940000  0.49840000  0.74640000  0.1667 -0.1362898916
C  C296  1  0.49840000  0.25360000  0.25060000  0.1667 -0.1339829442
C  C297  1  0.25060000  0.25360000  0.50160000  0.1667 -0.1362898916
C  C298  1  0.50160000  0.25360000  0.74940000  0.1667 -0.1362898916
C  C299  1  0.49840000  0.74940000  0.25360000  0.1667 -0.1339829442
C  C300  1  0.25360000  0.49840000  0.74940000  0.1667 -0.1362898916
C  C301  1  0.74640000  0.50160000  0.74940000  0.1667 -0.1362898916
C  C302  1  0.49840000  0.25060000  0.74640000  0.1667 -0.1362898916
C  C303  1  0.74640000  0.49840000  0.25060000  0.1667 -0.1339829442
C  C304  1  0.50160000  0.25060000  0.25360000  0.1667 -0.1339829442
C  C305  1  0.50160000  0.74940000  0.74640000  0.1667 -0.1339829442
C  C306  1  0.25360000  0.50160000  0.25060000  0.1667 -0.1339829442
C  C307  1  0.25360000  0.74940000  0.50160000  0.1667 -0.1339829442
C  C308  1  0.74640000  0.25060000  0.50160000  0.1667 -0.1362898916
C  C309  1  0.25060000  0.49840000  0.25360000  0.1667 -0.1339829442
C  C310  1  0.25060000  0.50160000  0.74640000  0.1667 -0.1362898916
C  C311  1  0.49840000  0.74640000  0.74940000  0.1667 -0.1339829442
C  C312  1  0.50160000  0.74640000  0.25060000  0.1667 -0.1339829442
C  C313  1  0.74940000  0.75360000  0.99840000  0.1667 -0.1362898916
C  C314  1  0.74640000  0.24940000  0.99840000  0.1667 -0.1362898916
C  C315  1  0.25060000  0.24640000  0.99840000  0.1667 -0.1362898916
C  C316  1  0.25360000  0.75060000  0.99840000  0.1667 -0.1339829442
C  C317  1  0.74940000  0.00160000  0.75360000  0.1667 -0.1362898916
C  C318  1  0.74940000  0.24640000  0.00160000  0.1667 -0.1339829442
C  C319  1  0.74940000  0.99840000  0.24640000  0.1667 -0.1339829442
C  C320  1  0.49840000  0.75360000  0.75060000  0.1667 -0.1339829442
C  C321  1  0.25060000  0.75360000  0.00160000  0.1667 -0.1339829442
C  C322  1  0.50160000  0.75360000  0.24940000  0.1667 -0.1339829442
C  C323  1  0.49840000  0.24940000  0.75360000  0.1667 -0.1362898916
C  C324  1  0.25360000  0.99840000  0.24940000  0.1667 -0.1339829442
C  C325  1  0.74640000  0.00160000  0.24940000  0.1667 -0.1339829442
C  C326  1  0.49840000  0.75060000  0.24640000  0.1667 -0.1339829442
C  C327  1  0.74640000  0.99840000  0.75060000  0.1667 -0.1362898916
C  C328  1  0.50160000  0.75060000  0.75360000  0.1667 -0.1339829442
C  C329  1  0.50160000  0.24940000  0.24640000  0.1667 -0.1339829442
C  C330  1  0.25360000  0.00160000  0.75060000  0.1667 -0.1362898916
C  C331  1  0.25360000  0.24940000  0.00160000  0.1667 -0.1339829442
C  C332  1  0.74640000  0.75060000  0.00160000  0.1667 -0.1339829442
C  C333  1  0.25060000  0.99840000  0.75360000  0.1667 -0.1339829442
C  C334  1  0.25060000  0.00160000  0.24640000  0.1667 -0.1339829442
C  C335  1  0.49840000  0.24640000  0.24940000  0.1667 -0.1339829442
C  C336  1  0.50160000  0.24640000  0.75060000  0.1667 -0.1362898916
C  C337  1  0.24940000  0.25360000  0.99840000  0.1667 -0.1362898916
C  C338  1  0.24640000  0.74940000  0.99840000  0.1667 -0.1339829442
C  C339  1  0.75060000  0.74640000  0.99840000  0.1667 -0.1362898916
C  C340  1  0.75360000  0.25060000  0.99840000  0.1667 -0.1362898916
C  C341  1  0.24940000  0.50160000  0.75360000  0.1667 -0.1362898916
C  C342  1  0.24940000  0.74640000  0.00160000  0.1667 -0.1339829442
C  C343  1  0.24940000  0.49840000  0.24640000  0.1667 -0.1339829442
C  C344  1  0.99840000  0.25360000  0.75060000  0.1667 -0.1362898916
C  C345  1  0.75060000  0.25360000  0.00160000  0.1667 -0.1339829442
C  C346  1  0.00160000  0.25360000  0.24940000  0.1667 -0.1339829442
C  C347  1  0.99840000  0.74940000  0.75360000  0.1667 -0.1339829442
C  C348  1  0.75360000  0.49840000  0.24940000  0.1667 -0.1339829442
C  C349  1  0.24640000  0.50160000  0.24940000  0.1667 -0.1339829442
C  C350  1  0.99840000  0.25060000  0.24640000  0.1667 -0.1339829442
C  C351  1  0.24640000  0.49840000  0.75060000  0.1667 -0.1362898916
C  C352  1  0.00160000  0.25060000  0.75360000  0.1667 -0.1362898916
C  C353  1  0.00160000  0.74940000  0.24640000  0.1667 -0.1339829442
C  C354  1  0.75360000  0.50160000  0.75060000  0.1667 -0.1362898916
C  C355  1  0.75360000  0.74940000  0.00160000  0.1667 -0.1339829442
C  C356  1  0.24640000  0.25060000  0.00160000  0.1667 -0.1339829442
C  C357  1  0.75060000  0.49840000  0.75360000  0.1667 -0.1362898916
C  C358  1  0.75060000  0.50160000  0.24640000  0.1667 -0.1339829442
C  C359  1  0.99840000  0.74640000  0.24940000  0.1667 -0.1339829442
C  C360  1  0.00160000  0.74640000  0.75060000  0.1667 -0.1339829442
C  C361  1  0.24940000  0.75360000  0.49840000  0.1667 -0.1339829442
C  C362  1  0.24640000  0.24940000  0.49840000  0.1667 -0.1362898916
C  C363  1  0.75060000  0.24640000  0.49840000  0.1667 -0.1362898916
C  C364  1  0.75360000  0.75060000  0.49840000  0.1667 -0.1339829442
C  C365  1  0.24940000  0.00160000  0.25360000  0.1667 -0.1339829442
C  C366  1  0.24940000  0.24640000  0.50160000  0.1667 -0.1362898916
C  C367  1  0.24940000  0.99840000  0.74640000  0.1667 -0.1339829442
C  C368  1  0.99840000  0.75360000  0.25060000  0.1667 -0.1339829442
C  C369  1  0.75060000  0.75360000  0.50160000  0.1667 -0.1339829442
C  C370  1  0.00160000  0.75360000  0.74940000  0.1667 -0.1339829442
C  C371  1  0.99840000  0.24940000  0.25360000  0.1667 -0.1339829442
C  C372  1  0.75360000  0.99840000  0.74940000  0.1667 -0.1362898916
C  C373  1  0.24640000  0.00160000  0.74940000  0.1667 -0.1362898916
C  C374  1  0.99840000  0.75060000  0.74640000  0.1667 -0.1339829442
C  C375  1  0.24640000  0.99840000  0.25060000  0.1667 -0.1339829442
C  C376  1  0.00160000  0.75060000  0.25360000  0.1667 -0.1339829442
C  C377  1  0.00160000  0.24940000  0.74640000  0.1667 -0.1362898916
C  C378  1  0.75360000  0.00160000  0.25060000  0.1667 -0.1339829442
C  C379  1  0.75360000  0.24940000  0.50160000  0.1667 -0.1362898916
C  C380  1  0.24640000  0.75060000  0.50160000  0.1667 -0.1339829442
C  C381  1  0.75060000  0.99840000  0.25360000  0.1667 -0.1339829442
C  C382  1  0.75060000  0.00160000  0.74640000  0.1667 -0.1362898916
C  C383  1  0.99840000  0.24640000  0.74940000  0.1667 -0.1362898916
C  C384  1  0.00160000  0.24640000  0.25060000  0.1667 -0.1362898916
C  C385  1  0.28940000  0.70940000  0.45590000  0.1667 0.0938344447
C  C386  1  0.29060000  0.28940000  0.45590000  0.1667 0.0938344447
C  C387  1  0.71060000  0.29060000  0.45590000  0.1667 0.0938344447
C  C388  1  0.70940000  0.71060000  0.45590000  0.1667 0.0938344447
C  C389  1  0.28940000  0.54410000  0.70940000  0.1667 0.0938344447
C  C390  1  0.28940000  0.29060000  0.54410000  0.1667 0.0938344447
C  C391  1  0.28940000  0.45590000  0.29060000  0.1667 0.0938344447
C  C392  1  0.45590000  0.70940000  0.71060000  0.1667 0.0938344447
C  C393  1  0.71060000  0.70940000  0.54410000  0.1667 0.0938344447
C  C394  1  0.54410000  0.70940000  0.28940000  0.1667 0.0938344447
C  C395  1  0.45590000  0.28940000  0.70940000  0.1667 0.0938344447
C  C396  1  0.70940000  0.45590000  0.28940000  0.1667 0.0938344447
C  C397  1  0.29060000  0.54410000  0.28940000  0.1667 0.0938344447
C  C398  1  0.45590000  0.71060000  0.29060000  0.1667 0.0938344447
C  C399  1  0.29060000  0.45590000  0.71060000  0.1667 0.0938344447
C  C400  1  0.54410000  0.71060000  0.70940000  0.1667 0.0938344447
C  C401  1  0.54410000  0.28940000  0.29060000  0.1667 0.0938344447
C  C402  1  0.70940000  0.54410000  0.71060000  0.1667 0.0938344447
C  C403  1  0.70940000  0.28940000  0.54410000  0.1667 0.0938344447
C  C404  1  0.29060000  0.71060000  0.54410000  0.1667 0.0938344447
C  C405  1  0.71060000  0.45590000  0.70940000  0.1667 0.0938344447
C  C406  1  0.71060000  0.54410000  0.29060000  0.1667 0.0938344447
C  C407  1  0.45590000  0.29060000  0.28940000  0.1667 0.0938344447
C  C408  1  0.54410000  0.29060000  0.71060000  0.1667 0.0938344447
C  C409  1  0.28940000  0.20940000  0.95590000  0.1667 0.0938344447
C  C410  1  0.29060000  0.78940000  0.95590000  0.1667 0.0938344447
C  C411  1  0.71060000  0.79060000  0.95590000  0.1667 0.0938344447
C  C412  1  0.70940000  0.21060000  0.95590000  0.1667 0.0938344447
C  C413  1  0.28940000  0.04410000  0.20940000  0.1667 0.0938344447
C  C414  1  0.28940000  0.79060000  0.04410000  0.1667 0.0938344447
C  C415  1  0.28940000  0.95590000  0.79060000  0.1667 0.0938344447
C  C416  1  0.45590000  0.20940000  0.21060000  0.1667 0.0938344447
C  C417  1  0.71060000  0.20940000  0.04410000  0.1667 0.0938344447
C  C418  1  0.54410000  0.20940000  0.78940000  0.1667 0.0938344447
C  C419  1  0.45590000  0.78940000  0.20940000  0.1667 0.0938344447
C  C420  1  0.70940000  0.95590000  0.78940000  0.1667 0.0938344447
C  C421  1  0.29060000  0.04410000  0.78940000  0.1667 0.0938344447
C  C422  1  0.45590000  0.21060000  0.79060000  0.1667 0.0938344447
C  C423  1  0.29060000  0.95590000  0.21060000  0.1667 0.0938344447
C  C424  1  0.54410000  0.21060000  0.20940000  0.1667 0.0938344447
C  C425  1  0.54410000  0.78940000  0.79060000  0.1667 0.0938344447
C  C426  1  0.70940000  0.04410000  0.21060000  0.1667 0.0938344447
C  C427  1  0.70940000  0.78940000  0.04410000  0.1667 0.0938344447
C  C428  1  0.29060000  0.21060000  0.04410000  0.1667 0.0938344447
C  C429  1  0.71060000  0.95590000  0.20940000  0.1667 0.0938344447
C  C430  1  0.71060000  0.04410000  0.79060000  0.1667 0.0938344447
C  C431  1  0.45590000  0.79060000  0.78940000  0.1667 0.0938344447
C  C432  1  0.54410000  0.79060000  0.21060000  0.1667 0.0938344447
C  C433  1  0.78940000  0.70940000  0.95590000  0.1667 0.0938344447
C  C434  1  0.79060000  0.28940000  0.95590000  0.1667 0.0938344447
C  C435  1  0.21060000  0.29060000  0.95590000  0.1667 0.0938344447
C  C436  1  0.20940000  0.71060000  0.95590000  0.1667 0.0938344447
C  C437  1  0.78940000  0.54410000  0.20940000  0.1667 0.0938344447
C  C438  1  0.78940000  0.29060000  0.04410000  0.1667 0.0938344447
C  C439  1  0.78940000  0.45590000  0.79060000  0.1667 0.0938344447
C  C440  1  0.95590000  0.70940000  0.21060000  0.1667 0.0938344447
C  C441  1  0.21060000  0.70940000  0.04410000  0.1667 0.0938344447
C  C442  1  0.04410000  0.70940000  0.78940000  0.1667 0.0938344447
C  C443  1  0.95590000  0.28940000  0.20940000  0.1667 0.0938344447
C  C444  1  0.20940000  0.45590000  0.78940000  0.1667 0.0938344447
C  C445  1  0.79060000  0.54410000  0.78940000  0.1667 0.0938344447
C  C446  1  0.95590000  0.71060000  0.79060000  0.1667 0.0938344447
C  C447  1  0.79060000  0.45590000  0.21060000  0.1667 0.0938344447
C  C448  1  0.04410000  0.71060000  0.20940000  0.1667 0.0938344447
C  C449  1  0.04410000  0.28940000  0.79060000  0.1667 0.0938344447
C  C450  1  0.20940000  0.54410000  0.21060000  0.1667 0.0938344447
C  C451  1  0.20940000  0.28940000  0.04410000  0.1667 0.0938344447
C  C452  1  0.79060000  0.71060000  0.04410000  0.1667 0.0938344447
C  C453  1  0.21060000  0.45590000  0.20940000  0.1667 0.0938344447
C  C454  1  0.21060000  0.54410000  0.79060000  0.1667 0.0938344447
C  C455  1  0.95590000  0.29060000  0.78940000  0.1667 0.0938344447
C  C456  1  0.04410000  0.29060000  0.21060000  0.1667 0.0938344447
C  C457  1  0.78940000  0.20940000  0.45590000  0.1667 0.0938344447
C  C458  1  0.79060000  0.78940000  0.45590000  0.1667 0.0938344447
C  C459  1  0.21060000  0.79060000  0.45590000  0.1667 0.0938344447
C  C460  1  0.20940000  0.21060000  0.45590000  0.1667 0.0938344447
C  C461  1  0.78940000  0.04410000  0.70940000  0.1667 0.0938344447
C  C462  1  0.78940000  0.79060000  0.54410000  0.1667 0.0938344447
C  C463  1  0.78940000  0.95590000  0.29060000  0.1667 0.0938344447
C  C464  1  0.95590000  0.20940000  0.71060000  0.1667 0.0938344447
C  C465  1  0.21060000  0.20940000  0.54410000  0.1667 0.0938344447
C  C466  1  0.04410000  0.20940000  0.28940000  0.1667 0.0938344447
C  C467  1  0.95590000  0.78940000  0.70940000  0.1667 0.0938344447
C  C468  1  0.20940000  0.95590000  0.28940000  0.1667 0.0938344447
C  C469  1  0.79060000  0.04410000  0.28940000  0.1667 0.0938344447
C  C470  1  0.95590000  0.21060000  0.29060000  0.1667 0.0938344447
C  C471  1  0.79060000  0.95590000  0.71060000  0.1667 0.0938344447
C  C472  1  0.04410000  0.21060000  0.70940000  0.1667 0.0938344447
C  C473  1  0.04410000  0.78940000  0.29060000  0.1667 0.0938344447
C  C474  1  0.20940000  0.04410000  0.71060000  0.1667 0.0938344447
C  C475  1  0.20940000  0.78940000  0.54410000  0.1667 0.0938344447
C  C476  1  0.79060000  0.21060000  0.54410000  0.1667 0.0938344447
C  C477  1  0.21060000  0.95590000  0.70940000  0.1667 0.0938344447
C  C478  1  0.21060000  0.04410000  0.29060000  0.1667 0.0938344447
C  C479  1  0.95590000  0.79060000  0.28940000  0.1667 0.0938344447
C  C480  1  0.04410000  0.79060000  0.71060000  0.1667 0.0938344447
C  C481  1  0.71060000  0.29060000  0.54410000  0.1667 0.0938344447
C  C482  1  0.70940000  0.71060000  0.54410000  0.1667 0.0938344447
C  C483  1  0.28940000  0.70940000  0.54410000  0.1667 0.0938344447
C  C484  1  0.29060000  0.28940000  0.54410000  0.1667 0.0938344447
C  C485  1  0.71060000  0.45590000  0.29060000  0.1667 0.0938344447
C  C486  1  0.71060000  0.70940000  0.45590000  0.1667 0.0938344447
C  C487  1  0.71060000  0.54410000  0.70940000  0.1667 0.0938344447
C  C488  1  0.54410000  0.29060000  0.28940000  0.1667 0.0938344447
C  C489  1  0.28940000  0.29060000  0.45590000  0.1667 0.0938344447
C  C490  1  0.45590000  0.29060000  0.71060000  0.1667 0.0938344447
C  C491  1  0.54410000  0.71060000  0.29060000  0.1667 0.0938344447
C  C492  1  0.29060000  0.54410000  0.71060000  0.1667 0.0938344447
C  C493  1  0.70940000  0.45590000  0.71060000  0.1667 0.0938344447
C  C494  1  0.54410000  0.28940000  0.70940000  0.1667 0.0938344447
C  C495  1  0.70940000  0.54410000  0.28940000  0.1667 0.0938344447
C  C496  1  0.45590000  0.28940000  0.29060000  0.1667 0.0938344447
C  C497  1  0.45590000  0.71060000  0.70940000  0.1667 0.0938344447
C  C498  1  0.29060000  0.45590000  0.28940000  0.1667 0.0938344447
C  C499  1  0.29060000  0.71060000  0.45590000  0.1667 0.0938344447
C  C500  1  0.70940000  0.28940000  0.45590000  0.1667 0.0938344447
C  C501  1  0.28940000  0.54410000  0.29060000  0.1667 0.0938344447
C  C502  1  0.28940000  0.45590000  0.70940000  0.1667 0.0938344447
C  C503  1  0.54410000  0.70940000  0.71060000  0.1667 0.0938344447
C  C504  1  0.45590000  0.70940000  0.28940000  0.1667 0.0938344447
C  C505  1  0.71060000  0.79060000  0.04410000  0.1667 0.0938344447
C  C506  1  0.70940000  0.21060000  0.04410000  0.1667 0.0938344447
C  C507  1  0.28940000  0.20940000  0.04410000  0.1667 0.0938344447
C  C508  1  0.29060000  0.78940000  0.04410000  0.1667 0.0938344447
C  C509  1  0.71060000  0.95590000  0.79060000  0.1667 0.0938344447
C  C510  1  0.71060000  0.20940000  0.95590000  0.1667 0.0938344447
C  C511  1  0.71060000  0.04410000  0.20940000  0.1667 0.0938344447
C  C512  1  0.54410000  0.79060000  0.78940000  0.1667 0.0938344447
C  C513  1  0.28940000  0.79060000  0.95590000  0.1667 0.0938344447
C  C514  1  0.45590000  0.79060000  0.21060000  0.1667 0.0938344447
C  C515  1  0.54410000  0.21060000  0.79060000  0.1667 0.0938344447
C  C516  1  0.29060000  0.04410000  0.21060000  0.1667 0.0938344447
C  C517  1  0.70940000  0.95590000  0.21060000  0.1667 0.0938344447
C  C518  1  0.54410000  0.78940000  0.20940000  0.1667 0.0938344447
C  C519  1  0.70940000  0.04410000  0.78940000  0.1667 0.0938344447
C  C520  1  0.45590000  0.78940000  0.79060000  0.1667 0.0938344447
C  C521  1  0.45590000  0.21060000  0.20940000  0.1667 0.0938344447
C  C522  1  0.29060000  0.95590000  0.78940000  0.1667 0.0938344447
C  C523  1  0.29060000  0.21060000  0.95590000  0.1667 0.0938344447
C  C524  1  0.70940000  0.78940000  0.95590000  0.1667 0.0938344447
C  C525  1  0.28940000  0.04410000  0.79060000  0.1667 0.0938344447
C  C526  1  0.28940000  0.95590000  0.20940000  0.1667 0.0938344447
C  C527  1  0.54410000  0.20940000  0.21060000  0.1667 0.0938344447
C  C528  1  0.45590000  0.20940000  0.78940000  0.1667 0.0938344447
C  C529  1  0.21060000  0.29060000  0.04410000  0.1667 0.0938344447
C  C530  1  0.20940000  0.71060000  0.04410000  0.1667 0.0938344447
C  C531  1  0.78940000  0.70940000  0.04410000  0.1667 0.0938344447
C  C532  1  0.79060000  0.28940000  0.04410000  0.1667 0.0938344447
C  C533  1  0.21060000  0.45590000  0.79060000  0.1667 0.0938344447
C  C534  1  0.21060000  0.70940000  0.95590000  0.1667 0.0938344447
C  C535  1  0.21060000  0.54410000  0.20940000  0.1667 0.0938344447
C  C536  1  0.04410000  0.29060000  0.78940000  0.1667 0.0938344447
C  C537  1  0.78940000  0.29060000  0.95590000  0.1667 0.0938344447
C  C538  1  0.95590000  0.29060000  0.21060000  0.1667 0.0938344447
C  C539  1  0.04410000  0.71060000  0.79060000  0.1667 0.0938344447
C  C540  1  0.79060000  0.54410000  0.21060000  0.1667 0.0938344447
C  C541  1  0.20940000  0.45590000  0.21060000  0.1667 0.0938344447
C  C542  1  0.04410000  0.28940000  0.20940000  0.1667 0.0938344447
C  C543  1  0.20940000  0.54410000  0.78940000  0.1667 0.0938344447
C  C544  1  0.95590000  0.28940000  0.79060000  0.1667 0.0938344447
C  C545  1  0.95590000  0.71060000  0.20940000  0.1667 0.0938344447
C  C546  1  0.79060000  0.45590000  0.78940000  0.1667 0.0938344447
C  C547  1  0.79060000  0.71060000  0.95590000  0.1667 0.0938344447
C  C548  1  0.20940000  0.28940000  0.95590000  0.1667 0.0938344447
C  C549  1  0.78940000  0.54410000  0.79060000  0.1667 0.0938344447
C  C550  1  0.78940000  0.45590000  0.20940000  0.1667 0.0938344447
C  C551  1  0.04410000  0.70940000  0.21060000  0.1667 0.0938344447
C  C552  1  0.95590000  0.70940000  0.78940000  0.1667 0.0938344447
C  C553  1  0.21060000  0.79060000  0.54410000  0.1667 0.0938344447
C  C554  1  0.20940000  0.21060000  0.54410000  0.1667 0.0938344447
C  C555  1  0.78940000  0.20940000  0.54410000  0.1667 0.0938344447
C  C556  1  0.79060000  0.78940000  0.54410000  0.1667 0.0938344447
C  C557  1  0.21060000  0.95590000  0.29060000  0.1667 0.0938344447
C  C558  1  0.21060000  0.20940000  0.45590000  0.1667 0.0938344447
C  C559  1  0.21060000  0.04410000  0.70940000  0.1667 0.0938344447
C  C560  1  0.04410000  0.79060000  0.28940000  0.1667 0.0938344447
C  C561  1  0.78940000  0.79060000  0.45590000  0.1667 0.0938344447
C  C562  1  0.95590000  0.79060000  0.71060000  0.1667 0.0938344447
C  C563  1  0.04410000  0.21060000  0.29060000  0.1667 0.0938344447
C  C564  1  0.79060000  0.04410000  0.71060000  0.1667 0.0938344447
C  C565  1  0.20940000  0.95590000  0.71060000  0.1667 0.0938344447
C  C566  1  0.04410000  0.78940000  0.70940000  0.1667 0.0938344447
C  C567  1  0.20940000  0.04410000  0.28940000  0.1667 0.0938344447
C  C568  1  0.95590000  0.78940000  0.29060000  0.1667 0.0938344447
C  C569  1  0.95590000  0.21060000  0.70940000  0.1667 0.0938344447
C  C570  1  0.79060000  0.95590000  0.28940000  0.1667 0.0938344447
C  C571  1  0.79060000  0.21060000  0.45590000  0.1667 0.0938344447
C  C572  1  0.20940000  0.78940000  0.45590000  0.1667 0.0938344447
C  C573  1  0.78940000  0.04410000  0.29060000  0.1667 0.0938344447
C  C574  1  0.78940000  0.95590000  0.70940000  0.1667 0.0938344447
C  C575  1  0.04410000  0.20940000  0.71060000  0.1667 0.0938344447
C  C576  1  0.95590000  0.20940000  0.28940000  0.1667 0.0938344447
C  C577  1  0.25680000  0.74760000  0.57550000  0.1667 0.1891293808
C  C578  1  0.25240000  0.25680000  0.57550000  0.1667 0.1891293808
C  C579  1  0.74320000  0.25240000  0.57550000  0.1667 0.1891293808
C  C580  1  0.74760000  0.74320000  0.57550000  0.1667 0.1891293808
C  C581  1  0.25680000  0.42450000  0.74760000  0.1667 0.1891293808
C  C582  1  0.25680000  0.25240000  0.42450000  0.1667 0.1891293808
C  C583  1  0.25680000  0.57550000  0.25240000  0.1667 0.1891293808
C  C584  1  0.57550000  0.74760000  0.74320000  0.1667 0.1891293808
C  C585  1  0.74320000  0.74760000  0.42450000  0.1667 0.1891293808
C  C586  1  0.42450000  0.74760000  0.25680000  0.1667 0.1891293808
C  C587  1  0.57550000  0.25680000  0.74760000  0.1667 0.1891293808
C  C588  1  0.74760000  0.57550000  0.25680000  0.1667 0.1891293808
C  C589  1  0.25240000  0.42450000  0.25680000  0.1667 0.1891293808
C  C590  1  0.57550000  0.74320000  0.25240000  0.1667 0.1891293808
C  C591  1  0.25240000  0.57550000  0.74320000  0.1667 0.1891293808
C  C592  1  0.42450000  0.74320000  0.74760000  0.1667 0.1891293808
C  C593  1  0.42450000  0.25680000  0.25240000  0.1667 0.1891293808
C  C594  1  0.74760000  0.42450000  0.74320000  0.1667 0.1891293808
C  C595  1  0.74760000  0.25680000  0.42450000  0.1667 0.1891293808
C  C596  1  0.25240000  0.74320000  0.42450000  0.1667 0.1891293808
C  C597  1  0.74320000  0.57550000  0.74760000  0.1667 0.1891293808
C  C598  1  0.74320000  0.42450000  0.25240000  0.1667 0.1891293808
C  C599  1  0.57550000  0.25240000  0.25680000  0.1667 0.1891293808
C  C600  1  0.42450000  0.25240000  0.74320000  0.1667 0.1891293808
C  C601  1  0.25680000  0.24760000  0.07550000  0.1667 0.1891293808
C  C602  1  0.25240000  0.75680000  0.07550000  0.1667 0.1891293808
C  C603  1  0.74320000  0.75240000  0.07550000  0.1667 0.1891293808
C  C604  1  0.74760000  0.24320000  0.07550000  0.1667 0.1891293808
C  C605  1  0.25680000  0.92450000  0.24760000  0.1667 0.1891293808
C  C606  1  0.25680000  0.75240000  0.92450000  0.1667 0.1891293808
C  C607  1  0.25680000  0.07550000  0.75240000  0.1667 0.1891293808
C  C608  1  0.57550000  0.24760000  0.24320000  0.1667 0.1891293808
C  C609  1  0.74320000  0.24760000  0.92450000  0.1667 0.1891293808
C  C610  1  0.42450000  0.24760000  0.75680000  0.1667 0.1891293808
C  C611  1  0.57550000  0.75680000  0.24760000  0.1667 0.1891293808
C  C612  1  0.74760000  0.07550000  0.75680000  0.1667 0.1891293808
C  C613  1  0.25240000  0.92450000  0.75680000  0.1667 0.1891293808
C  C614  1  0.57550000  0.24320000  0.75240000  0.1667 0.1891293808
C  C615  1  0.25240000  0.07550000  0.24320000  0.1667 0.1891293808
C  C616  1  0.42450000  0.24320000  0.24760000  0.1667 0.1891293808
C  C617  1  0.42450000  0.75680000  0.75240000  0.1667 0.1891293808
C  C618  1  0.74760000  0.92450000  0.24320000  0.1667 0.1891293808
C  C619  1  0.74760000  0.75680000  0.92450000  0.1667 0.1891293808
C  C620  1  0.25240000  0.24320000  0.92450000  0.1667 0.1891293808
C  C621  1  0.74320000  0.07550000  0.24760000  0.1667 0.1891293808
C  C622  1  0.74320000  0.92450000  0.75240000  0.1667 0.1891293808
C  C623  1  0.57550000  0.75240000  0.75680000  0.1667 0.1891293808
C  C624  1  0.42450000  0.75240000  0.24320000  0.1667 0.1891293808
C  C625  1  0.75680000  0.74760000  0.07550000  0.1667 0.1891293808
C  C626  1  0.75240000  0.25680000  0.07550000  0.1667 0.1891293808
C  C627  1  0.24320000  0.25240000  0.07550000  0.1667 0.1891293808
C  C628  1  0.24760000  0.74320000  0.07550000  0.1667 0.1891293808
C  C629  1  0.75680000  0.42450000  0.24760000  0.1667 0.1891293808
C  C630  1  0.75680000  0.25240000  0.92450000  0.1667 0.1891293808
C  C631  1  0.75680000  0.57550000  0.75240000  0.1667 0.1891293808
C  C632  1  0.07550000  0.74760000  0.24320000  0.1667 0.1891293808
C  C633  1  0.24320000  0.74760000  0.92450000  0.1667 0.1891293808
C  C634  1  0.92450000  0.74760000  0.75680000  0.1667 0.1891293808
C  C635  1  0.07550000  0.25680000  0.24760000  0.1667 0.1891293808
C  C636  1  0.24760000  0.57550000  0.75680000  0.1667 0.1891293808
C  C637  1  0.75240000  0.42450000  0.75680000  0.1667 0.1891293808
C  C638  1  0.07550000  0.74320000  0.75240000  0.1667 0.1891293808
C  C639  1  0.75240000  0.57550000  0.24320000  0.1667 0.1891293808
C  C640  1  0.92450000  0.74320000  0.24760000  0.1667 0.1891293808
C  C641  1  0.92450000  0.25680000  0.75240000  0.1667 0.1891293808
C  C642  1  0.24760000  0.42450000  0.24320000  0.1667 0.1891293808
C  C643  1  0.24760000  0.25680000  0.92450000  0.1667 0.1891293808
C  C644  1  0.75240000  0.74320000  0.92450000  0.1667 0.1891293808
C  C645  1  0.24320000  0.57550000  0.24760000  0.1667 0.1891293808
C  C646  1  0.24320000  0.42450000  0.75240000  0.1667 0.1891293808
C  C647  1  0.07550000  0.25240000  0.75680000  0.1667 0.1891293808
C  C648  1  0.92450000  0.25240000  0.24320000  0.1667 0.1891293808
C  C649  1  0.75680000  0.24760000  0.57550000  0.1667 0.1891293808
C  C650  1  0.75240000  0.75680000  0.57550000  0.1667 0.1891293808
C  C651  1  0.24320000  0.75240000  0.57550000  0.1667 0.1891293808
C  C652  1  0.24760000  0.24320000  0.57550000  0.1667 0.1891293808
C  C653  1  0.75680000  0.92450000  0.74760000  0.1667 0.1891293808
C  C654  1  0.75680000  0.75240000  0.42450000  0.1667 0.1891293808
C  C655  1  0.75680000  0.07550000  0.25240000  0.1667 0.1891293808
C  C656  1  0.07550000  0.24760000  0.74320000  0.1667 0.1891293808
C  C657  1  0.24320000  0.24760000  0.42450000  0.1667 0.1891293808
C  C658  1  0.92450000  0.24760000  0.25680000  0.1667 0.1891293808
C  C659  1  0.07550000  0.75680000  0.74760000  0.1667 0.1891293808
C  C660  1  0.24760000  0.07550000  0.25680000  0.1667 0.1891293808
C  C661  1  0.75240000  0.92450000  0.25680000  0.1667 0.1891293808
C  C662  1  0.07550000  0.24320000  0.25240000  0.1667 0.1891293808
C  C663  1  0.75240000  0.07550000  0.74320000  0.1667 0.1891293808
C  C664  1  0.92450000  0.24320000  0.74760000  0.1667 0.1891293808
C  C665  1  0.92450000  0.75680000  0.25240000  0.1667 0.1891293808
C  C666  1  0.24760000  0.92450000  0.74320000  0.1667 0.1891293808
C  C667  1  0.24760000  0.75680000  0.42450000  0.1667 0.1891293808
C  C668  1  0.75240000  0.24320000  0.42450000  0.1667 0.1891293808
C  C669  1  0.24320000  0.07550000  0.74760000  0.1667 0.1891293808
C  C670  1  0.24320000  0.92450000  0.25240000  0.1667 0.1891293808
C  C671  1  0.07550000  0.75240000  0.25680000  0.1667 0.1891293808
C  C672  1  0.92450000  0.75240000  0.74320000  0.1667 0.1891293808
C  C673  1  0.74320000  0.25240000  0.42450000  0.1667 0.1891293808
C  C674  1  0.74760000  0.74320000  0.42450000  0.1667 0.1891293808
C  C675  1  0.25680000  0.74760000  0.42450000  0.1667 0.1891293808
C  C676  1  0.25240000  0.25680000  0.42450000  0.1667 0.1891293808
C  C677  1  0.74320000  0.57550000  0.25240000  0.1667 0.1891293808
C  C678  1  0.74320000  0.74760000  0.57550000  0.1667 0.1891293808
C  C679  1  0.74320000  0.42450000  0.74760000  0.1667 0.1891293808
C  C680  1  0.42450000  0.25240000  0.25680000  0.1667 0.1891293808
C  C681  1  0.25680000  0.25240000  0.57550000  0.1667 0.1891293808
C  C682  1  0.57550000  0.25240000  0.74320000  0.1667 0.1891293808
C  C683  1  0.42450000  0.74320000  0.25240000  0.1667 0.1891293808
C  C684  1  0.25240000  0.42450000  0.74320000  0.1667 0.1891293808
C  C685  1  0.74760000  0.57550000  0.74320000  0.1667 0.1891293808
C  C686  1  0.42450000  0.25680000  0.74760000  0.1667 0.1891293808
C  C687  1  0.74760000  0.42450000  0.25680000  0.1667 0.1891293808
C  C688  1  0.57550000  0.25680000  0.25240000  0.1667 0.1891293808
C  C689  1  0.57550000  0.74320000  0.74760000  0.1667 0.1891293808
C  C690  1  0.25240000  0.57550000  0.25680000  0.1667 0.1891293808
C  C691  1  0.25240000  0.74320000  0.57550000  0.1667 0.1891293808
C  C692  1  0.74760000  0.25680000  0.57550000  0.1667 0.1891293808
C  C693  1  0.25680000  0.42450000  0.25240000  0.1667 0.1891293808
C  C694  1  0.25680000  0.57550000  0.74760000  0.1667 0.1891293808
C  C695  1  0.42450000  0.74760000  0.74320000  0.1667 0.1891293808
C  C696  1  0.57550000  0.74760000  0.25680000  0.1667 0.1891293808
C  C697  1  0.74320000  0.75240000  0.92450000  0.1667 0.1891293808
C  C698  1  0.74760000  0.24320000  0.92450000  0.1667 0.1891293808
C  C699  1  0.25680000  0.24760000  0.92450000  0.1667 0.1891293808
C  C700  1  0.25240000  0.75680000  0.92450000  0.1667 0.1891293808
C  C701  1  0.74320000  0.07550000  0.75240000  0.1667 0.1891293808
C  C702  1  0.74320000  0.24760000  0.07550000  0.1667 0.1891293808
C  C703  1  0.74320000  0.92450000  0.24760000  0.1667 0.1891293808
C  C704  1  0.42450000  0.75240000  0.75680000  0.1667 0.1891293808
C  C705  1  0.25680000  0.75240000  0.07550000  0.1667 0.1891293808
C  C706  1  0.57550000  0.75240000  0.24320000  0.1667 0.1891293808
C  C707  1  0.42450000  0.24320000  0.75240000  0.1667 0.1891293808
C  C708  1  0.25240000  0.92450000  0.24320000  0.1667 0.1891293808
C  C709  1  0.74760000  0.07550000  0.24320000  0.1667 0.1891293808
C  C710  1  0.42450000  0.75680000  0.24760000  0.1667 0.1891293808
C  C711  1  0.74760000  0.92450000  0.75680000  0.1667 0.1891293808
C  C712  1  0.57550000  0.75680000  0.75240000  0.1667 0.1891293808
C  C713  1  0.57550000  0.24320000  0.24760000  0.1667 0.1891293808
C  C714  1  0.25240000  0.07550000  0.75680000  0.1667 0.1891293808
C  C715  1  0.25240000  0.24320000  0.07550000  0.1667 0.1891293808
C  C716  1  0.74760000  0.75680000  0.07550000  0.1667 0.1891293808
C  C717  1  0.25680000  0.92450000  0.75240000  0.1667 0.1891293808
C  C718  1  0.25680000  0.07550000  0.24760000  0.1667 0.1891293808
C  C719  1  0.42450000  0.24760000  0.24320000  0.1667 0.1891293808
C  C720  1  0.57550000  0.24760000  0.75680000  0.1667 0.1891293808
C  C721  1  0.24320000  0.25240000  0.92450000  0.1667 0.1891293808
C  C722  1  0.24760000  0.74320000  0.92450000  0.1667 0.1891293808
C  C723  1  0.75680000  0.74760000  0.92450000  0.1667 0.1891293808
C  C724  1  0.75240000  0.25680000  0.92450000  0.1667 0.1891293808
C  C725  1  0.24320000  0.57550000  0.75240000  0.1667 0.1891293808
C  C726  1  0.24320000  0.74760000  0.07550000  0.1667 0.1891293808
C  C727  1  0.24320000  0.42450000  0.24760000  0.1667 0.1891293808
C  C728  1  0.92450000  0.25240000  0.75680000  0.1667 0.1891293808
C  C729  1  0.75680000  0.25240000  0.07550000  0.1667 0.1891293808
C  C730  1  0.07550000  0.25240000  0.24320000  0.1667 0.1891293808
C  C731  1  0.92450000  0.74320000  0.75240000  0.1667 0.1891293808
C  C732  1  0.75240000  0.42450000  0.24320000  0.1667 0.1891293808
C  C733  1  0.24760000  0.57550000  0.24320000  0.1667 0.1891293808
C  C734  1  0.92450000  0.25680000  0.24760000  0.1667 0.1891293808
C  C735  1  0.24760000  0.42450000  0.75680000  0.1667 0.1891293808
C  C736  1  0.07550000  0.25680000  0.75240000  0.1667 0.1891293808
C  C737  1  0.07550000  0.74320000  0.24760000  0.1667 0.1891293808
C  C738  1  0.75240000  0.57550000  0.75680000  0.1667 0.1891293808
C  C739  1  0.75240000  0.74320000  0.07550000  0.1667 0.1891293808
C  C740  1  0.24760000  0.25680000  0.07550000  0.1667 0.1891293808
C  C741  1  0.75680000  0.42450000  0.75240000  0.1667 0.1891293808
C  C742  1  0.75680000  0.57550000  0.24760000  0.1667 0.1891293808
C  C743  1  0.92450000  0.74760000  0.24320000  0.1667 0.1891293808
C  C744  1  0.07550000  0.74760000  0.75680000  0.1667 0.1891293808
C  C745  1  0.24320000  0.75240000  0.42450000  0.1667 0.1891293808
C  C746  1  0.24760000  0.24320000  0.42450000  0.1667 0.1891293808
C  C747  1  0.75680000  0.24760000  0.42450000  0.1667 0.1891293808
C  C748  1  0.75240000  0.75680000  0.42450000  0.1667 0.1891293808
C  C749  1  0.24320000  0.07550000  0.25240000  0.1667 0.1891293808
C  C750  1  0.24320000  0.24760000  0.57550000  0.1667 0.1891293808
C  C751  1  0.24320000  0.92450000  0.74760000  0.1667 0.1891293808
C  C752  1  0.92450000  0.75240000  0.25680000  0.1667 0.1891293808
C  C753  1  0.75680000  0.75240000  0.57550000  0.1667 0.1891293808
C  C754  1  0.07550000  0.75240000  0.74320000  0.1667 0.1891293808
C  C755  1  0.92450000  0.24320000  0.25240000  0.1667 0.1891293808
C  C756  1  0.75240000  0.92450000  0.74320000  0.1667 0.1891293808
C  C757  1  0.24760000  0.07550000  0.74320000  0.1667 0.1891293808
C  C758  1  0.92450000  0.75680000  0.74760000  0.1667 0.1891293808
C  C759  1  0.24760000  0.92450000  0.25680000  0.1667 0.1891293808
C  C760  1  0.07550000  0.75680000  0.25240000  0.1667 0.1891293808
C  C761  1  0.07550000  0.24320000  0.74760000  0.1667 0.1891293808
C  C762  1  0.75240000  0.07550000  0.25680000  0.1667 0.1891293808
C  C763  1  0.75240000  0.24320000  0.57550000  0.1667 0.1891293808
C  C764  1  0.24760000  0.75680000  0.57550000  0.1667 0.1891293808
C  C765  1  0.75680000  0.92450000  0.25240000  0.1667 0.1891293808
C  C766  1  0.75680000  0.07550000  0.74760000  0.1667 0.1891293808
C  C767  1  0.92450000  0.24760000  0.74320000  0.1667 0.1891293808
C  C768  1  0.07550000  0.24760000  0.25680000  0.1667 0.1891293808
C  C769  1  0.35040000  0.66630000  0.47260000  0.1667 -0.1645835481
C  C770  1  0.33370000  0.35040000  0.47260000  0.1667 -0.1645835481
C  C771  1  0.64960000  0.33370000  0.47260000  0.1667 -0.1645835481
C  C772  1  0.66630000  0.64960000  0.47260000  0.1667 -0.1645835481
C  C773  1  0.35040000  0.52740000  0.66630000  0.1667 -0.1645835481
C  C774  1  0.35040000  0.33370000  0.52740000  0.1667 -0.1645835481
C  C775  1  0.35040000  0.47260000  0.33370000  0.1667 -0.1645835481
C  C776  1  0.47260000  0.66630000  0.64960000  0.1667 -0.1645835481
C  C777  1  0.64960000  0.66630000  0.52740000  0.1667 -0.1645835481
C  C778  1  0.52740000  0.66630000  0.35040000  0.1667 -0.1645835481
C  C779  1  0.47260000  0.35040000  0.66630000  0.1667 -0.1645835481
C  C780  1  0.66630000  0.47260000  0.35040000  0.1667 -0.1645835481
C  C781  1  0.33370000  0.52740000  0.35040000  0.1667 -0.1645835481
C  C782  1  0.47260000  0.64960000  0.33370000  0.1667 -0.1645835481
C  C783  1  0.33370000  0.47260000  0.64960000  0.1667 -0.1645835481
C  C784  1  0.52740000  0.64960000  0.66630000  0.1667 -0.1645835481
C  C785  1  0.52740000  0.35040000  0.33370000  0.1667 -0.1645835481
C  C786  1  0.66630000  0.52740000  0.64960000  0.1667 -0.1645835481
C  C787  1  0.66630000  0.35040000  0.52740000  0.1667 -0.1645835481
C  C788  1  0.33370000  0.64960000  0.52740000  0.1667 -0.1645835481
C  C789  1  0.64960000  0.47260000  0.66630000  0.1667 -0.1645835481
C  C790  1  0.64960000  0.52740000  0.33370000  0.1667 -0.1645835481
C  C791  1  0.47260000  0.33370000  0.35040000  0.1667 -0.1645835481
C  C792  1  0.52740000  0.33370000  0.64960000  0.1667 -0.1645835481
C  C793  1  0.35040000  0.16630000  0.97260000  0.1667 -0.1663068529
C  C794  1  0.33370000  0.85040000  0.97260000  0.1667 -0.1663068529
C  C795  1  0.64960000  0.83370000  0.97260000  0.1667 -0.1645835481
C  C796  1  0.66630000  0.14960000  0.97260000  0.1667 -0.1645835481
C  C797  1  0.35040000  0.02740000  0.16630000  0.1667 -0.1645835481
C  C798  1  0.35040000  0.83370000  0.02740000  0.1667 -0.1645835481
C  C799  1  0.35040000  0.97260000  0.83370000  0.1667 -0.1645835481
C  C800  1  0.47260000  0.16630000  0.14960000  0.1667 -0.1645835481
C  C801  1  0.64960000  0.16630000  0.02740000  0.1667 -0.1645835481
C  C802  1  0.52740000  0.16630000  0.85040000  0.1667 -0.1645835481
C  C803  1  0.47260000  0.85040000  0.16630000  0.1667 -0.1645835481
C  C804  1  0.66630000  0.97260000  0.85040000  0.1667 -0.1645835481
C  C805  1  0.33370000  0.02740000  0.85040000  0.1667 -0.1663068529
C  C806  1  0.47260000  0.14960000  0.83370000  0.1667 -0.1645835481
C  C807  1  0.33370000  0.97260000  0.14960000  0.1667 -0.1645835481
C  C808  1  0.52740000  0.14960000  0.16630000  0.1667 -0.1645835481
C  C809  1  0.52740000  0.85040000  0.83370000  0.1667 -0.1645835481
C  C810  1  0.66630000  0.02740000  0.14960000  0.1667 -0.1645835481
C  C811  1  0.66630000  0.85040000  0.02740000  0.1667 -0.1645835481
C  C812  1  0.33370000  0.14960000  0.02740000  0.1667 -0.1645835481
C  C813  1  0.64960000  0.97260000  0.16630000  0.1667 -0.1645835481
C  C814  1  0.64960000  0.02740000  0.83370000  0.1667 -0.1645835481
C  C815  1  0.47260000  0.83370000  0.85040000  0.1667 -0.1645835481
C  C816  1  0.52740000  0.83370000  0.14960000  0.1667 -0.1645835481
C  C817  1  0.85040000  0.66630000  0.97260000  0.1667 -0.1645835481
C  C818  1  0.83370000  0.35040000  0.97260000  0.1667 -0.1645835481
C  C819  1  0.14960000  0.33370000  0.97260000  0.1667 -0.1663068529
C  C820  1  0.16630000  0.64960000  0.97260000  0.1667 -0.1663068529
C  C821  1  0.85040000  0.52740000  0.16630000  0.1667 -0.1645835481
C  C822  1  0.85040000  0.33370000  0.02740000  0.1667 -0.1645835481
C  C823  1  0.85040000  0.47260000  0.83370000  0.1667 -0.1645835481
C  C824  1  0.97260000  0.66630000  0.14960000  0.1667 -0.1645835481
C  C825  1  0.14960000  0.66630000  0.02740000  0.1667 -0.1645835481
C  C826  1  0.02740000  0.66630000  0.85040000  0.1667 -0.1663068529
C  C827  1  0.97260000  0.35040000  0.16630000  0.1667 -0.1645835481
C  C828  1  0.16630000  0.47260000  0.85040000  0.1667 -0.1663068529
C  C829  1  0.83370000  0.52740000  0.85040000  0.1667 -0.1645835481
C  C830  1  0.97260000  0.64960000  0.83370000  0.1667 -0.1645835481
C  C831  1  0.83370000  0.47260000  0.14960000  0.1667 -0.1645835481
C  C832  1  0.02740000  0.64960000  0.16630000  0.1667 -0.1645835481
C  C833  1  0.02740000  0.35040000  0.83370000  0.1667 -0.1663068529
C  C834  1  0.16630000  0.52740000  0.14960000  0.1667 -0.1645835481
C  C835  1  0.16630000  0.35040000  0.02740000  0.1667 -0.1645835481
C  C836  1  0.83370000  0.64960000  0.02740000  0.1667 -0.1645835481
C  C837  1  0.14960000  0.47260000  0.16630000  0.1667 -0.1645835481
C  C838  1  0.14960000  0.52740000  0.83370000  0.1667 -0.1663068529
C  C839  1  0.97260000  0.33370000  0.85040000  0.1667 -0.1645835481
C  C840  1  0.02740000  0.33370000  0.14960000  0.1667 -0.1645835481
C  C841  1  0.85040000  0.16630000  0.47260000  0.1667 -0.1645835481
C  C842  1  0.83370000  0.85040000  0.47260000  0.1667 -0.1645835481
C  C843  1  0.14960000  0.83370000  0.47260000  0.1667 -0.1645835481
C  C844  1  0.16630000  0.14960000  0.47260000  0.1667 -0.1663068529
C  C845  1  0.85040000  0.02740000  0.66630000  0.1667 -0.1645835481
C  C846  1  0.85040000  0.83370000  0.52740000  0.1667 -0.1645835481
C  C847  1  0.85040000  0.97260000  0.33370000  0.1667 -0.1645835481
C  C848  1  0.97260000  0.16630000  0.64960000  0.1667 -0.1645835481
C  C849  1  0.14960000  0.16630000  0.52740000  0.1667 -0.1663068529
C  C850  1  0.02740000  0.16630000  0.35040000  0.1667 -0.1645835481
C  C851  1  0.97260000  0.85040000  0.66630000  0.1667 -0.1645835481
C  C852  1  0.16630000  0.97260000  0.35040000  0.1667 -0.1645835481
C  C853  1  0.83370000  0.02740000  0.35040000  0.1667 -0.1645835481
C  C854  1  0.97260000  0.14960000  0.33370000  0.1667 -0.1645835481
C  C855  1  0.83370000  0.97260000  0.64960000  0.1667 -0.1645835481
C  C856  1  0.02740000  0.14960000  0.66630000  0.1667 -0.1663068529
C  C857  1  0.02740000  0.85040000  0.33370000  0.1667 -0.1645835481
C  C858  1  0.16630000  0.02740000  0.64960000  0.1667 -0.1663068529
C  C859  1  0.16630000  0.85040000  0.52740000  0.1667 -0.1645835481
C  C860  1  0.83370000  0.14960000  0.52740000  0.1667 -0.1645835481
C  C861  1  0.14960000  0.97260000  0.66630000  0.1667 -0.1663068529
C  C862  1  0.14960000  0.02740000  0.33370000  0.1667 -0.1663068529
C  C863  1  0.97260000  0.83370000  0.35040000  0.1667 -0.1645835481
C  C864  1  0.02740000  0.83370000  0.64960000  0.1667 -0.1645835481
C  C865  1  0.64960000  0.33370000  0.52740000  0.1667 -0.1645835481
C  C866  1  0.66630000  0.64960000  0.52740000  0.1667 -0.1645835481
C  C867  1  0.35040000  0.66630000  0.52740000  0.1667 -0.1645835481
C  C868  1  0.33370000  0.35040000  0.52740000  0.1667 -0.1645835481
C  C869  1  0.64960000  0.47260000  0.33370000  0.1667 -0.1645835481
C  C870  1  0.64960000  0.66630000  0.47260000  0.1667 -0.1645835481
C  C871  1  0.64960000  0.52740000  0.66630000  0.1667 -0.1645835481
C  C872  1  0.52740000  0.33370000  0.35040000  0.1667 -0.1645835481
C  C873  1  0.35040000  0.33370000  0.47260000  0.1667 -0.1645835481
C  C874  1  0.47260000  0.33370000  0.64960000  0.1667 -0.1645835481
C  C875  1  0.52740000  0.64960000  0.33370000  0.1667 -0.1645835481
C  C876  1  0.33370000  0.52740000  0.64960000  0.1667 -0.1645835481
C  C877  1  0.66630000  0.47260000  0.64960000  0.1667 -0.1645835481
C  C878  1  0.52740000  0.35040000  0.66630000  0.1667 -0.1645835481
C  C879  1  0.66630000  0.52740000  0.35040000  0.1667 -0.1645835481
C  C880  1  0.47260000  0.35040000  0.33370000  0.1667 -0.1645835481
C  C881  1  0.47260000  0.64960000  0.66630000  0.1667 -0.1645835481
C  C882  1  0.33370000  0.47260000  0.35040000  0.1667 -0.1645835481
C  C883  1  0.33370000  0.64960000  0.47260000  0.1667 -0.1645835481
C  C884  1  0.66630000  0.35040000  0.47260000  0.1667 -0.1645835481
C  C885  1  0.35040000  0.52740000  0.33370000  0.1667 -0.1645835481
C  C886  1  0.35040000  0.47260000  0.66630000  0.1667 -0.1645835481
C  C887  1  0.52740000  0.66630000  0.64960000  0.1667 -0.1645835481
C  C888  1  0.47260000  0.66630000  0.35040000  0.1667 -0.1645835481
C  C889  1  0.64960000  0.83370000  0.02740000  0.1667 -0.1645835481
C  C890  1  0.66630000  0.14960000  0.02740000  0.1667 -0.1645835481
C  C891  1  0.35040000  0.16630000  0.02740000  0.1667 -0.1645835481
C  C892  1  0.33370000  0.85040000  0.02740000  0.1667 -0.1645835481
C  C893  1  0.64960000  0.97260000  0.83370000  0.1667 -0.1645835481
C  C894  1  0.64960000  0.16630000  0.97260000  0.1667 -0.1645835481
C  C895  1  0.64960000  0.02740000  0.16630000  0.1667 -0.1645835481
C  C896  1  0.52740000  0.83370000  0.85040000  0.1667 -0.1645835481
C  C897  1  0.35040000  0.83370000  0.97260000  0.1667 -0.1663068529
C  C898  1  0.47260000  0.83370000  0.14960000  0.1667 -0.1645835481
C  C899  1  0.52740000  0.14960000  0.83370000  0.1667 -0.1645835481
C  C900  1  0.33370000  0.02740000  0.14960000  0.1667 -0.1645835481
C  C901  1  0.66630000  0.97260000  0.14960000  0.1667 -0.1645835481
C  C902  1  0.52740000  0.85040000  0.16630000  0.1667 -0.1645835481
C  C903  1  0.66630000  0.02740000  0.85040000  0.1667 -0.1645835481
C  C904  1  0.47260000  0.85040000  0.83370000  0.1667 -0.1645835481
C  C905  1  0.47260000  0.14960000  0.16630000  0.1667 -0.1645835481
C  C906  1  0.33370000  0.97260000  0.85040000  0.1667 -0.1645835481
C  C907  1  0.33370000  0.14960000  0.97260000  0.1667 -0.1663068529
C  C908  1  0.66630000  0.85040000  0.97260000  0.1667 -0.1645835481
C  C909  1  0.35040000  0.02740000  0.83370000  0.1667 -0.1663068529
C  C910  1  0.35040000  0.97260000  0.16630000  0.1667 -0.1645835481
C  C911  1  0.52740000  0.16630000  0.14960000  0.1667 -0.1645835481
C  C912  1  0.47260000  0.16630000  0.85040000  0.1667 -0.1645835481
C  C913  1  0.14960000  0.33370000  0.02740000  0.1667 -0.1645835481
C  C914  1  0.16630000  0.64960000  0.02740000  0.1667 -0.1645835481
C  C915  1  0.85040000  0.66630000  0.02740000  0.1667 -0.1645835481
C  C916  1  0.83370000  0.35040000  0.02740000  0.1667 -0.1645835481
C  C917  1  0.14960000  0.47260000  0.83370000  0.1667 -0.1663068529
C  C918  1  0.14960000  0.66630000  0.97260000  0.1667 -0.1663068529
C  C919  1  0.14960000  0.52740000  0.16630000  0.1667 -0.1645835481
C  C920  1  0.02740000  0.33370000  0.85040000  0.1667 -0.1663068529
C  C921  1  0.85040000  0.33370000  0.97260000  0.1667 -0.1645835481
C  C922  1  0.97260000  0.33370000  0.14960000  0.1667 -0.1645835481
C  C923  1  0.02740000  0.64960000  0.83370000  0.1667 -0.1663068529
C  C924  1  0.83370000  0.52740000  0.14960000  0.1667 -0.1645835481
C  C925  1  0.16630000  0.47260000  0.14960000  0.1667 -0.1645835481
C  C926  1  0.02740000  0.35040000  0.16630000  0.1667 -0.1645835481
C  C927  1  0.16630000  0.52740000  0.85040000  0.1667 -0.1663068529
C  C928  1  0.97260000  0.35040000  0.83370000  0.1667 -0.1645835481
C  C929  1  0.97260000  0.64960000  0.16630000  0.1667 -0.1645835481
C  C930  1  0.83370000  0.47260000  0.85040000  0.1667 -0.1645835481
C  C931  1  0.83370000  0.64960000  0.97260000  0.1667 -0.1645835481
C  C932  1  0.16630000  0.35040000  0.97260000  0.1667 -0.1663068529
C  C933  1  0.85040000  0.52740000  0.83370000  0.1667 -0.1645835481
C  C934  1  0.85040000  0.47260000  0.16630000  0.1667 -0.1645835481
C  C935  1  0.02740000  0.66630000  0.14960000  0.1667 -0.1645835481
C  C936  1  0.97260000  0.66630000  0.85040000  0.1667 -0.1645835481
C  C937  1  0.14960000  0.83370000  0.52740000  0.1667 -0.1645835481
C  C938  1  0.16630000  0.14960000  0.52740000  0.1667 -0.1663068529
C  C939  1  0.85040000  0.16630000  0.52740000  0.1667 -0.1645835481
C  C940  1  0.83370000  0.85040000  0.52740000  0.1667 -0.1645835481
C  C941  1  0.14960000  0.97260000  0.33370000  0.1667 -0.1645835481
C  C942  1  0.14960000  0.16630000  0.47260000  0.1667 -0.1663068529
C  C943  1  0.14960000  0.02740000  0.66630000  0.1667 -0.1663068529
C  C944  1  0.02740000  0.83370000  0.35040000  0.1667 -0.1645835481
C  C945  1  0.85040000  0.83370000  0.47260000  0.1667 -0.1645835481
C  C946  1  0.97260000  0.83370000  0.64960000  0.1667 -0.1645835481
C  C947  1  0.02740000  0.14960000  0.33370000  0.1667 -0.1645835481
C  C948  1  0.83370000  0.02740000  0.64960000  0.1667 -0.1645835481
C  C949  1  0.16630000  0.97260000  0.64960000  0.1667 -0.1645835481
C  C950  1  0.02740000  0.85040000  0.66630000  0.1667 -0.1645835481
C  C951  1  0.16630000  0.02740000  0.35040000  0.1667 -0.1663068529
C  C952  1  0.97260000  0.85040000  0.33370000  0.1667 -0.1645835481
C  C953  1  0.97260000  0.14960000  0.66630000  0.1667 -0.1645835481
C  C954  1  0.83370000  0.97260000  0.35040000  0.1667 -0.1645835481
C  C955  1  0.83370000  0.14960000  0.47260000  0.1667 -0.1645835481
C  C956  1  0.16630000  0.85040000  0.47260000  0.1667 -0.1645835481
C  C957  1  0.85040000  0.02740000  0.33370000  0.1667 -0.1645835481
C  C958  1  0.85040000  0.97260000  0.66630000  0.1667 -0.1645835481
C  C959  1  0.02740000  0.16630000  0.64960000  0.1667 -0.1663068529
C  C960  1  0.97260000  0.16630000  0.35040000  0.1667 -0.1645835481
N  N1  1  0.26600000  0.72360000  0.39100000  0.1667 -0.0466854948
N  N2  1  0.27640000  0.26600000  0.39100000  0.1667 -0.0466854948
N  N3  1  0.73400000  0.27640000  0.39100000  0.1667 -0.0466854948
N  N4  1  0.72360000  0.73400000  0.39100000  0.1667 -0.0466854948
N  N5  1  0.26600000  0.60900000  0.72360000  0.1667 -0.0466854948
N  N6  1  0.26600000  0.27640000  0.60900000  0.1667 -0.0466854948
N  N7  1  0.26600000  0.39100000  0.27640000  0.1667 -0.0466854948
N  N8  1  0.39100000  0.72360000  0.73400000  0.1667 -0.0466854948
N  N9  1  0.73400000  0.72360000  0.60900000  0.1667 -0.0466854948
N  N10  1  0.60900000  0.72360000  0.26600000  0.1667 -0.0466854948
N  N11  1  0.39100000  0.26600000  0.72360000  0.1667 -0.0466854948
N  N12  1  0.72360000  0.39100000  0.26600000  0.1667 -0.0466854948
N  N13  1  0.27640000  0.60900000  0.26600000  0.1667 -0.0466854948
N  N14  1  0.39100000  0.73400000  0.27640000  0.1667 -0.0466854948
N  N15  1  0.27640000  0.39100000  0.73400000  0.1667 -0.0466854948
N  N16  1  0.60900000  0.73400000  0.72360000  0.1667 -0.0466854948
N  N17  1  0.60900000  0.26600000  0.27640000  0.1667 -0.0466854948
N  N18  1  0.72360000  0.60900000  0.73400000  0.1667 -0.0466854948
N  N19  1  0.72360000  0.26600000  0.60900000  0.1667 -0.0466854948
N  N20  1  0.27640000  0.73400000  0.60900000  0.1667 -0.0466854948
N  N21  1  0.73400000  0.39100000  0.72360000  0.1667 -0.0466854948
N  N22  1  0.73400000  0.60900000  0.27640000  0.1667 -0.0466854948
N  N23  1  0.39100000  0.27640000  0.26600000  0.1667 -0.0466854948
N  N24  1  0.60900000  0.27640000  0.73400000  0.1667 -0.0466854948
N  N25  1  0.26600000  0.22360000  0.89100000  0.1667 -0.0466854948
N  N26  1  0.27640000  0.76600000  0.89100000  0.1667 -0.0466854948
N  N27  1  0.73400000  0.77640000  0.89100000  0.1667 -0.0466854948
N  N28  1  0.72360000  0.23400000  0.89100000  0.1667 -0.0466854948
N  N29  1  0.26600000  0.10900000  0.22360000  0.1667 -0.0466854948
N  N30  1  0.26600000  0.77640000  0.10900000  0.1667 -0.0466854948
N  N31  1  0.26600000  0.89100000  0.77640000  0.1667 -0.0466854948
N  N32  1  0.39100000  0.22360000  0.23400000  0.1667 -0.0466854948
N  N33  1  0.73400000  0.22360000  0.10900000  0.1667 -0.0466854948
N  N34  1  0.60900000  0.22360000  0.76600000  0.1667 -0.0466854948
N  N35  1  0.39100000  0.76600000  0.22360000  0.1667 -0.0466854948
N  N36  1  0.72360000  0.89100000  0.76600000  0.1667 -0.0466854948
N  N37  1  0.27640000  0.10900000  0.76600000  0.1667 -0.0466854948
N  N38  1  0.39100000  0.23400000  0.77640000  0.1667 -0.0466854948
N  N39  1  0.27640000  0.89100000  0.23400000  0.1667 -0.0466854948
N  N40  1  0.60900000  0.23400000  0.22360000  0.1667 -0.0466854948
N  N41  1  0.60900000  0.76600000  0.77640000  0.1667 -0.0466854948
N  N42  1  0.72360000  0.10900000  0.23400000  0.1667 -0.0466854948
N  N43  1  0.72360000  0.76600000  0.10900000  0.1667 -0.0466854948
N  N44  1  0.27640000  0.23400000  0.10900000  0.1667 -0.0466854948
N  N45  1  0.73400000  0.89100000  0.22360000  0.1667 -0.0466854948
N  N46  1  0.73400000  0.10900000  0.77640000  0.1667 -0.0466854948
N  N47  1  0.39100000  0.77640000  0.76600000  0.1667 -0.0466854948
N  N48  1  0.60900000  0.77640000  0.23400000  0.1667 -0.0466854948
N  N49  1  0.76600000  0.72360000  0.89100000  0.1667 -0.0466854948
N  N50  1  0.77640000  0.26600000  0.89100000  0.1667 -0.0466854948
N  N51  1  0.23400000  0.27640000  0.89100000  0.1667 -0.0466854948
N  N52  1  0.22360000  0.73400000  0.89100000  0.1667 -0.0466854948
N  N53  1  0.76600000  0.60900000  0.22360000  0.1667 -0.0466854948
N  N54  1  0.76600000  0.27640000  0.10900000  0.1667 -0.0466854948
N  N55  1  0.76600000  0.39100000  0.77640000  0.1667 -0.0466854948
N  N56  1  0.89100000  0.72360000  0.23400000  0.1667 -0.0466854948
N  N57  1  0.23400000  0.72360000  0.10900000  0.1667 -0.0466854948
N  N58  1  0.10900000  0.72360000  0.76600000  0.1667 -0.0466854948
N  N59  1  0.89100000  0.26600000  0.22360000  0.1667 -0.0466854948
N  N60  1  0.22360000  0.39100000  0.76600000  0.1667 -0.0466854948
N  N61  1  0.77640000  0.60900000  0.76600000  0.1667 -0.0466854948
N  N62  1  0.89100000  0.73400000  0.77640000  0.1667 -0.0466854948
N  N63  1  0.77640000  0.39100000  0.23400000  0.1667 -0.0466854948
N  N64  1  0.10900000  0.73400000  0.22360000  0.1667 -0.0466854948
N  N65  1  0.10900000  0.26600000  0.77640000  0.1667 -0.0466854948
N  N66  1  0.22360000  0.60900000  0.23400000  0.1667 -0.0466854948
N  N67  1  0.22360000  0.26600000  0.10900000  0.1667 -0.0466854948
N  N68  1  0.77640000  0.73400000  0.10900000  0.1667 -0.0466854948
N  N69  1  0.23400000  0.39100000  0.22360000  0.1667 -0.0466854948
N  N70  1  0.23400000  0.60900000  0.77640000  0.1667 -0.0466854948
N  N71  1  0.89100000  0.27640000  0.76600000  0.1667 -0.0466854948
N  N72  1  0.10900000  0.27640000  0.23400000  0.1667 -0.0466854948
N  N73  1  0.76600000  0.22360000  0.39100000  0.1667 -0.0466854948
N  N74  1  0.77640000  0.76600000  0.39100000  0.1667 -0.0466854948
N  N75  1  0.23400000  0.77640000  0.39100000  0.1667 -0.0466854948
N  N76  1  0.22360000  0.23400000  0.39100000  0.1667 -0.0466854948
N  N77  1  0.76600000  0.10900000  0.72360000  0.1667 -0.0466854948
N  N78  1  0.76600000  0.77640000  0.60900000  0.1667 -0.0466854948
N  N79  1  0.76600000  0.89100000  0.27640000  0.1667 -0.0466854948
N  N80  1  0.89100000  0.22360000  0.73400000  0.1667 -0.0466854948
N  N81  1  0.23400000  0.22360000  0.60900000  0.1667 -0.0466854948
N  N82  1  0.10900000  0.22360000  0.26600000  0.1667 -0.0466854948
N  N83  1  0.89100000  0.76600000  0.72360000  0.1667 -0.0466854948
N  N84  1  0.22360000  0.89100000  0.26600000  0.1667 -0.0466854948
N  N85  1  0.77640000  0.10900000  0.26600000  0.1667 -0.0466854948
N  N86  1  0.89100000  0.23400000  0.27640000  0.1667 -0.0466854948
N  N87  1  0.77640000  0.89100000  0.73400000  0.1667 -0.0466854948
N  N88  1  0.10900000  0.23400000  0.72360000  0.1667 -0.0466854948
N  N89  1  0.10900000  0.76600000  0.27640000  0.1667 -0.0466854948
N  N90  1  0.22360000  0.10900000  0.73400000  0.1667 -0.0466854948
N  N91  1  0.22360000  0.76600000  0.60900000  0.1667 -0.0466854948
N  N92  1  0.77640000  0.23400000  0.60900000  0.1667 -0.0466854948
N  N93  1  0.23400000  0.89100000  0.72360000  0.1667 -0.0466854948
N  N94  1  0.23400000  0.10900000  0.27640000  0.1667 -0.0466854948
N  N95  1  0.89100000  0.77640000  0.26600000  0.1667 -0.0466854948
N  N96  1  0.10900000  0.77640000  0.73400000  0.1667 -0.0466854948
N  N97  1  0.73400000  0.27640000  0.60900000  0.1667 -0.0466854948
N  N98  1  0.72360000  0.73400000  0.60900000  0.1667 -0.0466854948
N  N99  1  0.26600000  0.72360000  0.60900000  0.1667 -0.0466854948
N  N100  1  0.27640000  0.26600000  0.60900000  0.1667 -0.0466854948
N  N101  1  0.73400000  0.39100000  0.27640000  0.1667 -0.0466854948
N  N102  1  0.73400000  0.72360000  0.39100000  0.1667 -0.0466854948
N  N103  1  0.73400000  0.60900000  0.72360000  0.1667 -0.0466854948
N  N104  1  0.60900000  0.27640000  0.26600000  0.1667 -0.0466854948
N  N105  1  0.26600000  0.27640000  0.39100000  0.1667 -0.0466854948
N  N106  1  0.39100000  0.27640000  0.73400000  0.1667 -0.0466854948
N  N107  1  0.60900000  0.73400000  0.27640000  0.1667 -0.0466854948
N  N108  1  0.27640000  0.60900000  0.73400000  0.1667 -0.0466854948
N  N109  1  0.72360000  0.39100000  0.73400000  0.1667 -0.0466854948
N  N110  1  0.60900000  0.26600000  0.72360000  0.1667 -0.0466854948
N  N111  1  0.72360000  0.60900000  0.26600000  0.1667 -0.0466854948
N  N112  1  0.39100000  0.26600000  0.27640000  0.1667 -0.0466854948
N  N113  1  0.39100000  0.73400000  0.72360000  0.1667 -0.0466854948
N  N114  1  0.27640000  0.39100000  0.26600000  0.1667 -0.0466854948
N  N115  1  0.27640000  0.73400000  0.39100000  0.1667 -0.0466854948
N  N116  1  0.72360000  0.26600000  0.39100000  0.1667 -0.0466854948
N  N117  1  0.26600000  0.60900000  0.27640000  0.1667 -0.0466854948
N  N118  1  0.26600000  0.39100000  0.72360000  0.1667 -0.0466854948
N  N119  1  0.60900000  0.72360000  0.73400000  0.1667 -0.0466854948
N  N120  1  0.39100000  0.72360000  0.26600000  0.1667 -0.0466854948
N  N121  1  0.73400000  0.77640000  0.10900000  0.1667 -0.0466854948
N  N122  1  0.72360000  0.23400000  0.10900000  0.1667 -0.0466854948
N  N123  1  0.26600000  0.22360000  0.10900000  0.1667 -0.0466854948
N  N124  1  0.27640000  0.76600000  0.10900000  0.1667 -0.0466854948
N  N125  1  0.73400000  0.89100000  0.77640000  0.1667 -0.0466854948
N  N126  1  0.73400000  0.22360000  0.89100000  0.1667 -0.0466854948
N  N127  1  0.73400000  0.10900000  0.22360000  0.1667 -0.0466854948
N  N128  1  0.60900000  0.77640000  0.76600000  0.1667 -0.0466854948
N  N129  1  0.26600000  0.77640000  0.89100000  0.1667 -0.0466854948
N  N130  1  0.39100000  0.77640000  0.23400000  0.1667 -0.0466854948
N  N131  1  0.60900000  0.23400000  0.77640000  0.1667 -0.0466854948
N  N132  1  0.27640000  0.10900000  0.23400000  0.1667 -0.0466854948
N  N133  1  0.72360000  0.89100000  0.23400000  0.1667 -0.0466854948
N  N134  1  0.60900000  0.76600000  0.22360000  0.1667 -0.0466854948
N  N135  1  0.72360000  0.10900000  0.76600000  0.1667 -0.0466854948
N  N136  1  0.39100000  0.76600000  0.77640000  0.1667 -0.0466854948
N  N137  1  0.39100000  0.23400000  0.22360000  0.1667 -0.0466854948
N  N138  1  0.27640000  0.89100000  0.76600000  0.1667 -0.0466854948
N  N139  1  0.27640000  0.23400000  0.89100000  0.1667 -0.0466854948
N  N140  1  0.72360000  0.76600000  0.89100000  0.1667 -0.0466854948
N  N141  1  0.26600000  0.10900000  0.77640000  0.1667 -0.0466854948
N  N142  1  0.26600000  0.89100000  0.22360000  0.1667 -0.0466854948
N  N143  1  0.60900000  0.22360000  0.23400000  0.1667 -0.0466854948
N  N144  1  0.39100000  0.22360000  0.76600000  0.1667 -0.0466854948
N  N145  1  0.23400000  0.27640000  0.10900000  0.1667 -0.0466854948
N  N146  1  0.22360000  0.73400000  0.10900000  0.1667 -0.0466854948
N  N147  1  0.76600000  0.72360000  0.10900000  0.1667 -0.0466854948
N  N148  1  0.77640000  0.26600000  0.10900000  0.1667 -0.0466854948
N  N149  1  0.23400000  0.39100000  0.77640000  0.1667 -0.0466854948
N  N150  1  0.23400000  0.72360000  0.89100000  0.1667 -0.0466854948
N  N151  1  0.23400000  0.60900000  0.22360000  0.1667 -0.0466854948
N  N152  1  0.10900000  0.27640000  0.76600000  0.1667 -0.0466854948
N  N153  1  0.76600000  0.27640000  0.89100000  0.1667 -0.0466854948
N  N154  1  0.89100000  0.27640000  0.23400000  0.1667 -0.0466854948
N  N155  1  0.10900000  0.73400000  0.77640000  0.1667 -0.0466854948
N  N156  1  0.77640000  0.60900000  0.23400000  0.1667 -0.0466854948
N  N157  1  0.22360000  0.39100000  0.23400000  0.1667 -0.0466854948
N  N158  1  0.10900000  0.26600000  0.22360000  0.1667 -0.0466854948
N  N159  1  0.22360000  0.60900000  0.76600000  0.1667 -0.0466854948
N  N160  1  0.89100000  0.26600000  0.77640000  0.1667 -0.0466854948
N  N161  1  0.89100000  0.73400000  0.22360000  0.1667 -0.0466854948
N  N162  1  0.77640000  0.39100000  0.76600000  0.1667 -0.0466854948
N  N163  1  0.77640000  0.73400000  0.89100000  0.1667 -0.0466854948
N  N164  1  0.22360000  0.26600000  0.89100000  0.1667 -0.0466854948
N  N165  1  0.76600000  0.60900000  0.77640000  0.1667 -0.0466854948
N  N166  1  0.76600000  0.39100000  0.22360000  0.1667 -0.0466854948
N  N167  1  0.10900000  0.72360000  0.23400000  0.1667 -0.0466854948
N  N168  1  0.89100000  0.72360000  0.76600000  0.1667 -0.0466854948
N  N169  1  0.23400000  0.77640000  0.60900000  0.1667 -0.0466854948
N  N170  1  0.22360000  0.23400000  0.60900000  0.1667 -0.0466854948
N  N171  1  0.76600000  0.22360000  0.60900000  0.1667 -0.0466854948
N  N172  1  0.77640000  0.76600000  0.60900000  0.1667 -0.0466854948
N  N173  1  0.23400000  0.89100000  0.27640000  0.1667 -0.0466854948
N  N174  1  0.23400000  0.22360000  0.39100000  0.1667 -0.0466854948
N  N175  1  0.23400000  0.10900000  0.72360000  0.1667 -0.0466854948
N  N176  1  0.10900000  0.77640000  0.26600000  0.1667 -0.0466854948
N  N177  1  0.76600000  0.77640000  0.39100000  0.1667 -0.0466854948
N  N178  1  0.89100000  0.77640000  0.73400000  0.1667 -0.0466854948
N  N179  1  0.10900000  0.23400000  0.27640000  0.1667 -0.0466854948
N  N180  1  0.77640000  0.10900000  0.73400000  0.1667 -0.0466854948
N  N181  1  0.22360000  0.89100000  0.73400000  0.1667 -0.0466854948
N  N182  1  0.10900000  0.76600000  0.72360000  0.1667 -0.0466854948
N  N183  1  0.22360000  0.10900000  0.26600000  0.1667 -0.0466854948
N  N184  1  0.89100000  0.76600000  0.27640000  0.1667 -0.0466854948
N  N185  1  0.89100000  0.23400000  0.72360000  0.1667 -0.0466854948
N  N186  1  0.77640000  0.89100000  0.26600000  0.1667 -0.0466854948
N  N187  1  0.77640000  0.23400000  0.39100000  0.1667 -0.0466854948
N  N188  1  0.22360000  0.76600000  0.39100000  0.1667 -0.0466854948
N  N189  1  0.76600000  0.10900000  0.27640000  0.1667 -0.0466854948
N  N190  1  0.76600000  0.89100000  0.72360000  0.1667 -0.0466854948
N  N191  1  0.10900000  0.22360000  0.73400000  0.1667 -0.0466854948
N  N192  1  0.89100000  0.22360000  0.26600000  0.1667 -0.0466854948
N  N193  1  0.21280000  0.76930000  0.39650000  0.1667 -0.0809139656
N  N194  1  0.23070000  0.21280000  0.39650000  0.1667 -0.0809139656
N  N195  1  0.78720000  0.23070000  0.39650000  0.1667 -0.0809139656
N  N196  1  0.76930000  0.78720000  0.39650000  0.1667 -0.0809139656
N  N197  1  0.21280000  0.60350000  0.76930000  0.1667 -0.0809139656
N  N198  1  0.21280000  0.23070000  0.60350000  0.1667 -0.0809139656
N  N199  1  0.21280000  0.39650000  0.23070000  0.1667 -0.0809139656
N  N200  1  0.39650000  0.76930000  0.78720000  0.1667 -0.0809139656
N  N201  1  0.78720000  0.76930000  0.60350000  0.1667 -0.0809139656
N  N202  1  0.60350000  0.76930000  0.21280000  0.1667 -0.0809139656
N  N203  1  0.39650000  0.21280000  0.76930000  0.1667 -0.0809139656
N  N204  1  0.76930000  0.39650000  0.21280000  0.1667 -0.0809139656
N  N205  1  0.23070000  0.60350000  0.21280000  0.1667 -0.0809139656
N  N206  1  0.39650000  0.78720000  0.23070000  0.1667 -0.0809139656
N  N207  1  0.23070000  0.39650000  0.78720000  0.1667 -0.0809139656
N  N208  1  0.60350000  0.78720000  0.76930000  0.1667 -0.0809139656
N  N209  1  0.60350000  0.21280000  0.23070000  0.1667 -0.0809139656
N  N210  1  0.76930000  0.60350000  0.78720000  0.1667 -0.0809139656
N  N211  1  0.76930000  0.21280000  0.60350000  0.1667 -0.0809139656
N  N212  1  0.23070000  0.78720000  0.60350000  0.1667 -0.0809139656
N  N213  1  0.78720000  0.39650000  0.76930000  0.1667 -0.0809139656
N  N214  1  0.78720000  0.60350000  0.23070000  0.1667 -0.0809139656
N  N215  1  0.39650000  0.23070000  0.21280000  0.1667 -0.0809139656
N  N216  1  0.60350000  0.23070000  0.78720000  0.1667 -0.0809139656
N  N217  1  0.21280000  0.26930000  0.89650000  0.1667 -0.0809139656
N  N218  1  0.23070000  0.71280000  0.89650000  0.1667 -0.0809139656
N  N219  1  0.78720000  0.73070000  0.89650000  0.1667 -0.0809139656
N  N220  1  0.76930000  0.28720000  0.89650000  0.1667 -0.0809139656
N  N221  1  0.21280000  0.10350000  0.26930000  0.1667 -0.0809139656
N  N222  1  0.21280000  0.73070000  0.10350000  0.1667 -0.0809139656
N  N223  1  0.21280000  0.89650000  0.73070000  0.1667 -0.0809139656
N  N224  1  0.39650000  0.26930000  0.28720000  0.1667 -0.0809139656
N  N225  1  0.78720000  0.26930000  0.10350000  0.1667 -0.0809139656
N  N226  1  0.60350000  0.26930000  0.71280000  0.1667 -0.0809139656
N  N227  1  0.39650000  0.71280000  0.26930000  0.1667 -0.0809139656
N  N228  1  0.76930000  0.89650000  0.71280000  0.1667 -0.0809139656
N  N229  1  0.23070000  0.10350000  0.71280000  0.1667 -0.0809139656
N  N230  1  0.39650000  0.28720000  0.73070000  0.1667 -0.0809139656
N  N231  1  0.23070000  0.89650000  0.28720000  0.1667 -0.0809139656
N  N232  1  0.60350000  0.28720000  0.26930000  0.1667 -0.0809139656
N  N233  1  0.60350000  0.71280000  0.73070000  0.1667 -0.0809139656
N  N234  1  0.76930000  0.10350000  0.28720000  0.1667 -0.0809139656
N  N235  1  0.76930000  0.71280000  0.10350000  0.1667 -0.0809139656
N  N236  1  0.23070000  0.28720000  0.10350000  0.1667 -0.0809139656
N  N237  1  0.78720000  0.89650000  0.26930000  0.1667 -0.0809139656
N  N238  1  0.78720000  0.10350000  0.73070000  0.1667 -0.0809139656
N  N239  1  0.39650000  0.73070000  0.71280000  0.1667 -0.0809139656
N  N240  1  0.60350000  0.73070000  0.28720000  0.1667 -0.0809139656
N  N241  1  0.71280000  0.76930000  0.89650000  0.1667 -0.0809139656
N  N242  1  0.73070000  0.21280000  0.89650000  0.1667 -0.0809139656
N  N243  1  0.28720000  0.23070000  0.89650000  0.1667 -0.0809139656
N  N244  1  0.26930000  0.78720000  0.89650000  0.1667 -0.0809139656
N  N245  1  0.71280000  0.60350000  0.26930000  0.1667 -0.0809139656
N  N246  1  0.71280000  0.23070000  0.10350000  0.1667 -0.0809139656
N  N247  1  0.71280000  0.39650000  0.73070000  0.1667 -0.0809139656
N  N248  1  0.89650000  0.76930000  0.28720000  0.1667 -0.0809139656
N  N249  1  0.28720000  0.76930000  0.10350000  0.1667 -0.0809139656
N  N250  1  0.10350000  0.76930000  0.71280000  0.1667 -0.0809139656
N  N251  1  0.89650000  0.21280000  0.26930000  0.1667 -0.0809139656
N  N252  1  0.26930000  0.39650000  0.71280000  0.1667 -0.0809139656
N  N253  1  0.73070000  0.60350000  0.71280000  0.1667 -0.0809139656
N  N254  1  0.89650000  0.78720000  0.73070000  0.1667 -0.0809139656
N  N255  1  0.73070000  0.39650000  0.28720000  0.1667 -0.0809139656
N  N256  1  0.10350000  0.78720000  0.26930000  0.1667 -0.0809139656
N  N257  1  0.10350000  0.21280000  0.73070000  0.1667 -0.0809139656
N  N258  1  0.26930000  0.60350000  0.28720000  0.1667 -0.0809139656
N  N259  1  0.26930000  0.21280000  0.10350000  0.1667 -0.0809139656
N  N260  1  0.73070000  0.78720000  0.10350000  0.1667 -0.0809139656
N  N261  1  0.28720000  0.39650000  0.26930000  0.1667 -0.0809139656
N  N262  1  0.28720000  0.60350000  0.73070000  0.1667 -0.0809139656
N  N263  1  0.89650000  0.23070000  0.71280000  0.1667 -0.0809139656
N  N264  1  0.10350000  0.23070000  0.28720000  0.1667 -0.0809139656
N  N265  1  0.71280000  0.26930000  0.39650000  0.1667 -0.0809139656
N  N266  1  0.73070000  0.71280000  0.39650000  0.1667 -0.0809139656
N  N267  1  0.28720000  0.73070000  0.39650000  0.1667 -0.0809139656
N  N268  1  0.26930000  0.28720000  0.39650000  0.1667 -0.0809139656
N  N269  1  0.71280000  0.10350000  0.76930000  0.1667 -0.0809139656
N  N270  1  0.71280000  0.73070000  0.60350000  0.1667 -0.0809139656
N  N271  1  0.71280000  0.89650000  0.23070000  0.1667 -0.0809139656
N  N272  1  0.89650000  0.26930000  0.78720000  0.1667 -0.0809139656
N  N273  1  0.28720000  0.26930000  0.60350000  0.1667 -0.0809139656
N  N274  1  0.10350000  0.26930000  0.21280000  0.1667 -0.0809139656
N  N275  1  0.89650000  0.71280000  0.76930000  0.1667 -0.0809139656
N  N276  1  0.26930000  0.89650000  0.21280000  0.1667 -0.0809139656
N  N277  1  0.73070000  0.10350000  0.21280000  0.1667 -0.0809139656
N  N278  1  0.89650000  0.28720000  0.23070000  0.1667 -0.0809139656
N  N279  1  0.73070000  0.89650000  0.78720000  0.1667 -0.0809139656
N  N280  1  0.10350000  0.28720000  0.76930000  0.1667 -0.0809139656
N  N281  1  0.10350000  0.71280000  0.23070000  0.1667 -0.0809139656
N  N282  1  0.26930000  0.10350000  0.78720000  0.1667 -0.0809139656
N  N283  1  0.26930000  0.71280000  0.60350000  0.1667 -0.0809139656
N  N284  1  0.73070000  0.28720000  0.60350000  0.1667 -0.0809139656
N  N285  1  0.28720000  0.89650000  0.76930000  0.1667 -0.0809139656
N  N286  1  0.28720000  0.10350000  0.23070000  0.1667 -0.0809139656
N  N287  1  0.89650000  0.73070000  0.21280000  0.1667 -0.0809139656
N  N288  1  0.10350000  0.73070000  0.78720000  0.1667 -0.0809139656
N  N289  1  0.78720000  0.23070000  0.60350000  0.1667 -0.0809139656
N  N290  1  0.76930000  0.78720000  0.60350000  0.1667 -0.0809139656
N  N291  1  0.21280000  0.76930000  0.60350000  0.1667 -0.0809139656
N  N292  1  0.23070000  0.21280000  0.60350000  0.1667 -0.0809139656
N  N293  1  0.78720000  0.39650000  0.23070000  0.1667 -0.0809139656
N  N294  1  0.78720000  0.76930000  0.39650000  0.1667 -0.0809139656
N  N295  1  0.78720000  0.60350000  0.76930000  0.1667 -0.0809139656
N  N296  1  0.60350000  0.23070000  0.21280000  0.1667 -0.0809139656
N  N297  1  0.21280000  0.23070000  0.39650000  0.1667 -0.0809139656
N  N298  1  0.39650000  0.23070000  0.78720000  0.1667 -0.0809139656
N  N299  1  0.60350000  0.78720000  0.23070000  0.1667 -0.0809139656
N  N300  1  0.23070000  0.60350000  0.78720000  0.1667 -0.0809139656
N  N301  1  0.76930000  0.39650000  0.78720000  0.1667 -0.0809139656
N  N302  1  0.60350000  0.21280000  0.76930000  0.1667 -0.0809139656
N  N303  1  0.76930000  0.60350000  0.21280000  0.1667 -0.0809139656
N  N304  1  0.39650000  0.21280000  0.23070000  0.1667 -0.0809139656
N  N305  1  0.39650000  0.78720000  0.76930000  0.1667 -0.0809139656
N  N306  1  0.23070000  0.39650000  0.21280000  0.1667 -0.0809139656
N  N307  1  0.23070000  0.78720000  0.39650000  0.1667 -0.0809139656
N  N308  1  0.76930000  0.21280000  0.39650000  0.1667 -0.0809139656
N  N309  1  0.21280000  0.60350000  0.23070000  0.1667 -0.0809139656
N  N310  1  0.21280000  0.39650000  0.76930000  0.1667 -0.0809139656
N  N311  1  0.60350000  0.76930000  0.78720000  0.1667 -0.0809139656
N  N312  1  0.39650000  0.76930000  0.21280000  0.1667 -0.0809139656
N  N313  1  0.78720000  0.73070000  0.10350000  0.1667 -0.0809139656
N  N314  1  0.76930000  0.28720000  0.10350000  0.1667 -0.0809139656
N  N315  1  0.21280000  0.26930000  0.10350000  0.1667 -0.0809139656
N  N316  1  0.23070000  0.71280000  0.10350000  0.1667 -0.0809139656
N  N317  1  0.78720000  0.89650000  0.73070000  0.1667 -0.0809139656
N  N318  1  0.78720000  0.26930000  0.89650000  0.1667 -0.0809139656
N  N319  1  0.78720000  0.10350000  0.26930000  0.1667 -0.0809139656
N  N320  1  0.60350000  0.73070000  0.71280000  0.1667 -0.0809139656
N  N321  1  0.21280000  0.73070000  0.89650000  0.1667 -0.0809139656
N  N322  1  0.39650000  0.73070000  0.28720000  0.1667 -0.0809139656
N  N323  1  0.60350000  0.28720000  0.73070000  0.1667 -0.0809139656
N  N324  1  0.23070000  0.10350000  0.28720000  0.1667 -0.0809139656
N  N325  1  0.76930000  0.89650000  0.28720000  0.1667 -0.0809139656
N  N326  1  0.60350000  0.71280000  0.26930000  0.1667 -0.0809139656
N  N327  1  0.76930000  0.10350000  0.71280000  0.1667 -0.0809139656
N  N328  1  0.39650000  0.71280000  0.73070000  0.1667 -0.0809139656
N  N329  1  0.39650000  0.28720000  0.26930000  0.1667 -0.0809139656
N  N330  1  0.23070000  0.89650000  0.71280000  0.1667 -0.0809139656
N  N331  1  0.23070000  0.28720000  0.89650000  0.1667 -0.0809139656
N  N332  1  0.76930000  0.71280000  0.89650000  0.1667 -0.0809139656
N  N333  1  0.21280000  0.10350000  0.73070000  0.1667 -0.0809139656
N  N334  1  0.21280000  0.89650000  0.26930000  0.1667 -0.0809139656
N  N335  1  0.60350000  0.26930000  0.28720000  0.1667 -0.0809139656
N  N336  1  0.39650000  0.26930000  0.71280000  0.1667 -0.0809139656
N  N337  1  0.28720000  0.23070000  0.10350000  0.1667 -0.0809139656
N  N338  1  0.26930000  0.78720000  0.10350000  0.1667 -0.0809139656
N  N339  1  0.71280000  0.76930000  0.10350000  0.1667 -0.0809139656
N  N340  1  0.73070000  0.21280000  0.10350000  0.1667 -0.0809139656
N  N341  1  0.28720000  0.39650000  0.73070000  0.1667 -0.0809139656
N  N342  1  0.28720000  0.76930000  0.89650000  0.1667 -0.0809139656
N  N343  1  0.28720000  0.60350000  0.26930000  0.1667 -0.0809139656
N  N344  1  0.10350000  0.23070000  0.71280000  0.1667 -0.0809139656
N  N345  1  0.71280000  0.23070000  0.89650000  0.1667 -0.0809139656
N  N346  1  0.89650000  0.23070000  0.28720000  0.1667 -0.0809139656
N  N347  1  0.10350000  0.78720000  0.73070000  0.1667 -0.0809139656
N  N348  1  0.73070000  0.60350000  0.28720000  0.1667 -0.0809139656
N  N349  1  0.26930000  0.39650000  0.28720000  0.1667 -0.0809139656
N  N350  1  0.10350000  0.21280000  0.26930000  0.1667 -0.0809139656
N  N351  1  0.26930000  0.60350000  0.71280000  0.1667 -0.0809139656
N  N352  1  0.89650000  0.21280000  0.73070000  0.1667 -0.0809139656
N  N353  1  0.89650000  0.78720000  0.26930000  0.1667 -0.0809139656
N  N354  1  0.73070000  0.39650000  0.71280000  0.1667 -0.0809139656
N  N355  1  0.73070000  0.78720000  0.89650000  0.1667 -0.0809139656
N  N356  1  0.26930000  0.21280000  0.89650000  0.1667 -0.0809139656
N  N357  1  0.71280000  0.60350000  0.73070000  0.1667 -0.0809139656
N  N358  1  0.71280000  0.39650000  0.26930000  0.1667 -0.0809139656
N  N359  1  0.10350000  0.76930000  0.28720000  0.1667 -0.0809139656
N  N360  1  0.89650000  0.76930000  0.71280000  0.1667 -0.0809139656
N  N361  1  0.28720000  0.73070000  0.60350000  0.1667 -0.0809139656
N  N362  1  0.26930000  0.28720000  0.60350000  0.1667 -0.0809139656
N  N363  1  0.71280000  0.26930000  0.60350000  0.1667 -0.0809139656
N  N364  1  0.73070000  0.71280000  0.60350000  0.1667 -0.0809139656
N  N365  1  0.28720000  0.89650000  0.23070000  0.1667 -0.0809139656
N  N366  1  0.28720000  0.26930000  0.39650000  0.1667 -0.0809139656
N  N367  1  0.28720000  0.10350000  0.76930000  0.1667 -0.0809139656
N  N368  1  0.10350000  0.73070000  0.21280000  0.1667 -0.0809139656
N  N369  1  0.71280000  0.73070000  0.39650000  0.1667 -0.0809139656
N  N370  1  0.89650000  0.73070000  0.78720000  0.1667 -0.0809139656
N  N371  1  0.10350000  0.28720000  0.23070000  0.1667 -0.0809139656
N  N372  1  0.73070000  0.10350000  0.78720000  0.1667 -0.0809139656
N  N373  1  0.26930000  0.89650000  0.78720000  0.1667 -0.0809139656
N  N374  1  0.10350000  0.71280000  0.76930000  0.1667 -0.0809139656
N  N375  1  0.26930000  0.10350000  0.21280000  0.1667 -0.0809139656
N  N376  1  0.89650000  0.71280000  0.23070000  0.1667 -0.0809139656
N  N377  1  0.89650000  0.28720000  0.76930000  0.1667 -0.0809139656
N  N378  1  0.73070000  0.89650000  0.21280000  0.1667 -0.0809139656
N  N379  1  0.73070000  0.28720000  0.39650000  0.1667 -0.0809139656
N  N380  1  0.26930000  0.71280000  0.39650000  0.1667 -0.0809139656
N  N381  1  0.71280000  0.10350000  0.23070000  0.1667 -0.0809139656
N  N382  1  0.71280000  0.89650000  0.76930000  0.1667 -0.0809139656
N  N383  1  0.10350000  0.26930000  0.78720000  0.1667 -0.0809139656
N  N384  1  0.89650000  0.26930000  0.21280000  0.1667 -0.0809139656
O  O1  1  0.25000000  0.75000000  0.25000000  1.0 -0.1663068529
O  O2  1  0.25000000  0.25000000  0.25000000  1.0 -0.1663068529
O  O3  1  0.75000000  0.25000000  0.25000000  1.0 -0.1663068529
O  O4  1  0.75000000  0.75000000  0.25000000  1.0 -0.1663068529
O  O5  1  0.25000000  0.75000000  0.75000000  1.0 -0.1663068529
O  O6  1  0.25000000  0.25000000  0.75000000  1.0 -0.1663068529
O  O7  1  0.75000000  0.75000000  0.75000000  1.0 -0.1663068529
O  O8  1  0.75000000  0.25000000  0.75000000  1.0 -0.1663068529
O  O9  1  0.21640000  0.78430000  0.60230000  0.1667 -0.1453700695
O  O10  1  0.21570000  0.21640000  0.60230000  0.1667 -0.1453700695
O  O11  1  0.78360000  0.21570000  0.60230000  0.1667 -0.1453700695
O  O12  1  0.78430000  0.78360000  0.60230000  0.1667 -0.1453700695
O  O13  1  0.21640000  0.39770000  0.78430000  0.1667 -0.1453700695
O  O14  1  0.21640000  0.21570000  0.39770000  0.1667 -0.1453700695
O  O15  1  0.21640000  0.60230000  0.21570000  0.1667 -0.1453700695
O  O16  1  0.60230000  0.78430000  0.78360000  0.1667 -0.1453700695
O  O17  1  0.78360000  0.78430000  0.39770000  0.1667 -0.1453700695
O  O18  1  0.39770000  0.78430000  0.21640000  0.1667 -0.1453700695
O  O19  1  0.60230000  0.21640000  0.78430000  0.1667 -0.1453700695
O  O20  1  0.78430000  0.60230000  0.21640000  0.1667 -0.1453700695
O  O21  1  0.21570000  0.39770000  0.21640000  0.1667 -0.1453700695
O  O22  1  0.60230000  0.78360000  0.21570000  0.1667 -0.1453700695
O  O23  1  0.21570000  0.60230000  0.78360000  0.1667 -0.1453700695
O  O24  1  0.39770000  0.78360000  0.78430000  0.1667 -0.1453700695
O  O25  1  0.39770000  0.21640000  0.21570000  0.1667 -0.1453700695
O  O26  1  0.78430000  0.39770000  0.78360000  0.1667 -0.1453700695
O  O27  1  0.78430000  0.21640000  0.39770000  0.1667 -0.1453700695
O  O28  1  0.21570000  0.78360000  0.39770000  0.1667 -0.1453700695
O  O29  1  0.78360000  0.60230000  0.78430000  0.1667 -0.1453700695
O  O30  1  0.78360000  0.39770000  0.21570000  0.1667 -0.1453700695
O  O31  1  0.60230000  0.21570000  0.21640000  0.1667 -0.1453700695
O  O32  1  0.39770000  0.21570000  0.78360000  0.1667 -0.1453700695
O  O33  1  0.21640000  0.28430000  0.10230000  0.1667 -0.1453700695
O  O34  1  0.21570000  0.71640000  0.10230000  0.1667 -0.1453700695
O  O35  1  0.78360000  0.71570000  0.10230000  0.1667 -0.1453700695
O  O36  1  0.78430000  0.28360000  0.10230000  0.1667 -0.1453700695
O  O37  1  0.21640000  0.89770000  0.28430000  0.1667 -0.1453700695
O  O38  1  0.21640000  0.71570000  0.89770000  0.1667 -0.1453700695
O  O39  1  0.21640000  0.10230000  0.71570000  0.1667 -0.1453700695
O  O40  1  0.60230000  0.28430000  0.28360000  0.1667 -0.1453700695
O  O41  1  0.78360000  0.28430000  0.89770000  0.1667 -0.1453700695
O  O42  1  0.39770000  0.28430000  0.71640000  0.1667 -0.1453700695
O  O43  1  0.60230000  0.71640000  0.28430000  0.1667 -0.1453700695
O  O44  1  0.78430000  0.10230000  0.71640000  0.1667 -0.1453700695
O  O45  1  0.21570000  0.89770000  0.71640000  0.1667 -0.1453700695
O  O46  1  0.60230000  0.28360000  0.71570000  0.1667 -0.1453700695
O  O47  1  0.21570000  0.10230000  0.28360000  0.1667 -0.1453700695
O  O48  1  0.39770000  0.28360000  0.28430000  0.1667 -0.1453700695
O  O49  1  0.39770000  0.71640000  0.71570000  0.1667 -0.1453700695
O  O50  1  0.78430000  0.89770000  0.28360000  0.1667 -0.1453700695
O  O51  1  0.78430000  0.71640000  0.89770000  0.1667 -0.1453700695
O  O52  1  0.21570000  0.28360000  0.89770000  0.1667 -0.1453700695
O  O53  1  0.78360000  0.10230000  0.28430000  0.1667 -0.1453700695
O  O54  1  0.78360000  0.89770000  0.71570000  0.1667 -0.1453700695
O  O55  1  0.60230000  0.71570000  0.71640000  0.1667 -0.1453700695
O  O56  1  0.39770000  0.71570000  0.28360000  0.1667 -0.1453700695
O  O57  1  0.71640000  0.78430000  0.10230000  0.1667 -0.1453700695
O  O58  1  0.71570000  0.21640000  0.10230000  0.1667 -0.1453700695
O  O59  1  0.28360000  0.21570000  0.10230000  0.1667 -0.1453700695
O  O60  1  0.28430000  0.78360000  0.10230000  0.1667 -0.1453700695
O  O61  1  0.71640000  0.39770000  0.28430000  0.1667 -0.1453700695
O  O62  1  0.71640000  0.21570000  0.89770000  0.1667 -0.1453700695
O  O63  1  0.71640000  0.60230000  0.71570000  0.1667 -0.1453700695
O  O64  1  0.10230000  0.78430000  0.28360000  0.1667 -0.1453700695
O  O65  1  0.28360000  0.78430000  0.89770000  0.1667 -0.1453700695
O  O66  1  0.89770000  0.78430000  0.71640000  0.1667 -0.1453700695
O  O67  1  0.10230000  0.21640000  0.28430000  0.1667 -0.1453700695
O  O68  1  0.28430000  0.60230000  0.71640000  0.1667 -0.1453700695
O  O69  1  0.71570000  0.39770000  0.71640000  0.1667 -0.1453700695
O  O70  1  0.10230000  0.78360000  0.71570000  0.1667 -0.1453700695
O  O71  1  0.71570000  0.60230000  0.28360000  0.1667 -0.1453700695
O  O72  1  0.89770000  0.78360000  0.28430000  0.1667 -0.1453700695
O  O73  1  0.89770000  0.21640000  0.71570000  0.1667 -0.1453700695
O  O74  1  0.28430000  0.39770000  0.28360000  0.1667 -0.1453700695
O  O75  1  0.28430000  0.21640000  0.89770000  0.1667 -0.1453700695
O  O76  1  0.71570000  0.78360000  0.89770000  0.1667 -0.1453700695
O  O77  1  0.28360000  0.60230000  0.28430000  0.1667 -0.1453700695
O  O78  1  0.28360000  0.39770000  0.71570000  0.1667 -0.1453700695
O  O79  1  0.10230000  0.21570000  0.71640000  0.1667 -0.1453700695
O  O80  1  0.89770000  0.21570000  0.28360000  0.1667 -0.1453700695
O  O81  1  0.71640000  0.28430000  0.60230000  0.1667 -0.1453700695
O  O82  1  0.71570000  0.71640000  0.60230000  0.1667 -0.1453700695
O  O83  1  0.28360000  0.71570000  0.60230000  0.1667 -0.1453700695
O  O84  1  0.28430000  0.28360000  0.60230000  0.1667 -0.1453700695
O  O85  1  0.71640000  0.89770000  0.78430000  0.1667 -0.1453700695
O  O86  1  0.71640000  0.71570000  0.39770000  0.1667 -0.1453700695
O  O87  1  0.71640000  0.10230000  0.21570000  0.1667 -0.1453700695
O  O88  1  0.10230000  0.28430000  0.78360000  0.1667 -0.1453700695
O  O89  1  0.28360000  0.28430000  0.39770000  0.1667 -0.1453700695
O  O90  1  0.89770000  0.28430000  0.21640000  0.1667 -0.1453700695
O  O91  1  0.10230000  0.71640000  0.78430000  0.1667 -0.1453700695
O  O92  1  0.28430000  0.10230000  0.21640000  0.1667 -0.1453700695
O  O93  1  0.71570000  0.89770000  0.21640000  0.1667 -0.1453700695
O  O94  1  0.10230000  0.28360000  0.21570000  0.1667 -0.1453700695
O  O95  1  0.71570000  0.10230000  0.78360000  0.1667 -0.1453700695
O  O96  1  0.89770000  0.28360000  0.78430000  0.1667 -0.1453700695
O  O97  1  0.89770000  0.71640000  0.21570000  0.1667 -0.1453700695
O  O98  1  0.28430000  0.89770000  0.78360000  0.1667 -0.1453700695
O  O99  1  0.28430000  0.71640000  0.39770000  0.1667 -0.1453700695
O  O100  1  0.71570000  0.28360000  0.39770000  0.1667 -0.1453700695
O  O101  1  0.28360000  0.10230000  0.78430000  0.1667 -0.1453700695
O  O102  1  0.28360000  0.89770000  0.21570000  0.1667 -0.1453700695
O  O103  1  0.10230000  0.71570000  0.21640000  0.1667 -0.1453700695
O  O104  1  0.89770000  0.71570000  0.78360000  0.1667 -0.1453700695
O  O105  1  0.29990000  0.71310000  0.60050000  0.1667 -0.0809139656
O  O106  1  0.28690000  0.29990000  0.60050000  0.1667 -0.0809139656
O  O107  1  0.70010000  0.28690000  0.60050000  0.1667 -0.0809139656
O  O108  1  0.71310000  0.70010000  0.60050000  0.1667 -0.0809139656
O  O109  1  0.29990000  0.39950000  0.71310000  0.1667 -0.0809139656
O  O110  1  0.29990000  0.28690000  0.39950000  0.1667 -0.0809139656
O  O111  1  0.29990000  0.60050000  0.28690000  0.1667 -0.0809139656
O  O112  1  0.60050000  0.71310000  0.70010000  0.1667 -0.0809139656
O  O113  1  0.70010000  0.71310000  0.39950000  0.1667 -0.0809139656
O  O114  1  0.39950000  0.71310000  0.29990000  0.1667 -0.0809139656
O  O115  1  0.60050000  0.29990000  0.71310000  0.1667 -0.0809139656
O  O116  1  0.71310000  0.60050000  0.29990000  0.1667 -0.0809139656
O  O117  1  0.28690000  0.39950000  0.29990000  0.1667 -0.0809139656
O  O118  1  0.60050000  0.70010000  0.28690000  0.1667 -0.0809139656
O  O119  1  0.28690000  0.60050000  0.70010000  0.1667 -0.0809139656
O  O120  1  0.39950000  0.70010000  0.71310000  0.1667 -0.0809139656
O  O121  1  0.39950000  0.29990000  0.28690000  0.1667 -0.0809139656
O  O122  1  0.71310000  0.39950000  0.70010000  0.1667 -0.0809139656
O  O123  1  0.71310000  0.29990000  0.39950000  0.1667 -0.0809139656
O  O124  1  0.28690000  0.70010000  0.39950000  0.1667 -0.0809139656
O  O125  1  0.70010000  0.60050000  0.71310000  0.1667 -0.0809139656
O  O126  1  0.70010000  0.39950000  0.28690000  0.1667 -0.0809139656
O  O127  1  0.60050000  0.28690000  0.29990000  0.1667 -0.0809139656
O  O128  1  0.39950000  0.28690000  0.70010000  0.1667 -0.0809139656
O  O129  1  0.29990000  0.21310000  0.10050000  0.1667 -0.0809139656
O  O130  1  0.28690000  0.79990000  0.10050000  0.1667 -0.0809139656
O  O131  1  0.70010000  0.78690000  0.10050000  0.1667 -0.0809139656
O  O132  1  0.71310000  0.20010000  0.10050000  0.1667 -0.0809139656
O  O133  1  0.29990000  0.89950000  0.21310000  0.1667 -0.0809139656
O  O134  1  0.29990000  0.78690000  0.89950000  0.1667 -0.0809139656
O  O135  1  0.29990000  0.10050000  0.78690000  0.1667 -0.0809139656
O  O136  1  0.60050000  0.21310000  0.20010000  0.1667 -0.0809139656
O  O137  1  0.70010000  0.21310000  0.89950000  0.1667 -0.0809139656
O  O138  1  0.39950000  0.21310000  0.79990000  0.1667 -0.0809139656
O  O139  1  0.60050000  0.79990000  0.21310000  0.1667 -0.0809139656
O  O140  1  0.71310000  0.10050000  0.79990000  0.1667 -0.0809139656
O  O141  1  0.28690000  0.89950000  0.79990000  0.1667 -0.0809139656
O  O142  1  0.60050000  0.20010000  0.78690000  0.1667 -0.0809139656
O  O143  1  0.28690000  0.10050000  0.20010000  0.1667 -0.0809139656
O  O144  1  0.39950000  0.20010000  0.21310000  0.1667 -0.0809139656
O  O145  1  0.39950000  0.79990000  0.78690000  0.1667 -0.0809139656
O  O146  1  0.71310000  0.89950000  0.20010000  0.1667 -0.0809139656
O  O147  1  0.71310000  0.79990000  0.89950000  0.1667 -0.0809139656
O  O148  1  0.28690000  0.20010000  0.89950000  0.1667 -0.0809139656
O  O149  1  0.70010000  0.10050000  0.21310000  0.1667 -0.0809139656
O  O150  1  0.70010000  0.89950000  0.78690000  0.1667 -0.0809139656
O  O151  1  0.60050000  0.78690000  0.79990000  0.1667 -0.0809139656
O  O152  1  0.39950000  0.78690000  0.20010000  0.1667 -0.0809139656
O  O153  1  0.79990000  0.71310000  0.10050000  0.1667 -0.0809139656
O  O154  1  0.78690000  0.29990000  0.10050000  0.1667 -0.0809139656
O  O155  1  0.20010000  0.28690000  0.10050000  0.1667 -0.0809139656
O  O156  1  0.21310000  0.70010000  0.10050000  0.1667 -0.0809139656
O  O157  1  0.79990000  0.39950000  0.21310000  0.1667 -0.0809139656
O  O158  1  0.79990000  0.28690000  0.89950000  0.1667 -0.0809139656
O  O159  1  0.79990000  0.60050000  0.78690000  0.1667 -0.0809139656
O  O160  1  0.10050000  0.71310000  0.20010000  0.1667 -0.0809139656
O  O161  1  0.20010000  0.71310000  0.89950000  0.1667 -0.0809139656
O  O162  1  0.89950000  0.71310000  0.79990000  0.1667 -0.0809139656
O  O163  1  0.10050000  0.29990000  0.21310000  0.1667 -0.0809139656
O  O164  1  0.21310000  0.60050000  0.79990000  0.1667 -0.0809139656
O  O165  1  0.78690000  0.39950000  0.79990000  0.1667 -0.0809139656
O  O166  1  0.10050000  0.70010000  0.78690000  0.1667 -0.0809139656
O  O167  1  0.78690000  0.60050000  0.20010000  0.1667 -0.0809139656
O  O168  1  0.89950000  0.70010000  0.21310000  0.1667 -0.0809139656
O  O169  1  0.89950000  0.29990000  0.78690000  0.1667 -0.0809139656
O  O170  1  0.21310000  0.39950000  0.20010000  0.1667 -0.0809139656
O  O171  1  0.21310000  0.29990000  0.89950000  0.1667 -0.0809139656
O  O172  1  0.78690000  0.70010000  0.89950000  0.1667 -0.0809139656
O  O173  1  0.20010000  0.60050000  0.21310000  0.1667 -0.0809139656
O  O174  1  0.20010000  0.39950000  0.78690000  0.1667 -0.0809139656
O  O175  1  0.10050000  0.28690000  0.79990000  0.1667 -0.0809139656
O  O176  1  0.89950000  0.28690000  0.20010000  0.1667 -0.0809139656
O  O177  1  0.79990000  0.21310000  0.60050000  0.1667 -0.0809139656
O  O178  1  0.78690000  0.79990000  0.60050000  0.1667 -0.0809139656
O  O179  1  0.20010000  0.78690000  0.60050000  0.1667 -0.0809139656
O  O180  1  0.21310000  0.20010000  0.60050000  0.1667 -0.0809139656
O  O181  1  0.79990000  0.89950000  0.71310000  0.1667 -0.0809139656
O  O182  1  0.79990000  0.78690000  0.39950000  0.1667 -0.0809139656
O  O183  1  0.79990000  0.10050000  0.28690000  0.1667 -0.0809139656
O  O184  1  0.10050000  0.21310000  0.70010000  0.1667 -0.0809139656
O  O185  1  0.20010000  0.21310000  0.39950000  0.1667 -0.0809139656
O  O186  1  0.89950000  0.21310000  0.29990000  0.1667 -0.0809139656
O  O187  1  0.10050000  0.79990000  0.71310000  0.1667 -0.0809139656
O  O188  1  0.21310000  0.10050000  0.29990000  0.1667 -0.0809139656
O  O189  1  0.78690000  0.89950000  0.29990000  0.1667 -0.0809139656
O  O190  1  0.10050000  0.20010000  0.28690000  0.1667 -0.0809139656
O  O191  1  0.78690000  0.10050000  0.70010000  0.1667 -0.0809139656
O  O192  1  0.89950000  0.20010000  0.71310000  0.1667 -0.0809139656
O  O193  1  0.89950000  0.79990000  0.28690000  0.1667 -0.0809139656
O  O194  1  0.21310000  0.89950000  0.70010000  0.1667 -0.0809139656
O  O195  1  0.21310000  0.79990000  0.39950000  0.1667 -0.0809139656
O  O196  1  0.78690000  0.20010000  0.39950000  0.1667 -0.0809139656
O  O197  1  0.20010000  0.10050000  0.71310000  0.1667 -0.0809139656
O  O198  1  0.20010000  0.89950000  0.28690000  0.1667 -0.0809139656
O  O199  1  0.10050000  0.78690000  0.29990000  0.1667 -0.0809139656
O  O200  1  0.89950000  0.78690000  0.70010000  0.1667 -0.0809139656
O  O201  1  0.70010000  0.28690000  0.39950000  0.1667 -0.0809139656
O  O202  1  0.71310000  0.70010000  0.39950000  0.1667 -0.0809139656
O  O203  1  0.29990000  0.71310000  0.39950000  0.1667 -0.0809139656
O  O204  1  0.28690000  0.29990000  0.39950000  0.1667 -0.0809139656
O  O205  1  0.70010000  0.60050000  0.28690000  0.1667 -0.0809139656
O  O206  1  0.70010000  0.71310000  0.60050000  0.1667 -0.0809139656
O  O207  1  0.70010000  0.39950000  0.71310000  0.1667 -0.0809139656
O  O208  1  0.39950000  0.28690000  0.29990000  0.1667 -0.0809139656
O  O209  1  0.29990000  0.28690000  0.60050000  0.1667 -0.0809139656
O  O210  1  0.60050000  0.28690000  0.70010000  0.1667 -0.0809139656
O  O211  1  0.39950000  0.70010000  0.28690000  0.1667 -0.0809139656
O  O212  1  0.28690000  0.39950000  0.70010000  0.1667 -0.0809139656
O  O213  1  0.71310000  0.60050000  0.70010000  0.1667 -0.0809139656
O  O214  1  0.39950000  0.29990000  0.71310000  0.1667 -0.0809139656
O  O215  1  0.71310000  0.39950000  0.29990000  0.1667 -0.0809139656
O  O216  1  0.60050000  0.29990000  0.28690000  0.1667 -0.0809139656
O  O217  1  0.60050000  0.70010000  0.71310000  0.1667 -0.0809139656
O  O218  1  0.28690000  0.60050000  0.29990000  0.1667 -0.0809139656
O  O219  1  0.28690000  0.70010000  0.60050000  0.1667 -0.0809139656
O  O220  1  0.71310000  0.29990000  0.60050000  0.1667 -0.0809139656
O  O221  1  0.29990000  0.39950000  0.28690000  0.1667 -0.0809139656
O  O222  1  0.29990000  0.60050000  0.71310000  0.1667 -0.0809139656
O  O223  1  0.39950000  0.71310000  0.70010000  0.1667 -0.0809139656
O  O224  1  0.60050000  0.71310000  0.29990000  0.1667 -0.0809139656
O  O225  1  0.70010000  0.78690000  0.89950000  0.1667 -0.0809139656
O  O226  1  0.71310000  0.20010000  0.89950000  0.1667 -0.0809139656
O  O227  1  0.29990000  0.21310000  0.89950000  0.1667 -0.0809139656
O  O228  1  0.28690000  0.79990000  0.89950000  0.1667 -0.0809139656
O  O229  1  0.70010000  0.10050000  0.78690000  0.1667 -0.0809139656
O  O230  1  0.70010000  0.21310000  0.10050000  0.1667 -0.0809139656
O  O231  1  0.70010000  0.89950000  0.21310000  0.1667 -0.0809139656
O  O232  1  0.39950000  0.78690000  0.79990000  0.1667 -0.0809139656
O  O233  1  0.29990000  0.78690000  0.10050000  0.1667 -0.0809139656
O  O234  1  0.60050000  0.78690000  0.20010000  0.1667 -0.0809139656
O  O235  1  0.39950000  0.20010000  0.78690000  0.1667 -0.0809139656
O  O236  1  0.28690000  0.89950000  0.20010000  0.1667 -0.0809139656
O  O237  1  0.71310000  0.10050000  0.20010000  0.1667 -0.0809139656
O  O238  1  0.39950000  0.79990000  0.21310000  0.1667 -0.0809139656
O  O239  1  0.71310000  0.89950000  0.79990000  0.1667 -0.0809139656
O  O240  1  0.60050000  0.79990000  0.78690000  0.1667 -0.0809139656
O  O241  1  0.60050000  0.20010000  0.21310000  0.1667 -0.0809139656
O  O242  1  0.28690000  0.10050000  0.79990000  0.1667 -0.0809139656
O  O243  1  0.28690000  0.20010000  0.10050000  0.1667 -0.0809139656
O  O244  1  0.71310000  0.79990000  0.10050000  0.1667 -0.0809139656
O  O245  1  0.29990000  0.89950000  0.78690000  0.1667 -0.0809139656
O  O246  1  0.29990000  0.10050000  0.21310000  0.1667 -0.0809139656
O  O247  1  0.39950000  0.21310000  0.20010000  0.1667 -0.0809139656
O  O248  1  0.60050000  0.21310000  0.79990000  0.1667 -0.0809139656
O  O249  1  0.20010000  0.28690000  0.89950000  0.1667 -0.0809139656
O  O250  1  0.21310000  0.70010000  0.89950000  0.1667 -0.0809139656
O  O251  1  0.79990000  0.71310000  0.89950000  0.1667 -0.0809139656
O  O252  1  0.78690000  0.29990000  0.89950000  0.1667 -0.0809139656
O  O253  1  0.20010000  0.60050000  0.78690000  0.1667 -0.0809139656
O  O254  1  0.20010000  0.71310000  0.10050000  0.1667 -0.0809139656
O  O255  1  0.20010000  0.39950000  0.21310000  0.1667 -0.0809139656
O  O256  1  0.89950000  0.28690000  0.79990000  0.1667 -0.0809139656
O  O257  1  0.79990000  0.28690000  0.10050000  0.1667 -0.0809139656
O  O258  1  0.10050000  0.28690000  0.20010000  0.1667 -0.0809139656
O  O259  1  0.89950000  0.70010000  0.78690000  0.1667 -0.0809139656
O  O260  1  0.78690000  0.39950000  0.20010000  0.1667 -0.0809139656
O  O261  1  0.21310000  0.60050000  0.20010000  0.1667 -0.0809139656
O  O262  1  0.89950000  0.29990000  0.21310000  0.1667 -0.0809139656
O  O263  1  0.21310000  0.39950000  0.79990000  0.1667 -0.0809139656
O  O264  1  0.10050000  0.29990000  0.78690000  0.1667 -0.0809139656
O  O265  1  0.10050000  0.70010000  0.21310000  0.1667 -0.0809139656
O  O266  1  0.78690000  0.60050000  0.79990000  0.1667 -0.0809139656
O  O267  1  0.78690000  0.70010000  0.10050000  0.1667 -0.0809139656
O  O268  1  0.21310000  0.29990000  0.10050000  0.1667 -0.0809139656
O  O269  1  0.79990000  0.39950000  0.78690000  0.1667 -0.0809139656
O  O270  1  0.79990000  0.60050000  0.21310000  0.1667 -0.0809139656
O  O271  1  0.89950000  0.71310000  0.20010000  0.1667 -0.0809139656
O  O272  1  0.10050000  0.71310000  0.79990000  0.1667 -0.0809139656
O  O273  1  0.20010000  0.78690000  0.39950000  0.1667 -0.0809139656
O  O274  1  0.21310000  0.20010000  0.39950000  0.1667 -0.0809139656
O  O275  1  0.79990000  0.21310000  0.39950000  0.1667 -0.0809139656
O  O276  1  0.78690000  0.79990000  0.39950000  0.1667 -0.0809139656
O  O277  1  0.20010000  0.10050000  0.28690000  0.1667 -0.0809139656
O  O278  1  0.20010000  0.21310000  0.60050000  0.1667 -0.0809139656
O  O279  1  0.20010000  0.89950000  0.71310000  0.1667 -0.0809139656
O  O280  1  0.89950000  0.78690000  0.29990000  0.1667 -0.0809139656
O  O281  1  0.79990000  0.78690000  0.60050000  0.1667 -0.0809139656
O  O282  1  0.10050000  0.78690000  0.70010000  0.1667 -0.0809139656
O  O283  1  0.89950000  0.20010000  0.28690000  0.1667 -0.0809139656
O  O284  1  0.78690000  0.89950000  0.70010000  0.1667 -0.0809139656
O  O285  1  0.21310000  0.10050000  0.70010000  0.1667 -0.0809139656
O  O286  1  0.89950000  0.79990000  0.71310000  0.1667 -0.0809139656
O  O287  1  0.21310000  0.89950000  0.29990000  0.1667 -0.0809139656
O  O288  1  0.10050000  0.79990000  0.28690000  0.1667 -0.0809139656
O  O289  1  0.10050000  0.20010000  0.71310000  0.1667 -0.0809139656
O  O290  1  0.78690000  0.10050000  0.29990000  0.1667 -0.0809139656
O  O291  1  0.78690000  0.20010000  0.60050000  0.1667 -0.0809139656
O  O292  1  0.21310000  0.79990000  0.60050000  0.1667 -0.0809139656
O  O293  1  0.79990000  0.89950000  0.28690000  0.1667 -0.0809139656
O  O294  1  0.79990000  0.10050000  0.71310000  0.1667 -0.0809139656
O  O295  1  0.89950000  0.21310000  0.70010000  0.1667 -0.0809139656
O  O296  1  0.10050000  0.21310000  0.29990000  0.1667 -0.0809139656
