# DDEC6 charges by PACMAN v1.1 (https://github.com/mtap-research/PACMAN-charge/)
data_c6dt03969c2_2_FSR_pacman
_symmetry_space_group_name_H-M   'P 1'
_cell_length_a   36.57430000
_cell_length_b   36.57430000
_cell_length_c   52.97250000
_cell_angle_alpha   90.00000000
_cell_angle_beta   90.00000000
_cell_angle_gamma   90.00000000
_symmetry_Int_Tables_number   1
_chemical_formula_structural   Zn93H1451C2166(Cl93O395)2
_chemical_formula_sum   'Zn93 H1451 C2166 Cl186 O790'
_cell_volume   70860.22310191
_cell_formula_units_Z   1
loop_
 _symmetry_equiv_pos_site_id
 _symmetry_equiv_pos_as_xyz
  1  'x, y, z'
loop_
 _atom_site_type_symbol
 _atom_site_label
 _atom_site_symmetry_multiplicity
 _atom_site_fract_x
 _atom_site_fract_y
 _atom_site_fract_z
 _atom_site_occupancy
 _atom_site_charge
Zn  Zn1  1  0.50076000  0.61629000  0.43368000  1.0 0.9679058635
Zn  Zn2  1  0.13371000  0.75076000  0.68368000  1.0 0.9679058635
Zn  Zn3  1  0.49924000  0.88371000  0.43368000  1.0 0.9679058635
Zn  Zn4  1  0.36629000  0.24924000  0.18368000  1.0 0.9679058635
Zn  Zn5  1  0.50076000  0.38371000  0.06632000  1.0 0.9679058635
Zn  Zn6  1  0.99924000  0.61629000  0.56632000  1.0 0.9679058635
Zn  Zn7  1  0.86629000  0.25076000  0.81632000  1.0 0.96214817
Zn  Zn8  1  0.13371000  0.24924000  0.81632000  1.0 0.7054918451
Zn  Zn9  1  0.00076000  0.11629000  0.93368000  1.0 0.9679058635
Zn  Zn10  1  0.63371000  0.25076000  0.18368000  1.0 0.9517705484
Zn  Zn11  1  0.99924000  0.38371000  0.93368000  1.0 0.96214817
Zn  Zn12  1  0.86629000  0.74924000  0.68368000  1.0 0.9517705484
Zn  Zn13  1  0.00076000  0.88371000  0.56632000  1.0 0.9679058635
Zn  Zn14  1  0.49924000  0.11629000  0.06632000  1.0 0.9679058635
Zn  Zn15  1  0.36629000  0.75076000  0.31632000  1.0 0.9517705484
Zn  Zn16  1  0.63371000  0.74924000  0.31632000  1.0 0.9517705484
Zn  Zn17  1  0.49924000  0.38371000  0.56632000  1.0 0.96214817
Zn  Zn18  1  0.36629000  0.74924000  0.81632000  1.0 0.9679058635
Zn  Zn19  1  0.50076000  0.11629000  0.56632000  1.0 0.9679058635
Zn  Zn20  1  0.13371000  0.25076000  0.31632000  1.0 0.9679058635
Zn  Zn21  1  0.49924000  0.61629000  0.93368000  1.0 0.9679058635
Zn  Zn22  1  0.00076000  0.38371000  0.43368000  1.0 0.9679058635
Zn  Zn23  1  0.63371000  0.24924000  0.68368000  1.0 0.96214817
Zn  Zn24  1  0.36629000  0.25076000  0.68368000  1.0 0.6604075475
Zn  Zn25  1  0.99924000  0.88371000  0.06632000  1.0 0.9679058635
Zn  Zn26  1  0.36629000  0.24924000  0.81632000  1.0 0.6531627817
Zn  Zn27  1  0.00076000  0.61629000  0.06632000  1.0 0.9679058635
Zn  Zn28  1  0.13371000  0.25076000  0.81632000  1.0 0.6893351717
Zn  Zn29  1  0.99924000  0.11629000  0.43368000  1.0 0.9679058635
Zn  Zn30  1  0.50076000  0.88371000  0.93368000  1.0 0.9679058635
Zn  Zn31  1  0.13371000  0.24924000  0.68368000  1.0 0.5103070382
Zn  Zn32  1  0.27461000  0.78998000  0.54538000  1.0 1.0113933725
Zn  Zn33  1  0.96002000  0.52461000  0.79538000  1.0 0.6964647515
Zn  Zn34  1  0.72539000  0.71002000  0.54538000  1.0 1.0170094175
Zn  Zn35  1  0.53998000  0.47539000  0.29538000  1.0 1.0113933725
Zn  Zn36  1  0.27461000  0.21002000  0.95462000  1.0 0.7708098846
Zn  Zn37  1  0.22539000  0.78998000  0.45462000  1.0 1.0170094175
Zn  Zn38  1  0.03998000  0.02461000  0.70462000  1.0 0.6604075475
Zn  Zn39  1  0.96002000  0.47539000  0.70462000  1.0 0.8188015464
Zn  Zn40  1  0.77461000  0.28998000  0.04538000  1.0 1.0170094175
Zn  Zn41  1  0.46002000  0.02461000  0.29538000  1.0 1.0113933725
Zn  Zn42  1  0.22539000  0.21002000  0.04538000  1.0 1.0170094175
Zn  Zn43  1  0.03998000  0.97539000  0.79538000  1.0 0.8188015464
Zn  Zn44  1  0.77461000  0.71002000  0.45462000  1.0 1.0170094175
Zn  Zn45  1  0.72539000  0.28998000  0.95462000  1.0 1.0113933725
Zn  Zn46  1  0.53998000  0.52461000  0.20462000  1.0 1.0113933725
Zn  Zn47  1  0.46002000  0.97539000  0.20462000  1.0 1.0113933725
Zn  Zn48  1  0.72539000  0.21002000  0.45462000  1.0 1.0323170109
Zn  Zn49  1  0.53998000  0.97539000  0.70462000  1.0 1.0113933725
Zn  Zn50  1  0.27461000  0.28998000  0.45462000  1.0 1.0113933725
Zn  Zn51  1  0.96002000  0.02461000  0.20462000  1.0 0.9423603458
Zn  Zn52  1  0.72539000  0.78998000  0.04538000  1.0 1.0323170109
Zn  Zn53  1  0.77461000  0.21002000  0.54538000  1.0 1.0113933725
Zn  Zn54  1  0.46002000  0.47539000  0.79538000  1.0 0.6663395508
Zn  Zn55  1  0.53998000  0.02461000  0.79538000  1.0 1.0323170109
Zn  Zn56  1  0.22539000  0.71002000  0.95462000  1.0 1.0113933725
Zn  Zn57  1  0.53998000  0.47539000  0.70462000  1.0 0.6531627817
Zn  Zn58  1  0.77461000  0.78998000  0.95462000  1.0 1.0323170109
Zn  Zn59  1  0.96002000  0.02461000  0.70462000  1.0 0.5003223761
Zn  Zn60  1  0.22539000  0.28998000  0.54538000  1.0 0.8188015464
Zn  Zn61  1  0.27461000  0.71002000  0.04538000  1.0 1.0323170109
Zn  Zn62  1  0.96002000  0.47539000  0.79538000  1.0 0.5596607211
Zn  Zn63  1  0.29175000  0.74285000  0.49527000  1.0 1.0727487117
Zn  Zn64  1  0.00715000  0.54175000  0.74527000  1.0 0.96214817
Zn  Zn65  1  0.70825000  0.75715000  0.49527000  1.0 1.0727487117
Zn  Zn66  1  0.49285000  0.45825000  0.24527000  1.0 1.0727487117
Zn  Zn67  1  0.29175000  0.25715000  0.00473000  1.0 1.0895737651
Zn  Zn68  1  0.20825000  0.74285000  0.50473000  1.0 1.0727487117
Zn  Zn69  1  0.99285000  0.04175000  0.75473000  1.0 0.744611506
Zn  Zn70  1  0.00715000  0.45825000  0.75473000  1.0 0.5809171861
Zn  Zn71  1  0.79175000  0.24285000  0.99527000  1.0 1.0789879901
Zn  Zn72  1  0.50715000  0.04175000  0.24527000  1.0 1.0727487117
Zn  Zn73  1  0.20825000  0.25715000  0.99527000  1.0 1.0486958666
Zn  Zn74  1  0.99285000  0.95825000  0.74527000  1.0 0.9841685934
Zn  Zn75  1  0.79175000  0.75715000  0.50473000  1.0 1.0727487117
Zn  Zn76  1  0.70825000  0.24285000  0.00473000  1.0 1.0727487117
Zn  Zn77  1  0.49285000  0.54175000  0.25473000  1.0 1.0727487117
Zn  Zn78  1  0.50715000  0.95825000  0.25473000  1.0 1.0727487117
Zn  Zn79  1  0.70825000  0.25715000  0.50473000  1.0 1.0895737651
Zn  Zn80  1  0.49285000  0.95825000  0.75473000  1.0 1.0789879901
Zn  Zn81  1  0.29175000  0.24285000  0.50473000  1.0 1.0575489445
Zn  Zn82  1  0.00715000  0.04175000  0.25473000  1.0 1.1296215299
Zn  Zn83  1  0.70825000  0.74285000  0.99527000  1.0 1.1382597728
Zn  Zn84  1  0.79175000  0.25715000  0.49527000  1.0 1.1130871816
Zn  Zn85  1  0.50715000  0.45825000  0.74527000  1.0 0.5386006279
Zn  Zn86  1  0.49285000  0.04175000  0.74527000  1.0 1.0789879901
Zn  Zn87  1  0.20825000  0.75715000  0.00473000  1.0 1.1130871816
Zn  Zn88  1  0.49285000  0.45825000  0.75473000  1.0 0.5529406113
Zn  Zn89  1  0.79175000  0.74285000  0.00473000  1.0 1.1382597728
Zn  Zn90  1  0.00715000  0.04175000  0.75473000  1.0 0.7458403153
Zn  Zn91  1  0.20825000  0.24285000  0.49527000  1.0 1.0789879901
Zn  Zn92  1  0.29175000  0.75715000  0.99527000  1.0 1.0895737651
Zn  Zn93  1  0.00715000  0.45825000  0.74527000  1.0 0.6012446857
H  H1  1  0.31610000  0.81680000  0.50380000  1.0 0.3903978146
H  H2  1  0.93320000  0.56610000  0.75380000  1.0 0.3903978146
H  H3  1  0.68390000  0.68320000  0.50380000  1.0 0.3903978146
H  H4  1  0.56680000  0.43390000  0.25380000  1.0 0.3999003612
H  H5  1  0.31610000  0.18320000  0.99620000  1.0 0.3903978146
H  H6  1  0.18390000  0.81680000  0.49620000  1.0 0.3903978146
H  H7  1  0.06680000  0.06610000  0.74620000  1.0 0.3305050136
H  H8  1  0.93320000  0.43390000  0.74620000  1.0 0.3207569662
H  H9  1  0.81610000  0.31680000  0.00380000  1.0 0.3903978146
H  H10  1  0.43320000  0.06610000  0.25380000  1.0 0.3903978146
H  H11  1  0.18390000  0.18320000  0.00380000  1.0 0.3903978146
H  H12  1  0.06680000  0.93390000  0.75380000  1.0 0.3807469852
H  H13  1  0.81610000  0.68320000  0.49620000  1.0 0.3903978146
H  H14  1  0.68390000  0.31680000  0.99620000  1.0 0.3903978146
H  H15  1  0.56680000  0.56610000  0.24620000  1.0 0.3999003612
H  H16  1  0.43320000  0.93390000  0.24620000  1.0 0.3999003612
H  H17  1  0.68390000  0.18320000  0.49620000  1.0 0.3903978146
H  H18  1  0.56680000  0.93390000  0.74620000  1.0 0.480875556
H  H19  1  0.31610000  0.31680000  0.49620000  1.0 0.3807469852
H  H20  1  0.93320000  0.06610000  0.24620000  1.0 0.5192706628
H  H21  1  0.68390000  0.81680000  0.00380000  1.0 0.3903978146
H  H22  1  0.81610000  0.18320000  0.50380000  1.0 0.3903978146
H  H23  1  0.43320000  0.43390000  0.75380000  1.0 0.3392998376
H  H24  1  0.56680000  0.06610000  0.75380000  1.0 0.4114816331
H  H25  1  0.18390000  0.68320000  0.99620000  1.0 0.3903978146
H  H26  1  0.56680000  0.43390000  0.74620000  1.0 0.3305050136
H  H27  1  0.81610000  0.81680000  0.99620000  1.0 0.3903978146
H  H28  1  0.93320000  0.06610000  0.74620000  1.0 0.3305050136
H  H29  1  0.18390000  0.31680000  0.50380000  1.0 0.3807469852
H  H30  1  0.31610000  0.68320000  0.00380000  1.0 0.3903978146
H  H31  1  0.93320000  0.43390000  0.75380000  1.0 0.3207569662
H  H32  1  0.27410000  0.81960000  0.49560000  1.0 0.3807469852
H  H33  1  0.93040000  0.52410000  0.74560000  1.0 0.3590839303
H  H34  1  0.72590000  0.68040000  0.49560000  1.0 0.3807469852
H  H35  1  0.56960000  0.47590000  0.24560000  1.0 0.3807469852
H  H36  1  0.27410000  0.18040000  0.00440000  1.0 0.3807469852
H  H37  1  0.22590000  0.81960000  0.50440000  1.0 0.3807469852
H  H38  1  0.06960000  0.02410000  0.75440000  1.0 0.3207569662
H  H39  1  0.93040000  0.47590000  0.75440000  1.0 0.2809492452
H  H40  1  0.77410000  0.31960000  0.99560000  1.0 0.3807469852
H  H41  1  0.43040000  0.02410000  0.24560000  1.0 0.3807469852
H  H42  1  0.22590000  0.18040000  0.99560000  1.0 0.3661037727
H  H43  1  0.06960000  0.97590000  0.74560000  1.0 0.3590839303
H  H44  1  0.77410000  0.68040000  0.50440000  1.0 0.3807469852
H  H45  1  0.72590000  0.31960000  0.00440000  1.0 0.3807469852
H  H46  1  0.56960000  0.52410000  0.25440000  1.0 0.3807469852
H  H47  1  0.43040000  0.97590000  0.25440000  1.0 0.3807469852
H  H48  1  0.72590000  0.18040000  0.50440000  1.0 0.3807469852
H  H49  1  0.56960000  0.97590000  0.75440000  1.0 0.3807469852
H  H50  1  0.27410000  0.31960000  0.50440000  1.0 0.3590839303
H  H51  1  0.93040000  0.02410000  0.25440000  1.0 0.4315630539
H  H52  1  0.72590000  0.81960000  0.99560000  1.0 0.3807469852
H  H53  1  0.77410000  0.18040000  0.49560000  1.0 0.3807469852
H  H54  1  0.43040000  0.47590000  0.74560000  1.0 0.3590839303
H  H55  1  0.56960000  0.02410000  0.74560000  1.0 0.3903978146
H  H56  1  0.22590000  0.68040000  0.00440000  1.0 0.3807469852
H  H57  1  0.56960000  0.47590000  0.75440000  1.0 0.3500042937
H  H58  1  0.77410000  0.81960000  0.00440000  1.0 0.3807469852
H  H59  1  0.93040000  0.02410000  0.75440000  1.0 0.3207569662
H  H60  1  0.22590000  0.31960000  0.49560000  1.0 0.3807469852
H  H61  1  0.27410000  0.68040000  0.99560000  1.0 0.3807469852
H  H62  1  0.93040000  0.47590000  0.74560000  1.0 0.2726090494
H  H63  1  0.24320000  0.72510000  0.46360000  1.0 0.3903978146
H  H64  1  0.02490000  0.49320000  0.71360000  1.0 0.3590839303
H  H65  1  0.75680000  0.77490000  0.46360000  1.0 0.3903978146
H  H66  1  0.47510000  0.50680000  0.21360000  1.0 0.3903978146
H  H67  1  0.24320000  0.27490000  0.03640000  1.0 0.3903978146
H  H68  1  0.25680000  0.72510000  0.53640000  1.0 0.3903978146
H  H69  1  0.97510000  0.99320000  0.78640000  1.0 0.4184227927
H  H70  1  0.02490000  0.50680000  0.78640000  1.0 0.3305050136
H  H71  1  0.74320000  0.22510000  0.96360000  1.0 0.3903978146
H  H72  1  0.52490000  0.99320000  0.21360000  1.0 0.3903978146
H  H73  1  0.25680000  0.27490000  0.96360000  1.0 0.3590839303
H  H74  1  0.97510000  0.00680000  0.71360000  1.0 0.2185030944
H  H75  1  0.74320000  0.77490000  0.53640000  1.0 0.3903978146
H  H76  1  0.75680000  0.22510000  0.03640000  1.0 0.3903978146
H  H77  1  0.47510000  0.49320000  0.28640000  1.0 0.3903978146
H  H78  1  0.52490000  0.00680000  0.28640000  1.0 0.3903978146
H  H79  1  0.75680000  0.27490000  0.53640000  1.0 0.3903978146
H  H80  1  0.47510000  0.00680000  0.78640000  1.0 0.3661037727
H  H81  1  0.24320000  0.22510000  0.53640000  1.0 0.3807469852
H  H82  1  0.02490000  0.99320000  0.28640000  1.0 0.480875556
H  H83  1  0.75680000  0.72510000  0.96360000  1.0 0.3903978146
H  H84  1  0.74320000  0.27490000  0.46360000  1.0 0.3807469852
H  H85  1  0.52490000  0.50680000  0.71360000  1.0 0.229076173
H  H86  1  0.47510000  0.99320000  0.71360000  1.0 0.3903978146
H  H87  1  0.25680000  0.77490000  0.03640000  1.0 0.3903978146
H  H88  1  0.47510000  0.50680000  0.78640000  1.0 0.258312021
H  H89  1  0.74320000  0.72510000  0.03640000  1.0 0.3903978146
H  H90  1  0.02490000  0.99320000  0.78640000  1.0 0.3207569662
H  H91  1  0.25680000  0.22510000  0.46360000  1.0 0.3903978146
H  H92  1  0.24320000  0.77490000  0.96360000  1.0 0.3903978146
H  H93  1  0.02490000  0.50680000  0.71360000  1.0 0.3500042937
H  H94  1  0.35960000  0.78770000  0.57420000  1.0 0.3500042937
H  H95  1  0.96230000  0.60960000  0.82420000  1.0 0.3500042937
H  H96  1  0.64040000  0.71230000  0.57420000  1.0 0.3500042937
H  H97  1  0.53770000  0.39040000  0.32420000  1.0 0.3590839303
H  H98  1  0.35960000  0.21230000  0.92580000  1.0 0.3305050136
H  H99  1  0.14040000  0.78770000  0.42580000  1.0 0.3590839303
H  H100  1  0.03770000  0.10960000  0.67580000  1.0 0.2809492452
H  H101  1  0.96230000  0.39040000  0.67580000  1.0 0.3392998376
H  H102  1  0.85960000  0.28770000  0.07420000  1.0 0.3500042937
H  H103  1  0.46230000  0.10960000  0.32420000  1.0 0.3500042937
H  H104  1  0.14040000  0.21230000  0.07420000  1.0 0.3500042937
H  H105  1  0.03770000  0.89040000  0.82420000  1.0 0.3500042937
H  H106  1  0.85960000  0.71230000  0.42580000  1.0 0.3500042937
H  H107  1  0.64040000  0.28770000  0.92580000  1.0 0.3500042937
H  H108  1  0.53770000  0.60960000  0.17580000  1.0 0.3590839303
H  H109  1  0.46230000  0.89040000  0.17580000  1.0 0.3590839303
H  H110  1  0.64040000  0.21230000  0.42580000  1.0 0.3500042937
H  H111  1  0.53770000  0.89040000  0.67580000  1.0 0.3500042937
H  H112  1  0.35960000  0.28770000  0.42580000  1.0 0.3500042937
H  H113  1  0.96230000  0.10960000  0.17580000  1.0 0.3500042937
H  H114  1  0.64040000  0.78770000  0.07420000  1.0 0.3500042937
H  H115  1  0.85960000  0.21230000  0.57420000  1.0 0.3500042937
H  H116  1  0.46230000  0.39040000  0.82420000  1.0 0.3392998376
H  H117  1  0.53770000  0.10960000  0.82420000  1.0 0.3500042937
H  H118  1  0.14040000  0.71230000  0.92580000  1.0 0.3500042937
H  H119  1  0.53770000  0.39040000  0.67580000  1.0 0.3305050136
H  H120  1  0.85960000  0.78770000  0.92580000  1.0 0.3500042937
H  H121  1  0.96230000  0.10960000  0.67580000  1.0 0.2894668721
H  H122  1  0.14040000  0.28770000  0.57420000  1.0 0.3305050136
H  H123  1  0.35960000  0.71230000  0.07420000  1.0 0.3500042937
H  H124  1  0.96230000  0.39040000  0.82420000  1.0 0.3392998376
H  H125  1  0.43030000  0.57770000  0.53370000  1.0 0.1110391165
H  H126  1  0.17230000  0.68030000  0.78370000  1.0 0.1208546254
H  H127  1  0.56970000  0.92230000  0.53370000  1.0 0.1110391165
H  H128  1  0.32770000  0.31970000  0.28370000  1.0 0.1110391165
H  H129  1  0.43030000  0.42230000  0.96630000  1.0 0.1110391165
H  H130  1  0.06970000  0.57770000  0.46630000  1.0 0.1110391165
H  H131  1  0.82770000  0.18030000  0.71630000  1.0 0.1110391165
H  H132  1  0.17230000  0.31970000  0.71630000  1.0 0.1308294164
H  H133  1  0.93030000  0.07770000  0.03370000  1.0 0.1110391165
H  H134  1  0.67230000  0.18030000  0.28370000  1.0 0.1208546254
H  H135  1  0.06970000  0.42230000  0.03370000  1.0 0.1110391165
H  H136  1  0.82770000  0.81970000  0.78370000  1.0 0.1208546254
H  H137  1  0.93030000  0.92230000  0.46630000  1.0 0.1110391165
H  H138  1  0.56970000  0.07770000  0.96630000  1.0 0.1110391165
H  H139  1  0.32770000  0.68030000  0.21630000  1.0 0.1208546254
H  H140  1  0.67230000  0.81970000  0.21630000  1.0 0.1208546254
H  H141  1  0.56970000  0.42230000  0.46630000  1.0 0.1110391165
H  H142  1  0.32770000  0.81970000  0.71630000  1.0 0.1110391165
H  H143  1  0.43030000  0.07770000  0.46630000  1.0 0.1110391165
H  H144  1  0.17230000  0.18030000  0.21630000  1.0 0.1110391165
H  H145  1  0.56970000  0.57770000  0.03370000  1.0 0.1110391165
H  H146  1  0.93030000  0.42230000  0.53370000  1.0 0.1110391165
H  H147  1  0.67230000  0.31970000  0.78370000  1.0 0.1110391165
H  H148  1  0.32770000  0.18030000  0.78370000  1.0 0.1005048675
H  H149  1  0.06970000  0.92230000  0.96630000  1.0 0.1110391165
H  H150  1  0.32770000  0.31970000  0.71630000  1.0 0.1005048675
H  H151  1  0.93030000  0.57770000  0.96630000  1.0 0.1110391165
H  H152  1  0.17230000  0.18030000  0.71630000  1.0 0.0890307818
H  H153  1  0.06970000  0.07770000  0.53370000  1.0 0.1110391165
H  H154  1  0.43030000  0.92230000  0.03370000  1.0 0.1208546254
H  H155  1  0.17230000  0.31970000  0.78370000  1.0 0.1110391165
H  H156  1  0.43890000  0.68230000  0.50850000  1.0 0.1208546254
H  H157  1  0.06770000  0.68890000  0.75850000  1.0 0.1208546254
H  H158  1  0.56110000  0.81770000  0.50850000  1.0 0.1208546254
H  H159  1  0.43230000  0.31110000  0.25850000  1.0 0.1208546254
H  H160  1  0.43890000  0.31770000  0.99150000  1.0 0.1208546254
H  H161  1  0.06110000  0.68230000  0.49150000  1.0 0.1208546254
H  H162  1  0.93230000  0.18890000  0.74150000  1.0 0.1208546254
H  H163  1  0.06770000  0.31110000  0.74150000  1.0 0.1110391165
H  H164  1  0.93890000  0.18230000  0.00850000  1.0 0.1208546254
H  H165  1  0.56770000  0.18890000  0.25850000  1.0 0.1208546254
H  H166  1  0.06110000  0.31770000  0.00850000  1.0 0.1208546254
H  H167  1  0.93230000  0.81110000  0.75850000  1.0 0.1208546254
H  H168  1  0.93890000  0.81770000  0.49150000  1.0 0.1208546254
H  H169  1  0.56110000  0.18230000  0.99150000  1.0 0.1208546254
H  H170  1  0.43230000  0.68890000  0.24150000  1.0 0.1208546254
H  H171  1  0.56770000  0.81110000  0.24150000  1.0 0.1208546254
H  H172  1  0.56110000  0.31770000  0.49150000  1.0 0.1208546254
H  H173  1  0.43230000  0.81110000  0.74150000  1.0 0.1208546254
H  H174  1  0.43890000  0.18230000  0.49150000  1.0 0.1208546254
H  H175  1  0.06770000  0.18890000  0.24150000  1.0 0.1208546254
H  H176  1  0.56110000  0.68230000  0.00850000  1.0 0.1208546254
H  H177  1  0.93890000  0.31770000  0.50850000  1.0 0.1208546254
H  H178  1  0.56770000  0.31110000  0.75850000  1.0 0.1208546254
H  H179  1  0.43230000  0.18890000  0.75850000  1.0 0.1308294164
H  H180  1  0.06110000  0.81770000  0.99150000  1.0 0.1208546254
H  H181  1  0.43230000  0.31110000  0.74150000  1.0 0.1384575202
H  H182  1  0.93890000  0.68230000  0.99150000  1.0 0.1208546254
H  H183  1  0.06770000  0.18890000  0.74150000  1.0 0.1510954652
H  H184  1  0.06110000  0.18230000  0.50850000  1.0 0.1208546254
H  H185  1  0.43890000  0.81770000  0.00850000  1.0 0.1208546254
H  H186  1  0.06770000  0.31110000  0.75850000  1.0 0.1110391165
H  H187  1  0.44330000  0.53760000  0.47340000  1.0 0.1510954652
H  H188  1  0.21240000  0.69330000  0.72340000  1.0 0.1510954652
H  H189  1  0.55670000  0.96240000  0.47340000  1.0 0.1510954652
H  H190  1  0.28760000  0.30670000  0.22340000  1.0 0.1510954652
H  H191  1  0.44330000  0.46240000  0.02660000  1.0 0.1510954652
H  H192  1  0.05670000  0.53760000  0.52660000  1.0 0.1510954652
H  H193  1  0.78760000  0.19330000  0.77660000  1.0 0.1510954652
H  H194  1  0.21240000  0.30670000  0.77660000  1.0 0.0085699419
H  H195  1  0.94330000  0.03760000  0.97340000  1.0 0.1510954652
H  H196  1  0.71240000  0.19330000  0.22340000  1.0 0.1384575202
H  H197  1  0.05670000  0.46240000  0.97340000  1.0 0.1510954652
H  H198  1  0.78760000  0.80670000  0.72340000  1.0 0.1384575202
H  H199  1  0.94330000  0.96240000  0.52660000  1.0 0.1510954652
H  H200  1  0.55670000  0.03760000  0.02660000  1.0 0.1510954652
H  H201  1  0.28760000  0.69330000  0.27660000  1.0 0.1384575202
H  H202  1  0.71240000  0.80670000  0.27660000  1.0 0.1384575202
H  H203  1  0.55670000  0.46240000  0.52660000  1.0 0.1510954652
H  H204  1  0.28760000  0.80670000  0.77660000  1.0 0.1510954652
H  H205  1  0.44330000  0.03760000  0.52660000  1.0 0.1510954652
H  H206  1  0.21240000  0.19330000  0.27660000  1.0 0.1510954652
H  H207  1  0.55670000  0.53760000  0.97340000  1.0 0.1510954652
H  H208  1  0.94330000  0.46240000  0.47340000  1.0 0.1510954652
H  H209  1  0.71240000  0.30670000  0.72340000  1.0 0.1510954652
H  H210  1  0.28760000  0.19330000  0.72340000  1.0 0.0592408112
H  H211  1  0.05670000  0.96240000  0.02660000  1.0 0.1510954652
H  H212  1  0.28760000  0.30670000  0.77660000  1.0 0.0420178119
H  H213  1  0.94330000  0.53760000  0.02660000  1.0 0.1510954652
H  H214  1  0.21240000  0.19330000  0.77660000  1.0 0.0290024236
H  H215  1  0.05670000  0.03760000  0.47340000  1.0 0.1510954652
H  H216  1  0.44330000  0.96240000  0.97340000  1.0 0.1510954652
H  H217  1  0.21240000  0.30670000  0.72340000  1.0 0.0085699419
H  H218  1  0.41330000  0.53300000  0.49440000  1.0 0.1308294164
H  H219  1  0.21700000  0.66330000  0.74440000  1.0 0.1308294164
H  H220  1  0.58670000  0.96700000  0.49440000  1.0 0.1308294164
H  H221  1  0.28300000  0.33670000  0.24440000  1.0 0.1308294164
H  H222  1  0.41330000  0.46700000  0.00560000  1.0 0.1308294164
H  H223  1  0.08670000  0.53300000  0.50560000  1.0 0.1308294164
H  H224  1  0.78300000  0.16330000  0.75560000  1.0 0.1384575202
H  H225  1  0.21700000  0.33670000  0.75560000  1.0 0.0710296364
H  H226  1  0.91330000  0.03300000  0.99440000  1.0 0.1308294164
H  H227  1  0.71700000  0.16330000  0.24440000  1.0 0.1384575202
H  H228  1  0.08670000  0.46700000  0.99440000  1.0 0.1308294164
H  H229  1  0.78300000  0.83670000  0.74440000  1.0 0.1384575202
H  H230  1  0.91330000  0.96700000  0.50560000  1.0 0.1308294164
H  H231  1  0.58670000  0.03300000  0.00560000  1.0 0.1308294164
H  H232  1  0.28300000  0.66330000  0.25560000  1.0 0.1384575202
H  H233  1  0.71700000  0.83670000  0.25560000  1.0 0.1384575202
H  H234  1  0.58670000  0.46700000  0.50560000  1.0 0.1308294164
H  H235  1  0.28300000  0.83670000  0.75560000  1.0 0.1384575202
H  H236  1  0.41330000  0.03300000  0.50560000  1.0 0.1308294164
H  H237  1  0.21700000  0.16330000  0.25560000  1.0 0.1308294164
H  H238  1  0.58670000  0.53300000  0.99440000  1.0 0.1308294164
H  H239  1  0.91330000  0.46700000  0.49440000  1.0 0.1308294164
H  H240  1  0.71700000  0.33670000  0.74440000  1.0 0.1308294164
H  H241  1  0.28300000  0.16330000  0.74440000  1.0 0.0793711115
H  H242  1  0.08670000  0.96700000  0.00560000  1.0 0.1308294164
H  H243  1  0.28300000  0.33670000  0.75560000  1.0 0.0793711115
H  H244  1  0.91330000  0.53300000  0.00560000  1.0 0.1308294164
H  H245  1  0.21700000  0.16330000  0.75560000  1.0 0.0710296364
H  H246  1  0.08670000  0.03300000  0.49440000  1.0 0.1308294164
H  H247  1  0.41330000  0.96700000  0.99440000  1.0 0.1384575202
H  H248  1  0.21700000  0.33670000  0.74440000  1.0 0.0710296364
H  H249  1  0.45470000  0.52750000  0.50110000  1.0 0.1384575202
H  H250  1  0.22250000  0.70470000  0.75110000  1.0 0.1384575202
H  H251  1  0.54530000  0.97250000  0.50110000  1.0 0.1384575202
H  H252  1  0.27750000  0.29530000  0.25110000  1.0 0.1384575202
H  H253  1  0.45470000  0.47250000  0.99890000  1.0 0.1384575202
H  H254  1  0.04530000  0.52750000  0.49890000  1.0 0.1384575202
H  H255  1  0.77750000  0.20470000  0.74890000  1.0 0.1384575202
H  H256  1  0.22250000  0.29530000  0.74890000  1.0 0.0890307818
H  H257  1  0.95470000  0.02750000  0.00110000  1.0 0.1384575202
H  H258  1  0.72250000  0.20470000  0.25110000  1.0 0.1384575202
H  H259  1  0.04530000  0.47250000  0.00110000  1.0 0.1384575202
H  H260  1  0.77750000  0.79530000  0.75110000  1.0 0.1384575202
H  H261  1  0.95470000  0.97250000  0.49890000  1.0 0.1384575202
H  H262  1  0.54530000  0.02750000  0.99890000  1.0 0.1384575202
H  H263  1  0.27750000  0.70470000  0.24890000  1.0 0.1384575202
H  H264  1  0.72250000  0.79530000  0.24890000  1.0 0.1384575202
H  H265  1  0.54530000  0.47250000  0.49890000  1.0 0.1384575202
H  H266  1  0.27750000  0.79530000  0.74890000  1.0 0.1384575202
H  H267  1  0.45470000  0.02750000  0.49890000  1.0 0.1384575202
H  H268  1  0.22250000  0.20470000  0.24890000  1.0 0.1384575202
H  H269  1  0.54530000  0.52750000  0.00110000  1.0 0.1384575202
H  H270  1  0.95470000  0.47250000  0.50110000  1.0 0.1384575202
H  H271  1  0.72250000  0.29530000  0.75110000  1.0 0.1384575202
H  H272  1  0.27750000  0.20470000  0.75110000  1.0 0.0793711115
H  H273  1  0.04530000  0.97250000  0.99890000  1.0 0.1384575202
H  H274  1  0.27750000  0.29530000  0.74890000  1.0 0.0710296364
H  H275  1  0.95470000  0.52750000  0.99890000  1.0 0.1384575202
H  H276  1  0.22250000  0.20470000  0.74890000  1.0 0.0592408112
H  H277  1  0.04530000  0.02750000  0.50110000  1.0 0.1384575202
H  H278  1  0.45470000  0.97250000  0.00110000  1.0 0.1384575202
H  H279  1  0.22250000  0.29530000  0.75110000  1.0 0.0890307818
H  H280  1  0.45330000  0.69070000  0.58610000  1.0 0.1208546254
H  H281  1  0.05930000  0.70330000  0.83610000  1.0 0.1208546254
H  H282  1  0.54670000  0.80930000  0.58610000  1.0 0.1208546254
H  H283  1  0.44070000  0.29670000  0.33610000  1.0 0.1208546254
H  H284  1  0.45330000  0.30930000  0.91390000  1.0 0.1208546254
H  H285  1  0.04670000  0.69070000  0.41390000  1.0 0.1208546254
H  H286  1  0.94070000  0.20330000  0.66390000  1.0 0.1208546254
H  H287  1  0.05930000  0.29670000  0.66390000  1.0 0.1308294164
H  H288  1  0.95330000  0.19070000  0.08610000  1.0 0.1208546254
H  H289  1  0.55930000  0.20330000  0.33610000  1.0 0.1208546254
H  H290  1  0.04670000  0.30930000  0.08610000  1.0 0.1208546254
H  H291  1  0.94070000  0.79670000  0.83610000  1.0 0.1208546254
H  H292  1  0.95330000  0.80930000  0.41390000  1.0 0.1208546254
H  H293  1  0.54670000  0.19070000  0.91390000  1.0 0.1208546254
H  H294  1  0.44070000  0.70330000  0.16390000  1.0 0.1208546254
H  H295  1  0.55930000  0.79670000  0.16390000  1.0 0.1208546254
H  H296  1  0.54670000  0.30930000  0.41390000  1.0 0.1208546254
H  H297  1  0.44070000  0.79670000  0.66390000  1.0 0.1208546254
H  H298  1  0.45330000  0.19070000  0.41390000  1.0 0.1208546254
H  H299  1  0.05930000  0.20330000  0.16390000  1.0 0.1208546254
H  H300  1  0.54670000  0.69070000  0.08610000  1.0 0.1208546254
H  H301  1  0.95330000  0.30930000  0.58610000  1.0 0.1208546254
H  H302  1  0.55930000  0.29670000  0.83610000  1.0 0.1208546254
H  H303  1  0.44070000  0.20330000  0.83610000  1.0 0.1308294164
H  H304  1  0.04670000  0.80930000  0.91390000  1.0 0.1208546254
H  H305  1  0.44070000  0.29670000  0.66390000  1.0 0.1308294164
H  H306  1  0.95330000  0.69070000  0.91390000  1.0 0.1208546254
H  H307  1  0.05930000  0.20330000  0.66390000  1.0 0.1110391165
H  H308  1  0.04670000  0.19070000  0.58610000  1.0 0.1384575202
H  H309  1  0.45330000  0.80930000  0.08610000  1.0 0.1208546254
H  H310  1  0.05930000  0.29670000  0.83610000  1.0 0.1308294164
H  H311  1  0.38200000  0.68920000  0.52880000  1.0 0.1308294164
H  H312  1  0.06080000  0.63200000  0.77880000  1.0 0.1308294164
H  H313  1  0.61800000  0.81080000  0.52880000  1.0 0.1308294164
H  H314  1  0.43920000  0.36800000  0.27880000  1.0 0.1308294164
H  H315  1  0.38200000  0.31080000  0.97120000  1.0 0.1384575202
H  H316  1  0.11800000  0.68920000  0.47120000  1.0 0.1384575202
H  H317  1  0.93920000  0.13200000  0.72120000  1.0 0.1308294164
H  H318  1  0.06080000  0.36800000  0.72120000  1.0 0.1308294164
H  H319  1  0.88200000  0.18920000  0.02880000  1.0 0.1308294164
H  H320  1  0.56080000  0.13200000  0.27880000  1.0 0.1308294164
H  H321  1  0.11800000  0.31080000  0.02880000  1.0 0.1308294164
H  H322  1  0.93920000  0.86800000  0.77880000  1.0 0.1308294164
H  H323  1  0.88200000  0.81080000  0.47120000  1.0 0.1384575202
H  H324  1  0.61800000  0.18920000  0.97120000  1.0 0.1308294164
H  H325  1  0.43920000  0.63200000  0.22120000  1.0 0.1308294164
H  H326  1  0.56080000  0.86800000  0.22120000  1.0 0.1308294164
H  H327  1  0.61800000  0.31080000  0.47120000  1.0 0.1308294164
H  H328  1  0.43920000  0.86800000  0.72120000  1.0 0.1308294164
H  H329  1  0.38200000  0.18920000  0.47120000  1.0 0.1308294164
H  H330  1  0.06080000  0.13200000  0.22120000  1.0 0.1308294164
H  H331  1  0.61800000  0.68920000  0.02880000  1.0 0.1308294164
H  H332  1  0.88200000  0.31080000  0.52880000  1.0 0.1384575202
H  H333  1  0.56080000  0.36800000  0.77880000  1.0 0.1308294164
H  H334  1  0.43920000  0.13200000  0.77880000  1.0 0.1308294164
H  H335  1  0.11800000  0.81080000  0.97120000  1.0 0.1384575202
H  H336  1  0.43920000  0.36800000  0.72120000  1.0 0.1208546254
H  H337  1  0.88200000  0.68920000  0.97120000  1.0 0.1308294164
H  H338  1  0.06080000  0.13200000  0.72120000  1.0 0.1208546254
H  H339  1  0.11800000  0.18920000  0.52880000  1.0 0.1384575202
H  H340  1  0.38200000  0.81080000  0.02880000  1.0 0.1308294164
H  H341  1  0.06080000  0.36800000  0.77880000  1.0 0.1208546254
H  H342  1  0.45450000  0.74030000  0.61550000  1.0 0.1384575202
H  H343  1  0.00970000  0.70450000  0.86550000  1.0 0.1308294164
H  H344  1  0.54550000  0.75970000  0.61550000  1.0 0.1308294164
H  H345  1  0.49030000  0.29550000  0.36550000  1.0 0.1308294164
H  H346  1  0.45450000  0.25970000  0.88450000  1.0 0.1308294164
H  H347  1  0.04550000  0.74030000  0.38450000  1.0 0.1308294164
H  H348  1  0.99030000  0.20450000  0.63450000  1.0 0.0890307818
H  H349  1  0.00970000  0.29550000  0.63450000  1.0 0.1308294164
H  H350  1  0.95450000  0.24030000  0.11550000  1.0 0.1308294164
H  H351  1  0.50970000  0.20450000  0.36550000  1.0 0.1308294164
H  H352  1  0.04550000  0.25970000  0.11550000  1.0 0.1384575202
H  H353  1  0.99030000  0.79550000  0.86550000  1.0 0.1308294164
H  H354  1  0.95450000  0.75970000  0.38450000  1.0 0.1308294164
H  H355  1  0.54550000  0.24030000  0.88450000  1.0 0.1308294164
H  H356  1  0.49030000  0.70450000  0.13450000  1.0 0.1308294164
H  H357  1  0.50970000  0.79550000  0.13450000  1.0 0.1308294164
H  H358  1  0.54550000  0.25970000  0.38450000  1.0 0.1384575202
H  H359  1  0.49030000  0.79550000  0.63450000  1.0 0.1384575202
H  H360  1  0.45450000  0.24030000  0.38450000  1.0 0.1308294164
H  H361  1  0.00970000  0.20450000  0.13450000  1.0 0.1384575202
H  H362  1  0.54550000  0.74030000  0.11550000  1.0 0.1308294164
H  H363  1  0.95450000  0.25970000  0.61550000  1.0 0.1308294164
H  H364  1  0.50970000  0.29550000  0.86550000  1.0 0.1384575202
H  H365  1  0.49030000  0.20450000  0.86550000  1.0 0.1308294164
H  H366  1  0.04550000  0.75970000  0.88450000  1.0 0.1308294164
H  H367  1  0.49030000  0.29550000  0.63450000  1.0 0.0890307818
H  H368  1  0.95450000  0.74030000  0.88450000  1.0 0.1384575202
H  H369  1  0.00970000  0.20450000  0.63450000  1.0 0.0890307818
H  H370  1  0.04550000  0.24030000  0.61550000  1.0 0.0890307818
H  H371  1  0.45450000  0.75970000  0.11550000  1.0 0.1308294164
H  H372  1  0.00970000  0.29550000  0.86550000  1.0 0.1005048675
H  H373  1  0.41500000  0.75510000  0.62100000  1.0 0.1308294164
H  H374  1  0.99490000  0.66500000  0.87100000  1.0 0.1308294164
H  H375  1  0.58500000  0.74490000  0.62100000  1.0 0.1384575202
H  H376  1  0.50510000  0.33500000  0.37100000  1.0 0.1308294164
H  H377  1  0.41500000  0.24490000  0.87900000  1.0 0.2185030944
H  H378  1  0.08500000  0.75510000  0.37900000  1.0 0.1308294164
H  H379  1  0.00510000  0.16500000  0.62900000  1.0 0.1308294164
H  H380  1  0.99490000  0.33500000  0.62900000  1.0 0.1384575202
H  H381  1  0.91500000  0.25510000  0.12100000  1.0 0.1384575202
H  H382  1  0.49490000  0.16500000  0.37100000  1.0 0.1308294164
H  H383  1  0.08500000  0.24490000  0.12100000  1.0 0.1308294164
H  H384  1  0.00510000  0.83500000  0.87100000  1.0 0.1308294164
H  H385  1  0.91500000  0.74490000  0.37900000  1.0 0.1308294164
H  H386  1  0.58500000  0.25510000  0.87900000  1.0 0.1384575202
H  H387  1  0.50510000  0.66500000  0.12900000  1.0 0.1308294164
H  H388  1  0.49490000  0.83500000  0.12900000  1.0 0.1308294164
H  H389  1  0.58500000  0.24490000  0.37900000  1.0 0.1384575202
H  H390  1  0.50510000  0.83500000  0.62900000  1.0 0.1308294164
H  H391  1  0.41500000  0.25510000  0.37900000  1.0 0.1308294164
H  H392  1  0.99490000  0.16500000  0.12900000  1.0 0.1308294164
H  H393  1  0.58500000  0.75510000  0.12100000  1.0 0.1384575202
H  H394  1  0.91500000  0.24490000  0.62100000  1.0 0.1384575202
H  H395  1  0.49490000  0.33500000  0.87100000  1.0 0.1384575202
H  H396  1  0.50510000  0.16500000  0.87100000  1.0 0.1384575202
H  H397  1  0.08500000  0.74490000  0.87900000  1.0 0.1308294164
H  H398  1  0.50510000  0.33500000  0.62900000  1.0 0.229076173
H  H399  1  0.91500000  0.75510000  0.87900000  1.0 0.1384575202
H  H400  1  0.99490000  0.16500000  0.62900000  1.0 0.1308294164
H  H401  1  0.08500000  0.25510000  0.62100000  1.0 0.229076173
H  H402  1  0.41500000  0.74490000  0.12100000  1.0 0.1384575202
H  H403  1  0.99490000  0.33500000  0.87100000  1.0 0.2115324739
H  H404  1  0.44220000  0.77810000  0.60450000  1.0 0.1384575202
H  H405  1  0.97190000  0.69220000  0.85450000  1.0 0.1384575202
H  H406  1  0.55780000  0.72190000  0.60450000  1.0 0.1308294164
H  H407  1  0.52810000  0.30780000  0.35450000  1.0 0.1384575202
H  H408  1  0.44220000  0.22190000  0.89550000  1.0 0.1005048675
H  H409  1  0.05780000  0.77810000  0.39550000  1.0 0.1308294164
H  H410  1  0.02810000  0.19220000  0.64550000  1.0 0.0710296364
H  H411  1  0.97190000  0.30780000  0.64550000  1.0 0.1510954652
H  H412  1  0.94220000  0.27810000  0.10450000  1.0 0.1308294164
H  H413  1  0.47190000  0.19220000  0.35450000  1.0 0.1384575202
H  H414  1  0.05780000  0.22190000  0.10450000  1.0 0.1384575202
H  H415  1  0.02810000  0.80780000  0.85450000  1.0 0.1384575202
H  H416  1  0.94220000  0.72190000  0.39550000  1.0 0.1308294164
H  H417  1  0.55780000  0.27810000  0.89550000  1.0 0.1384575202
H  H418  1  0.52810000  0.69220000  0.14550000  1.0 0.1384575202
H  H419  1  0.47190000  0.80780000  0.14550000  1.0 0.1384575202
H  H420  1  0.55780000  0.22190000  0.39550000  1.0 0.1384575202
H  H421  1  0.52810000  0.80780000  0.64550000  1.0 0.1384575202
H  H422  1  0.44220000  0.27810000  0.39550000  1.0 0.1384575202
H  H423  1  0.97190000  0.19220000  0.14550000  1.0 0.1384575202
H  H424  1  0.55780000  0.77810000  0.10450000  1.0 0.1384575202
H  H425  1  0.94220000  0.22190000  0.60450000  1.0 0.1510954652
H  H426  1  0.47190000  0.30780000  0.85450000  1.0 0.1384575202
H  H427  1  0.52810000  0.19220000  0.85450000  1.0 0.1510954652
H  H428  1  0.05780000  0.72190000  0.89550000  1.0 0.1384575202
H  H429  1  0.52810000  0.30780000  0.64550000  1.0 0.1384575202
H  H430  1  0.94220000  0.77810000  0.89550000  1.0 0.1384575202
H  H431  1  0.97190000  0.19220000  0.64550000  1.0 0.0793711115
H  H432  1  0.05780000  0.27810000  0.60450000  1.0 0.1759640171
H  H433  1  0.44220000  0.72190000  0.10450000  1.0 0.1384575202
H  H434  1  0.97190000  0.30780000  0.85450000  1.0 0.1208546254
H  H435  1  0.49020000  0.58580000  0.61240000  1.0 0.1308294164
H  H436  1  0.16420000  0.74020000  0.86240000  1.0 0.1308294164
H  H437  1  0.50980000  0.91420000  0.61240000  1.0 0.1308294164
H  H438  1  0.33580000  0.25980000  0.36240000  1.0 0.1384575202
H  H439  1  0.49020000  0.41420000  0.88760000  1.0 0.1308294164
H  H440  1  0.00980000  0.58580000  0.38760000  1.0 0.1308294164
H  H441  1  0.83580000  0.24020000  0.63760000  1.0 0.1308294164
H  H442  1  0.16420000  0.25980000  0.63760000  1.0 0.1110391165
H  H443  1  0.99020000  0.08580000  0.11240000  1.0 0.1308294164
H  H444  1  0.66420000  0.24020000  0.36240000  1.0 0.1384575202
H  H445  1  0.00980000  0.41420000  0.11240000  1.0 0.1308294164
H  H446  1  0.83580000  0.75980000  0.86240000  1.0 0.1384575202
H  H447  1  0.99020000  0.91420000  0.38760000  1.0 0.1308294164
H  H448  1  0.50980000  0.08580000  0.88760000  1.0 0.1384575202
H  H449  1  0.33580000  0.74020000  0.13760000  1.0 0.1384575202
H  H450  1  0.66420000  0.75980000  0.13760000  1.0 0.1384575202
H  H451  1  0.50980000  0.41420000  0.38760000  1.0 0.1308294164
H  H452  1  0.33580000  0.75980000  0.63760000  1.0 0.1384575202
H  H453  1  0.49020000  0.08580000  0.38760000  1.0 0.1308294164
H  H454  1  0.16420000  0.24020000  0.13760000  1.0 0.1384575202
H  H455  1  0.50980000  0.58580000  0.11240000  1.0 0.1308294164
H  H456  1  0.99020000  0.41420000  0.61240000  1.0 0.1308294164
H  H457  1  0.66420000  0.25980000  0.86240000  1.0 0.1384575202
H  H458  1  0.33580000  0.24020000  0.86240000  1.0 0.1110391165
H  H459  1  0.00980000  0.91420000  0.88760000  1.0 0.1308294164
H  H460  1  0.33580000  0.25980000  0.63760000  1.0 0.1005048675
H  H461  1  0.99020000  0.58580000  0.88760000  1.0 0.1384575202
H  H462  1  0.16420000  0.24020000  0.63760000  1.0 0.0793711115
H  H463  1  0.00980000  0.08580000  0.61240000  1.0 0.1384575202
H  H464  1  0.49020000  0.91420000  0.11240000  1.0 0.1308294164
H  H465  1  0.16420000  0.25980000  0.86240000  1.0 0.1308294164
H  H466  1  0.43580000  0.56550000  0.63180000  1.0 0.1308294164
H  H467  1  0.18450000  0.68580000  0.88180000  1.0 0.1308294164
H  H468  1  0.56420000  0.93450000  0.63180000  1.0 0.1308294164
H  H469  1  0.31550000  0.31420000  0.38180000  1.0 0.1308294164
H  H470  1  0.43580000  0.43450000  0.86820000  1.0 0.1308294164
H  H471  1  0.06420000  0.56550000  0.36820000  1.0 0.1308294164
H  H472  1  0.81550000  0.18580000  0.61820000  1.0 0.1308294164
H  H473  1  0.18450000  0.31420000  0.61820000  1.0 0.1697321975
H  H474  1  0.93580000  0.06550000  0.13180000  1.0 0.1308294164
H  H475  1  0.68450000  0.18580000  0.38180000  1.0 0.1308294164
H  H476  1  0.06420000  0.43450000  0.13180000  1.0 0.1308294164
H  H477  1  0.81550000  0.81420000  0.88180000  1.0 0.1308294164
H  H478  1  0.93580000  0.93450000  0.36820000  1.0 0.1308294164
H  H479  1  0.56420000  0.06550000  0.86820000  1.0 0.1308294164
H  H480  1  0.31550000  0.68580000  0.11820000  1.0 0.1308294164
H  H481  1  0.68450000  0.81420000  0.11820000  1.0 0.1308294164
H  H482  1  0.56420000  0.43450000  0.36820000  1.0 0.1308294164
H  H483  1  0.31550000  0.81420000  0.61820000  1.0 0.1308294164
H  H484  1  0.43580000  0.06550000  0.36820000  1.0 0.1308294164
H  H485  1  0.18450000  0.18580000  0.11820000  1.0 0.1308294164
H  H486  1  0.56420000  0.56550000  0.13180000  1.0 0.1308294164
H  H487  1  0.93580000  0.43450000  0.63180000  1.0 0.1308294164
H  H488  1  0.68450000  0.31420000  0.88180000  1.0 0.1308294164
H  H489  1  0.31550000  0.18580000  0.88180000  1.0 0.0793711115
H  H490  1  0.06420000  0.93450000  0.86820000  1.0 0.1308294164
H  H491  1  0.31550000  0.31420000  0.61820000  1.0 0.0890307818
H  H492  1  0.93580000  0.56550000  0.86820000  1.0 0.1208546254
H  H493  1  0.18450000  0.18580000  0.61820000  1.0 0.0793711115
H  H494  1  0.06420000  0.06550000  0.63180000  1.0 0.1308294164
H  H495  1  0.43580000  0.93450000  0.13180000  1.0 0.1308294164
H  H496  1  0.18450000  0.31420000  0.88180000  1.0 0.1110391165
H  H497  1  0.37950000  0.58190000  0.61410000  1.0 0.1384575202
H  H498  1  0.16810000  0.62950000  0.86410000  1.0 0.1384575202
H  H499  1  0.62050000  0.91810000  0.61410000  1.0 0.1384575202
H  H500  1  0.33190000  0.37050000  0.36410000  1.0 0.1384575202
H  H501  1  0.37950000  0.41810000  0.88590000  1.0 0.1308294164
H  H502  1  0.12050000  0.58190000  0.38590000  1.0 0.1308294164
H  H503  1  0.83190000  0.12950000  0.63590000  1.0 0.1308294164
H  H504  1  0.16810000  0.37050000  0.63590000  1.0 0.1308294164
H  H505  1  0.87950000  0.08190000  0.11410000  1.0 0.1308294164
H  H506  1  0.66810000  0.12950000  0.36410000  1.0 0.1384575202
H  H507  1  0.12050000  0.41810000  0.11410000  1.0 0.1308294164
H  H508  1  0.83190000  0.87050000  0.86410000  1.0 0.1384575202
H  H509  1  0.87950000  0.91810000  0.38590000  1.0 0.1308294164
H  H510  1  0.62050000  0.08190000  0.88590000  1.0 0.1384575202
H  H511  1  0.33190000  0.62950000  0.13590000  1.0 0.1384575202
H  H512  1  0.66810000  0.87050000  0.13590000  1.0 0.1384575202
H  H513  1  0.62050000  0.41810000  0.38590000  1.0 0.1384575202
H  H514  1  0.33190000  0.87050000  0.63590000  1.0 0.1384575202
H  H515  1  0.37950000  0.08190000  0.38590000  1.0 0.1384575202
H  H516  1  0.16810000  0.12950000  0.13590000  1.0 0.1384575202
H  H517  1  0.62050000  0.58190000  0.11410000  1.0 0.1384575202
H  H518  1  0.87950000  0.41810000  0.61410000  1.0 0.1384575202
H  H519  1  0.66810000  0.37050000  0.86410000  1.0 0.1384575202
H  H520  1  0.33190000  0.12950000  0.86410000  1.0 0.0890307818
H  H521  1  0.12050000  0.91810000  0.88590000  1.0 0.1384575202
H  H522  1  0.33190000  0.37050000  0.63590000  1.0 0.0890307818
H  H523  1  0.87950000  0.58190000  0.88590000  1.0 0.1384575202
H  H524  1  0.16810000  0.12950000  0.63590000  1.0 0.0793711115
H  H525  1  0.12050000  0.08190000  0.61410000  1.0 0.1308294164
H  H526  1  0.37950000  0.91810000  0.11410000  1.0 0.1384575202
H  H527  1  0.16810000  0.37050000  0.86410000  1.0 0.0890307818
H  H528  1  0.80050000  0.60880000  0.42090000  1.0 0.3500042937
H  H529  1  0.14120000  0.05050000  0.67090000  1.0 0.2809492452
H  H530  1  0.19950000  0.89120000  0.42090000  1.0 0.3500042937
H  H531  1  0.35880000  0.94950000  0.17090000  1.0 0.3590839303
H  H532  1  0.80050000  0.39120000  0.07910000  1.0 0.3500042937
H  H533  1  0.69950000  0.60880000  0.57910000  1.0 0.3500042937
H  H534  1  0.85880000  0.55050000  0.82910000  1.0 0.3500042937
H  H535  1  0.14120000  0.94950000  0.82910000  1.0 0.3590839303
H  H536  1  0.30050000  0.10880000  0.92090000  1.0 0.1510954652
H  H537  1  0.64120000  0.55050000  0.17090000  1.0 0.3590839303
H  H538  1  0.69950000  0.39120000  0.92090000  1.0 0.3500042937
H  H539  1  0.85880000  0.44950000  0.67090000  1.0 0.3500042937
H  H540  1  0.30050000  0.89120000  0.57910000  1.0 0.3500042937
H  H541  1  0.19950000  0.10880000  0.07910000  1.0 0.3500042937
H  H542  1  0.35880000  0.05050000  0.32910000  1.0 0.3500042937
H  H543  1  0.64120000  0.44950000  0.32910000  1.0 0.3590839303
H  H544  1  0.19950000  0.39120000  0.57910000  1.0 0.3305050136
H  H545  1  0.35880000  0.44950000  0.82910000  1.0 0.3500042937
H  H546  1  0.80050000  0.10880000  0.57910000  1.0 0.3500042937
H  H547  1  0.14120000  0.55050000  0.32910000  1.0 0.3392998376
H  H548  1  0.19950000  0.60880000  0.92090000  1.0 0.3500042937
H  H549  1  0.30050000  0.39120000  0.42090000  1.0 0.3500042937
H  H550  1  0.64120000  0.94950000  0.67090000  1.0 0.3500042937
H  H551  1  0.35880000  0.55050000  0.67090000  1.0 0.3392998376
H  H552  1  0.69950000  0.89120000  0.07910000  1.0 0.3500042937
H  H553  1  0.35880000  0.94950000  0.82910000  1.0 0.3305050136
H  H554  1  0.30050000  0.60880000  0.07910000  1.0 0.3500042937
H  H555  1  0.14120000  0.55050000  0.82910000  1.0 0.1576197571
H  H556  1  0.69950000  0.10880000  0.42090000  1.0 0.3500042937
H  H557  1  0.80050000  0.89120000  0.92090000  1.0 0.3500042937
H  H558  1  0.14120000  0.94950000  0.67090000  1.0 0.3207569662
H  H559  1  0.61060000  0.53760000  0.49760000  1.0 0.1208546254
H  H560  1  0.21240000  0.86060000  0.74760000  1.0 0.1208546254
H  H561  1  0.38940000  0.96240000  0.49760000  1.0 0.1208546254
H  H562  1  0.28760000  0.13940000  0.24760000  1.0 0.1208546254
H  H563  1  0.61060000  0.46240000  0.00240000  1.0 0.1208546254
H  H564  1  0.88940000  0.53760000  0.50240000  1.0 0.1208546254
H  H565  1  0.78760000  0.36060000  0.75240000  1.0 0.1208546254
H  H566  1  0.21240000  0.13940000  0.75240000  1.0 0.1005048675
H  H567  1  0.11060000  0.03760000  0.99760000  1.0 0.1208546254
H  H568  1  0.71240000  0.36060000  0.24760000  1.0 0.1208546254
H  H569  1  0.88940000  0.46240000  0.99760000  1.0 0.1208546254
H  H570  1  0.78760000  0.63940000  0.74760000  1.0 0.1208546254
H  H571  1  0.11060000  0.96240000  0.50240000  1.0 0.1208546254
H  H572  1  0.38940000  0.03760000  0.00240000  1.0 0.1208546254
H  H573  1  0.28760000  0.86060000  0.25240000  1.0 0.1208546254
H  H574  1  0.71240000  0.63940000  0.25240000  1.0 0.1208546254
H  H575  1  0.38940000  0.46240000  0.50240000  1.0 0.1208546254
H  H576  1  0.28760000  0.63940000  0.75240000  1.0 0.1208546254
H  H577  1  0.61060000  0.03760000  0.50240000  1.0 0.1208546254
H  H578  1  0.21240000  0.36060000  0.25240000  1.0 0.1208546254
H  H579  1  0.38940000  0.53760000  0.99760000  1.0 0.1208546254
H  H580  1  0.11060000  0.46240000  0.49760000  1.0 0.1208546254
H  H581  1  0.71240000  0.13940000  0.74760000  1.0 0.1208546254
H  H582  1  0.28760000  0.36060000  0.74760000  1.0 0.1110391165
H  H583  1  0.88940000  0.96240000  0.00240000  1.0 0.1208546254
H  H584  1  0.28760000  0.13940000  0.75240000  1.0 0.0890307818
H  H585  1  0.11060000  0.53760000  0.00240000  1.0 0.1208546254
H  H586  1  0.21240000  0.36060000  0.75240000  1.0 0.0890307818
H  H587  1  0.88940000  0.03760000  0.49760000  1.0 0.1208546254
H  H588  1  0.61060000  0.96240000  0.99760000  1.0 0.1208546254
H  H589  1  0.21240000  0.13940000  0.74760000  1.0 0.1005048675
H  H590  1  0.63920000  0.59950000  0.43710000  1.0 0.1308294164
H  H591  1  0.15050000  0.88920000  0.68710000  1.0 0.1308294164
H  H592  1  0.36080000  0.90050000  0.43710000  1.0 0.1308294164
H  H593  1  0.34950000  0.11080000  0.18710000  1.0 0.1308294164
H  H594  1  0.63920000  0.40050000  0.06290000  1.0 0.1308294164
H  H595  1  0.86080000  0.59950000  0.56290000  1.0 0.1308294164
H  H596  1  0.84950000  0.38920000  0.81290000  1.0 0.1208546254
H  H597  1  0.15050000  0.11080000  0.81290000  1.0 0.1308294164
H  H598  1  0.13920000  0.09950000  0.93710000  1.0 0.1208546254
H  H599  1  0.65050000  0.38920000  0.18710000  1.0 0.1308294164
H  H600  1  0.86080000  0.40050000  0.93710000  1.0 0.1208546254
H  H601  1  0.84950000  0.61080000  0.68710000  1.0 0.1308294164
H  H602  1  0.13920000  0.90050000  0.56290000  1.0 0.1308294164
H  H603  1  0.36080000  0.09950000  0.06290000  1.0 0.1308294164
H  H604  1  0.34950000  0.88920000  0.31290000  1.0 0.1308294164
H  H605  1  0.65050000  0.61080000  0.31290000  1.0 0.1308294164
H  H606  1  0.36080000  0.40050000  0.56290000  1.0 0.1308294164
H  H607  1  0.34950000  0.61080000  0.81290000  1.0 0.1308294164
H  H608  1  0.63920000  0.09950000  0.56290000  1.0 0.1308294164
H  H609  1  0.15050000  0.38920000  0.31290000  1.0 0.1308294164
H  H610  1  0.36080000  0.59950000  0.93710000  1.0 0.1308294164
H  H611  1  0.13920000  0.40050000  0.43710000  1.0 0.1308294164
H  H612  1  0.65050000  0.11080000  0.68710000  1.0 0.1308294164
H  H613  1  0.34950000  0.38920000  0.68710000  1.0 0.1208546254
H  H614  1  0.86080000  0.90050000  0.06290000  1.0 0.1308294164
H  H615  1  0.34950000  0.11080000  0.81290000  1.0 0.1208546254
H  H616  1  0.13920000  0.59950000  0.06290000  1.0 0.1308294164
H  H617  1  0.15050000  0.38920000  0.81290000  1.0 0.1308294164
H  H618  1  0.86080000  0.09950000  0.43710000  1.0 0.1308294164
H  H619  1  0.63920000  0.90050000  0.93710000  1.0 0.1308294164
H  H620  1  0.15050000  0.11080000  0.68710000  1.0 0.1208546254
H  H621  1  0.52260000  0.57960000  0.50470000  1.0 0.1576197571
H  H622  1  0.17040000  0.77260000  0.75470000  1.0 0.1510954652
H  H623  1  0.47740000  0.92040000  0.50470000  1.0 0.1576197571
H  H624  1  0.32960000  0.22740000  0.25470000  1.0 0.1576197571
H  H625  1  0.52260000  0.42040000  0.99530000  1.0 0.1576197571
H  H626  1  0.97740000  0.57960000  0.49530000  1.0 0.1576197571
H  H627  1  0.82960000  0.27260000  0.74530000  1.0 0.1510954652
H  H628  1  0.17040000  0.22740000  0.74530000  1.0 0.0890307818
H  H629  1  0.02260000  0.07960000  0.00470000  1.0 0.1576197571
H  H630  1  0.67040000  0.27260000  0.25470000  1.0 0.1384575202
H  H631  1  0.97740000  0.42040000  0.00470000  1.0 0.1510954652
H  H632  1  0.82960000  0.72740000  0.75470000  1.0 0.1384575202
H  H633  1  0.02260000  0.92040000  0.49530000  1.0 0.1576197571
H  H634  1  0.47740000  0.07960000  0.99530000  1.0 0.1510954652
H  H635  1  0.32960000  0.77260000  0.24530000  1.0 0.1384575202
H  H636  1  0.67040000  0.72740000  0.24530000  1.0 0.1384575202
H  H637  1  0.47740000  0.42040000  0.49530000  1.0 0.1510954652
H  H638  1  0.32960000  0.72740000  0.74530000  1.0 0.1576197571
H  H639  1  0.52260000  0.07960000  0.49530000  1.0 0.1576197571
H  H640  1  0.17040000  0.27260000  0.24530000  1.0 0.1576197571
H  H641  1  0.47740000  0.57960000  0.00470000  1.0 0.1576197571
H  H642  1  0.02260000  0.42040000  0.50470000  1.0 0.1576197571
H  H643  1  0.67040000  0.22740000  0.75470000  1.0 0.1576197571
H  H644  1  0.32960000  0.27260000  0.75470000  1.0 0.1005048675
H  H645  1  0.97740000  0.92040000  0.99530000  1.0 0.1576197571
H  H646  1  0.32960000  0.22740000  0.74530000  1.0 0.1005048675
H  H647  1  0.02260000  0.57960000  0.99530000  1.0 0.1576197571
H  H648  1  0.17040000  0.27260000  0.74530000  1.0 0.0710296364
H  H649  1  0.97740000  0.07960000  0.50470000  1.0 0.1576197571
H  H650  1  0.52260000  0.92040000  0.00470000  1.0 0.1576197571
H  H651  1  0.17040000  0.22740000  0.75470000  1.0 0.0793711115
H  H652  1  0.55400000  0.57010000  0.52370000  1.0 0.1384575202
H  H653  1  0.17990000  0.80400000  0.77370000  1.0 0.1384575202
H  H654  1  0.44600000  0.92990000  0.52370000  1.0 0.1384575202
H  H655  1  0.32010000  0.19600000  0.27370000  1.0 0.1384575202
H  H656  1  0.55400000  0.42990000  0.97630000  1.0 0.1384575202
H  H657  1  0.94600000  0.57010000  0.47630000  1.0 0.1384575202
H  H658  1  0.82010000  0.30400000  0.72630000  1.0 0.1384575202
H  H659  1  0.17990000  0.19600000  0.72630000  1.0 0.0793711115
H  H660  1  0.05400000  0.07010000  0.02370000  1.0 0.1384575202
H  H661  1  0.67990000  0.30400000  0.27370000  1.0 0.1384575202
H  H662  1  0.94600000  0.42990000  0.02370000  1.0 0.1384575202
H  H663  1  0.82010000  0.69600000  0.77370000  1.0 0.1384575202
H  H664  1  0.05400000  0.92990000  0.47630000  1.0 0.1384575202
H  H665  1  0.44600000  0.07010000  0.97630000  1.0 0.1384575202
H  H666  1  0.32010000  0.80400000  0.22630000  1.0 0.1384575202
H  H667  1  0.67990000  0.69600000  0.22630000  1.0 0.1384575202
H  H668  1  0.44600000  0.42990000  0.47630000  1.0 0.1384575202
H  H669  1  0.32010000  0.69600000  0.72630000  1.0 0.1384575202
H  H670  1  0.55400000  0.07010000  0.47630000  1.0 0.1384575202
H  H671  1  0.17990000  0.30400000  0.22630000  1.0 0.1384575202
H  H672  1  0.44600000  0.57010000  0.02370000  1.0 0.1384575202
H  H673  1  0.05400000  0.42990000  0.52370000  1.0 0.1384575202
H  H674  1  0.67990000  0.19600000  0.77370000  1.0 0.1384575202
H  H675  1  0.32010000  0.30400000  0.77370000  1.0 0.0710296364
H  H676  1  0.94600000  0.92990000  0.97630000  1.0 0.1384575202
H  H677  1  0.32010000  0.19600000  0.72630000  1.0 0.0793711115
H  H678  1  0.05400000  0.57010000  0.97630000  1.0 0.1384575202
H  H679  1  0.17990000  0.30400000  0.72630000  1.0 0.0793711115
H  H680  1  0.94600000  0.07010000  0.52370000  1.0 0.1384575202
H  H681  1  0.55400000  0.92990000  0.02370000  1.0 0.1384575202
H  H682  1  0.17990000  0.19600000  0.77370000  1.0 0.0710296364
H  H683  1  0.53680000  0.53930000  0.50690000  1.0 0.1384575202
H  H684  1  0.21070000  0.78680000  0.75690000  1.0 0.1384575202
H  H685  1  0.46320000  0.96070000  0.50690000  1.0 0.1384575202
H  H686  1  0.28930000  0.21320000  0.25690000  1.0 0.1384575202
H  H687  1  0.53680000  0.46070000  0.99310000  1.0 0.1384575202
H  H688  1  0.96320000  0.53930000  0.49310000  1.0 0.1384575202
H  H689  1  0.78930000  0.28680000  0.74310000  1.0 0.1384575202
H  H690  1  0.21070000  0.21320000  0.74310000  1.0 0.0592408112
H  H691  1  0.03680000  0.03930000  0.00690000  1.0 0.1384575202
H  H692  1  0.71070000  0.28680000  0.25690000  1.0 0.1384575202
H  H693  1  0.96320000  0.46070000  0.00690000  1.0 0.1384575202
H  H694  1  0.78930000  0.71320000  0.75690000  1.0 0.1384575202
H  H695  1  0.03680000  0.96070000  0.49310000  1.0 0.1384575202
H  H696  1  0.46320000  0.03930000  0.99310000  1.0 0.1384575202
H  H697  1  0.28930000  0.78680000  0.24310000  1.0 0.1384575202
H  H698  1  0.71070000  0.71320000  0.24310000  1.0 0.1384575202
H  H699  1  0.46320000  0.46070000  0.49310000  1.0 0.1384575202
H  H700  1  0.28930000  0.71320000  0.74310000  1.0 0.1384575202
H  H701  1  0.53680000  0.03930000  0.49310000  1.0 0.1384575202
H  H702  1  0.21070000  0.28680000  0.24310000  1.0 0.1384575202
H  H703  1  0.46320000  0.53930000  0.00690000  1.0 0.1384575202
H  H704  1  0.03680000  0.46070000  0.50690000  1.0 0.1384575202
H  H705  1  0.71070000  0.21320000  0.75690000  1.0 0.1384575202
H  H706  1  0.28930000  0.28680000  0.75690000  1.0 0.0793711115
H  H707  1  0.96320000  0.96070000  0.99310000  1.0 0.1384575202
H  H708  1  0.28930000  0.21320000  0.74310000  1.0 0.0793711115
H  H709  1  0.03680000  0.53930000  0.99310000  1.0 0.1384575202
H  H710  1  0.21070000  0.28680000  0.74310000  1.0 0.0710296364
H  H711  1  0.96320000  0.03930000  0.50690000  1.0 0.1384575202
H  H712  1  0.53680000  0.96070000  0.00690000  1.0 0.1384575202
H  H713  1  0.21070000  0.21320000  0.75690000  1.0 0.0710296364
H  H714  1  0.71300000  0.50840000  0.44200000  1.0 0.1208546254
H  H715  1  0.24160000  0.96300000  0.69200000  1.0 0.0890307818
H  H716  1  0.28700000  0.99160000  0.44200000  1.0 0.1308294164
H  H717  1  0.25840000  0.03700000  0.19200000  1.0 0.1308294164
H  H718  1  0.71300000  0.49160000  0.05800000  1.0 0.1208546254
H  H719  1  0.78700000  0.50840000  0.55800000  1.0 0.1208546254
H  H720  1  0.75840000  0.46300000  0.80800000  1.0 0.1308294164
H  H721  1  0.24160000  0.03700000  0.80800000  1.0 0.0793711115
H  H722  1  0.21300000  0.00840000  0.94200000  1.0 0.1384575202
H  H723  1  0.74160000  0.46300000  0.19200000  1.0 0.1308294164
H  H724  1  0.78700000  0.49160000  0.94200000  1.0 0.1208546254
H  H725  1  0.75840000  0.53700000  0.69200000  1.0 0.1308294164
H  H726  1  0.21300000  0.99160000  0.55800000  1.0 0.1308294164
H  H727  1  0.28700000  0.00840000  0.05800000  1.0 0.1208546254
H  H728  1  0.25840000  0.96300000  0.30800000  1.0 0.1308294164
H  H729  1  0.74160000  0.53700000  0.30800000  1.0 0.1308294164
H  H730  1  0.28700000  0.49160000  0.55800000  1.0 0.1110391165
H  H731  1  0.25840000  0.53700000  0.80800000  1.0 0.1005048675
H  H732  1  0.71300000  0.00840000  0.55800000  1.0 0.1308294164
H  H733  1  0.24160000  0.46300000  0.30800000  1.0 0.1308294164
H  H734  1  0.28700000  0.50840000  0.94200000  1.0 0.1308294164
H  H735  1  0.21300000  0.49160000  0.44200000  1.0 0.1308294164
H  H736  1  0.74160000  0.03700000  0.69200000  1.0 0.1208546254
H  H737  1  0.25840000  0.46300000  0.69200000  1.0 0.1308294164
H  H738  1  0.78700000  0.99160000  0.05800000  1.0 0.1308294164
H  H739  1  0.25840000  0.03700000  0.80800000  1.0 0.0793711115
H  H740  1  0.21300000  0.50840000  0.05800000  1.0 0.1308294164
H  H741  1  0.24160000  0.46300000  0.80800000  1.0 0.1005048675
H  H742  1  0.78700000  0.00840000  0.44200000  1.0 0.1308294164
H  H743  1  0.71300000  0.99160000  0.94200000  1.0 0.1308294164
H  H744  1  0.24160000  0.03700000  0.69200000  1.0 0.0710296364
H  H745  1  0.69330000  0.61260000  0.45950000  1.0 0.1308294164
H  H746  1  0.13740000  0.94330000  0.70950000  1.0 0.1005048675
H  H747  1  0.30670000  0.88740000  0.45950000  1.0 0.1308294164
H  H748  1  0.36260000  0.05670000  0.20950000  1.0 0.1308294164
H  H749  1  0.69330000  0.38740000  0.04050000  1.0 0.1308294164
H  H750  1  0.80670000  0.61260000  0.54050000  1.0 0.1308294164
H  H751  1  0.86260000  0.44330000  0.79050000  1.0 0.1308294164
H  H752  1  0.13740000  0.05670000  0.79050000  1.0 0.1308294164
H  H753  1  0.19330000  0.11260000  0.95950000  1.0 0.1208546254
H  H754  1  0.63740000  0.44330000  0.20950000  1.0 0.1308294164
H  H755  1  0.80670000  0.38740000  0.95950000  1.0 0.1308294164
H  H756  1  0.86260000  0.55670000  0.70950000  1.0 0.1308294164
H  H757  1  0.19330000  0.88740000  0.54050000  1.0 0.1308294164
H  H758  1  0.30670000  0.11260000  0.04050000  1.0 0.1308294164
H  H759  1  0.36260000  0.94330000  0.29050000  1.0 0.1308294164
H  H760  1  0.63740000  0.55670000  0.29050000  1.0 0.1308294164
H  H761  1  0.30670000  0.38740000  0.54050000  1.0 0.1384575202
H  H762  1  0.36260000  0.55670000  0.79050000  1.0 0.1384575202
H  H763  1  0.69330000  0.11260000  0.54050000  1.0 0.1308294164
H  H764  1  0.13740000  0.44330000  0.29050000  1.0 0.1384575202
H  H765  1  0.30670000  0.61260000  0.95950000  1.0 0.1308294164
H  H766  1  0.19330000  0.38740000  0.45950000  1.0 0.1308294164
H  H767  1  0.63740000  0.05670000  0.70950000  1.0 0.1308294164
H  H768  1  0.36260000  0.44330000  0.70950000  1.0 0.1110391165
H  H769  1  0.80670000  0.88740000  0.04050000  1.0 0.1308294164
H  H770  1  0.36260000  0.05670000  0.79050000  1.0 0.0890307818
H  H771  1  0.19330000  0.61260000  0.04050000  1.0 0.1308294164
H  H772  1  0.13740000  0.44330000  0.79050000  1.0 0.1110391165
H  H773  1  0.80670000  0.11260000  0.45950000  1.0 0.1308294164
H  H774  1  0.69330000  0.88740000  0.95950000  1.0 0.1308294164
H  H775  1  0.13740000  0.05670000  0.70950000  1.0 0.0793711115
H  H776  1  0.79910000  0.52480000  0.41170000  1.0 0.1308294164
H  H777  1  0.22520000  0.04910000  0.66170000  1.0 0.1208546254
H  H778  1  0.20090000  0.97520000  0.41170000  1.0 0.1308294164
H  H779  1  0.27480000  0.95090000  0.16170000  1.0 0.1308294164
H  H780  1  0.79910000  0.47520000  0.08830000  1.0 0.1308294164
H  H781  1  0.70090000  0.52480000  0.58830000  1.0 0.1308294164
H  H782  1  0.77480000  0.54910000  0.83830000  1.0 0.1308294164
H  H783  1  0.22520000  0.95090000  0.83830000  1.0 0.1005048675
H  H784  1  0.29910000  0.02480000  0.91170000  1.0 0.1110391165
H  H785  1  0.72520000  0.54910000  0.16170000  1.0 0.1384575202
H  H786  1  0.70090000  0.47520000  0.91170000  1.0 0.1308294164
H  H787  1  0.77480000  0.45090000  0.66170000  1.0 0.1308294164
H  H788  1  0.29910000  0.97520000  0.58830000  1.0 0.1384575202
H  H789  1  0.20090000  0.02480000  0.08830000  1.0 0.1308294164
H  H790  1  0.27480000  0.04910000  0.33830000  1.0 0.1308294164
H  H791  1  0.72520000  0.45090000  0.33830000  1.0 0.1384575202
H  H792  1  0.20090000  0.47520000  0.58830000  1.0 0.1510954652
H  H793  1  0.27480000  0.45090000  0.83830000  1.0 0.1308294164
H  H794  1  0.79910000  0.02480000  0.58830000  1.0 0.1308294164
H  H795  1  0.22520000  0.54910000  0.33830000  1.0 0.1308294164
H  H796  1  0.20090000  0.52480000  0.91170000  1.0 0.1208546254
H  H797  1  0.29910000  0.47520000  0.41170000  1.0 0.1308294164
H  H798  1  0.72520000  0.95090000  0.66170000  1.0 0.1308294164
H  H799  1  0.27480000  0.54910000  0.66170000  1.0 0.1308294164
H  H800  1  0.70090000  0.97520000  0.08830000  1.0 0.1308294164
H  H801  1  0.27480000  0.95090000  0.83830000  1.0 0.1110391165
H  H802  1  0.29910000  0.52480000  0.08830000  1.0 0.1308294164
H  H803  1  0.22520000  0.54910000  0.83830000  1.0 0.1110391165
H  H804  1  0.70090000  0.02480000  0.41170000  1.0 0.1308294164
H  H805  1  0.79910000  0.97520000  0.91170000  1.0 0.1308294164
H  H806  1  0.22520000  0.95090000  0.66170000  1.0 0.1110391165
H  H807  1  0.76570000  0.49900000  0.40620000  1.0 0.1384575202
H  H808  1  0.25100000  0.01570000  0.65620000  1.0 0.0890307818
H  H809  1  0.23430000  0.00100000  0.40620000  1.0 0.1510954652
H  H810  1  0.24900000  0.98430000  0.15620000  1.0 0.1510954652
H  H811  1  0.76570000  0.50100000  0.09380000  1.0 0.1510954652
H  H812  1  0.73430000  0.49900000  0.59380000  1.0 0.1510954652
H  H813  1  0.74900000  0.51570000  0.84380000  1.0 0.1510954652
H  H814  1  0.25100000  0.98430000  0.84380000  1.0 0.1308294164
H  H815  1  0.26570000  0.99900000  0.90620000  1.0 0.1384575202
H  H816  1  0.75100000  0.51570000  0.15620000  1.0 0.1510954652
H  H817  1  0.73430000  0.50100000  0.90620000  1.0 0.1384575202
H  H818  1  0.74900000  0.48430000  0.65620000  1.0 0.1510954652
H  H819  1  0.26570000  0.00100000  0.59380000  1.0 0.1510954652
H  H820  1  0.23430000  0.99900000  0.09380000  1.0 0.1384575202
H  H821  1  0.24900000  0.01570000  0.34380000  1.0 0.1510954652
H  H822  1  0.75100000  0.48430000  0.34380000  1.0 0.1510954652
H  H823  1  0.23430000  0.50100000  0.59380000  1.0 0.1576197571
H  H824  1  0.24900000  0.48430000  0.84380000  1.0 0.1208546254
H  H825  1  0.76570000  0.99900000  0.59380000  1.0 0.1510954652
H  H826  1  0.25100000  0.51570000  0.34380000  1.0 0.1510954652
H  H827  1  0.23430000  0.49900000  0.90620000  1.0 0.1308294164
H  H828  1  0.26570000  0.50100000  0.40620000  1.0 0.1510954652
H  H829  1  0.75100000  0.98430000  0.65620000  1.0 0.1510954652
H  H830  1  0.24900000  0.51570000  0.65620000  1.0 0.1510954652
H  H831  1  0.73430000  0.00100000  0.09380000  1.0 0.1510954652
H  H832  1  0.24900000  0.98430000  0.84380000  1.0 0.1308294164
H  H833  1  0.26570000  0.49900000  0.09380000  1.0 0.1510954652
H  H834  1  0.25100000  0.51570000  0.84380000  1.0 0.0499194568
H  H835  1  0.73430000  0.99900000  0.40620000  1.0 0.1510954652
H  H836  1  0.76570000  0.00100000  0.90620000  1.0 0.1510954652
H  H837  1  0.25100000  0.98430000  0.65620000  1.0 0.0499194568
H  H838  1  0.78590000  0.49700000  0.43230000  1.0 0.1308294164
H  H839  1  0.25300000  0.03590000  0.68230000  1.0 0.0793711115
H  H840  1  0.21410000  0.00300000  0.43230000  1.0 0.1384575202
H  H841  1  0.24700000  0.96410000  0.18230000  1.0 0.1384575202
H  H842  1  0.78590000  0.50300000  0.06770000  1.0 0.1308294164
H  H843  1  0.71410000  0.49700000  0.56770000  1.0 0.1384575202
H  H844  1  0.74700000  0.53590000  0.81770000  1.0 0.1384575202
H  H845  1  0.25300000  0.96410000  0.81770000  1.0 0.1208546254
H  H846  1  0.28590000  0.99700000  0.93230000  1.0 0.1208546254
H  H847  1  0.75300000  0.53590000  0.18230000  1.0 0.1384575202
H  H848  1  0.71410000  0.50300000  0.93230000  1.0 0.1308294164
H  H849  1  0.74700000  0.46410000  0.68230000  1.0 0.1384575202
H  H850  1  0.28590000  0.00300000  0.56770000  1.0 0.1384575202
H  H851  1  0.21410000  0.99700000  0.06770000  1.0 0.1308294164
H  H852  1  0.24700000  0.03590000  0.31770000  1.0 0.1384575202
H  H853  1  0.75300000  0.46410000  0.31770000  1.0 0.1384575202
H  H854  1  0.21410000  0.50300000  0.56770000  1.0 0.1384575202
H  H855  1  0.24700000  0.46410000  0.81770000  1.0 0.1005048675
H  H856  1  0.78590000  0.99700000  0.56770000  1.0 0.1384575202
H  H857  1  0.25300000  0.53590000  0.31770000  1.0 0.1510954652
H  H858  1  0.21410000  0.49700000  0.93230000  1.0 0.1110391165
H  H859  1  0.28590000  0.50300000  0.43230000  1.0 0.1384575202
H  H860  1  0.75300000  0.96410000  0.68230000  1.0 0.1510954652
H  H861  1  0.24700000  0.53590000  0.68230000  1.0 0.1308294164
H  H862  1  0.71410000  0.00300000  0.06770000  1.0 0.1384575202
H  H863  1  0.24700000  0.96410000  0.81770000  1.0 0.1208546254
H  H864  1  0.28590000  0.49700000  0.06770000  1.0 0.1308294164
H  H865  1  0.25300000  0.53590000  0.81770000  1.0 0.0793711115
H  H866  1  0.71410000  0.99700000  0.43230000  1.0 0.1384575202
H  H867  1  0.78590000  0.00300000  0.93230000  1.0 0.1384575202
H  H868  1  0.25300000  0.96410000  0.68230000  1.0 0.0710296364
H  H869  1  0.71830000  0.48120000  0.52780000  1.0 0.1384575202
H  H870  1  0.26880000  0.96830000  0.77780000  1.0 0.1308294164
H  H871  1  0.28170000  0.01880000  0.52780000  1.0 0.1308294164
H  H872  1  0.23120000  0.03170000  0.27780000  1.0 0.1308294164
H  H873  1  0.71830000  0.51880000  0.97220000  1.0 0.1308294164
H  H874  1  0.78170000  0.48120000  0.47220000  1.0 0.1308294164
H  H875  1  0.73120000  0.46830000  0.72220000  1.0 0.1308294164
H  H876  1  0.26880000  0.03170000  0.72220000  1.0 0.1208546254
H  H877  1  0.21830000  0.98120000  0.02780000  1.0 0.1308294164
H  H878  1  0.76880000  0.46830000  0.27780000  1.0 0.1308294164
H  H879  1  0.78170000  0.51880000  0.02780000  1.0 0.1308294164
H  H880  1  0.73120000  0.53170000  0.77780000  1.0 0.1384575202
H  H881  1  0.21830000  0.01880000  0.47220000  1.0 0.1308294164
H  H882  1  0.28170000  0.98120000  0.97220000  1.0 0.1384575202
H  H883  1  0.23120000  0.96830000  0.22220000  1.0 0.1384575202
H  H884  1  0.76880000  0.53170000  0.22220000  1.0 0.1308294164
H  H885  1  0.28170000  0.51880000  0.47220000  1.0 0.1384575202
H  H886  1  0.23120000  0.53170000  0.72220000  1.0 0.1308294164
H  H887  1  0.71830000  0.98120000  0.47220000  1.0 0.1308294164
H  H888  1  0.26880000  0.46830000  0.22220000  1.0 0.1384575202
H  H889  1  0.28170000  0.48120000  0.02780000  1.0 0.1384575202
H  H890  1  0.21830000  0.51880000  0.52780000  1.0 0.1308294164
H  H891  1  0.76880000  0.03170000  0.77780000  1.0 0.1384575202
H  H892  1  0.23120000  0.46830000  0.77780000  1.0 0.1208546254
H  H893  1  0.78170000  0.01880000  0.97220000  1.0 0.1308294164
H  H894  1  0.23120000  0.03170000  0.72220000  1.0 0.1110391165
H  H895  1  0.21830000  0.48120000  0.97220000  1.0 0.1308294164
H  H896  1  0.26880000  0.46830000  0.72220000  1.0 0.1110391165
H  H897  1  0.78170000  0.98120000  0.52780000  1.0 0.1308294164
H  H898  1  0.71830000  0.01880000  0.02780000  1.0 0.1308294164
H  H899  1  0.26880000  0.03170000  0.77780000  1.0 0.0890307818
H  H900  1  0.69410000  0.42380000  0.51220000  1.0 0.1308294164
H  H901  1  0.32620000  0.94410000  0.76220000  1.0 0.1308294164
H  H902  1  0.30590000  0.07620000  0.51220000  1.0 0.1308294164
H  H903  1  0.17380000  0.05590000  0.26220000  1.0 0.1308294164
H  H904  1  0.69410000  0.57620000  0.98780000  1.0 0.1208546254
H  H905  1  0.80590000  0.42380000  0.48780000  1.0 0.1308294164
H  H906  1  0.67380000  0.44410000  0.73780000  1.0 0.1208546254
H  H907  1  0.32620000  0.05590000  0.73780000  1.0 0.1110391165
H  H908  1  0.19410000  0.92380000  0.01220000  1.0 0.1308294164
H  H909  1  0.82620000  0.44410000  0.26220000  1.0 0.1308294164
H  H910  1  0.80590000  0.57620000  0.01220000  1.0 0.1208546254
H  H911  1  0.67380000  0.55590000  0.76220000  1.0 0.1308294164
H  H912  1  0.19410000  0.07620000  0.48780000  1.0 0.1308294164
H  H913  1  0.30590000  0.92380000  0.98780000  1.0 0.1308294164
H  H914  1  0.17380000  0.94410000  0.23780000  1.0 0.1308294164
H  H915  1  0.82620000  0.55590000  0.23780000  1.0 0.1308294164
H  H916  1  0.30590000  0.57620000  0.48780000  1.0 0.1308294164
H  H917  1  0.17380000  0.55590000  0.73780000  1.0 0.1308294164
H  H918  1  0.69410000  0.92380000  0.48780000  1.0 0.1308294164
H  H919  1  0.32620000  0.44410000  0.23780000  1.0 0.1308294164
H  H920  1  0.30590000  0.42380000  0.01220000  1.0 0.1308294164
H  H921  1  0.19410000  0.57620000  0.51220000  1.0 0.1308294164
H  H922  1  0.82620000  0.05590000  0.76220000  1.0 0.1308294164
H  H923  1  0.17380000  0.44410000  0.76220000  1.0 0.1308294164
H  H924  1  0.80590000  0.07620000  0.98780000  1.0 0.1308294164
H  H925  1  0.17380000  0.05590000  0.73780000  1.0 0.1384575202
H  H926  1  0.19410000  0.42380000  0.98780000  1.0 0.1110391165
H  H927  1  0.32620000  0.44410000  0.73780000  1.0 0.1110391165
H  H928  1  0.80590000  0.92380000  0.51220000  1.0 0.1308294164
H  H929  1  0.69410000  0.07620000  0.01220000  1.0 0.1308294164
H  H930  1  0.32620000  0.05590000  0.76220000  1.0 0.1005048675
H  H931  1  0.65410000  0.42380000  0.47830000  1.0 0.1384575202
H  H932  1  0.32620000  0.90410000  0.72830000  1.0 0.1384575202
H  H933  1  0.34590000  0.07620000  0.47830000  1.0 0.1384575202
H  H934  1  0.17380000  0.09590000  0.22830000  1.0 0.1384575202
H  H935  1  0.65410000  0.57620000  0.02170000  1.0 0.1384575202
H  H936  1  0.84590000  0.42380000  0.52170000  1.0 0.1384575202
H  H937  1  0.67380000  0.40410000  0.77170000  1.0 0.1308294164
H  H938  1  0.32620000  0.09590000  0.77170000  1.0 0.0793711115
H  H939  1  0.15410000  0.92380000  0.97830000  1.0 0.1384575202
H  H940  1  0.82620000  0.40410000  0.22830000  1.0 0.1510954652
H  H941  1  0.84590000  0.57620000  0.97830000  1.0 0.1308294164
H  H942  1  0.67380000  0.59590000  0.72830000  1.0 0.1384575202
H  H943  1  0.15410000  0.07620000  0.52170000  1.0 0.1384575202
H  H944  1  0.34590000  0.92380000  0.02170000  1.0 0.1384575202
H  H945  1  0.17380000  0.90410000  0.27170000  1.0 0.1510954652
H  H946  1  0.82620000  0.59590000  0.27170000  1.0 0.1510954652
H  H947  1  0.34590000  0.57620000  0.52170000  1.0 0.1384575202
H  H948  1  0.17380000  0.59590000  0.77170000  1.0 0.1384575202
H  H949  1  0.65410000  0.92380000  0.52170000  1.0 0.1384575202
H  H950  1  0.32620000  0.40410000  0.27170000  1.0 0.1308294164
H  H951  1  0.34590000  0.42380000  0.97830000  1.0 0.1384575202
H  H952  1  0.15410000  0.57620000  0.47830000  1.0 0.1384575202
H  H953  1  0.82620000  0.09590000  0.72830000  1.0 0.1308294164
H  H954  1  0.17380000  0.40410000  0.72830000  1.0 0.1308294164
H  H955  1  0.84590000  0.07620000  0.02170000  1.0 0.1384575202
H  H956  1  0.17380000  0.09590000  0.77170000  1.0 0.1005048675
H  H957  1  0.15410000  0.42380000  0.02170000  1.0 0.1384575202
H  H958  1  0.32620000  0.40410000  0.77170000  1.0 0.0890307818
H  H959  1  0.84590000  0.92380000  0.47830000  1.0 0.1384575202
H  H960  1  0.65410000  0.07620000  0.97830000  1.0 0.1384575202
H  H961  1  0.32620000  0.09590000  0.72830000  1.0 0.1110391165
H  H962  1  0.32730000  0.48130000  0.29880000  1.0 0.3392998376
H  H963  1  0.26870000  0.57730000  0.54880000  1.0 0.3392998376
H  H964  1  0.67270000  0.01870000  0.29880000  1.0 0.3590839303
H  H965  1  0.23130000  0.42270000  0.04880000  1.0 0.3392998376
H  H966  1  0.32730000  0.51870000  0.20120000  1.0 0.3500042937
H  H967  1  0.17270000  0.48130000  0.70120000  1.0 0.3305050136
H  H968  1  0.73130000  0.07730000  0.95120000  1.0 0.3392998376
H  H969  1  0.26870000  0.42270000  0.95120000  1.0 0.2809492452
H  H970  1  0.82730000  0.98130000  0.79880000  1.0 0.3500042937
H  H971  1  0.76870000  0.07730000  0.04880000  1.0 0.3392998376
H  H972  1  0.17270000  0.51870000  0.79880000  1.0 0.1901884569
H  H973  1  0.73130000  0.92270000  0.54880000  1.0 0.3392998376
H  H974  1  0.82730000  0.01870000  0.70120000  1.0 0.3500042937
H  H975  1  0.67270000  0.98130000  0.20120000  1.0 0.3590839303
H  H976  1  0.23130000  0.57730000  0.45120000  1.0 0.3392998376
H  H977  1  0.76870000  0.92270000  0.45120000  1.0 0.3392998376
H  H978  1  0.67270000  0.51870000  0.70120000  1.0 0.3392998376
H  H979  1  0.23130000  0.92270000  0.95120000  1.0 0.3392998376
H  H980  1  0.32730000  0.98130000  0.70120000  1.0 0.3305050136
H  H981  1  0.26870000  0.07730000  0.45120000  1.0 0.3392998376
H  H982  1  0.67270000  0.48130000  0.79880000  1.0 0.3392998376
H  H983  1  0.82730000  0.51870000  0.29880000  1.0 0.3392998376
H  H984  1  0.76870000  0.42270000  0.54880000  1.0 0.3392998376
H  H985  1  0.23130000  0.07730000  0.54880000  1.0 0.3500042937
H  H986  1  0.17270000  0.01870000  0.20120000  1.0 0.3392998376
H  H987  1  0.23130000  0.42270000  0.95120000  1.0 0.2726090494
H  H988  1  0.82730000  0.48130000  0.20120000  1.0 0.3392998376
H  H989  1  0.26870000  0.07730000  0.95120000  1.0 0.1901884569
H  H990  1  0.17270000  0.98130000  0.29880000  1.0 0.3392998376
H  H991  1  0.32730000  0.01870000  0.79880000  1.0 0.1308294164
H  H992  1  0.26870000  0.42270000  0.54880000  1.0 0.1110391165
H  H993  1  0.46360000  0.45560000  0.42730000  1.0 0.1208546254
H  H994  1  0.29440000  0.71360000  0.67730000  1.0 0.1208546254
H  H995  1  0.53640000  0.04440000  0.42730000  1.0 0.1208546254
H  H996  1  0.20560000  0.28640000  0.17730000  1.0 0.1208546254
H  H997  1  0.46360000  0.54440000  0.07270000  1.0 0.1208546254
H  H998  1  0.03640000  0.45560000  0.57270000  1.0 0.1208546254
H  H999  1  0.70560000  0.21360000  0.82270000  1.0 0.1208546254
H  H1000  1  0.29440000  0.28640000  0.82270000  1.0 0.0793711115
H  H1001  1  0.96360000  0.95560000  0.92730000  1.0 0.1208546254
H  H1002  1  0.79440000  0.21360000  0.17730000  1.0 0.1208546254
H  H1003  1  0.03640000  0.54440000  0.92730000  1.0 0.1208546254
H  H1004  1  0.70560000  0.78640000  0.67730000  1.0 0.1208546254
H  H1005  1  0.96360000  0.04440000  0.57270000  1.0 0.1208546254
H  H1006  1  0.53640000  0.95560000  0.07270000  1.0 0.1208546254
H  H1007  1  0.20560000  0.71360000  0.32270000  1.0 0.1208546254
H  H1008  1  0.79440000  0.78640000  0.32270000  1.0 0.1208546254
H  H1009  1  0.53640000  0.54440000  0.57270000  1.0 0.1208546254
H  H1010  1  0.20560000  0.78640000  0.82270000  1.0 0.1208546254
H  H1011  1  0.46360000  0.95560000  0.57270000  1.0 0.1208546254
H  H1012  1  0.29440000  0.21360000  0.32270000  1.0 0.1208546254
H  H1013  1  0.53640000  0.45560000  0.92730000  1.0 0.1208546254
H  H1014  1  0.96360000  0.54440000  0.42730000  1.0 0.1208546254
H  H1015  1  0.79440000  0.28640000  0.67730000  1.0 0.1208546254
H  H1016  1  0.20560000  0.21360000  0.67730000  1.0 0.2002708665
H  H1017  1  0.03640000  0.04440000  0.07270000  1.0 0.1208546254
H  H1018  1  0.20560000  0.28640000  0.82270000  1.0 0.1110391165
H  H1019  1  0.96360000  0.45560000  0.07270000  1.0 0.1208546254
H  H1020  1  0.29440000  0.21360000  0.82270000  1.0 0.1576197571
H  H1021  1  0.03640000  0.95560000  0.42730000  1.0 0.1208546254
H  H1022  1  0.46360000  0.04440000  0.92730000  1.0 0.1208546254
H  H1023  1  0.29440000  0.28640000  0.67730000  1.0 0.229076173
H  H1024  1  0.42520000  0.53170000  0.37770000  1.0 0.1208546254
H  H1025  1  0.21830000  0.67520000  0.62770000  1.0 0.1208546254
H  H1026  1  0.57480000  0.96830000  0.37770000  1.0 0.1308294164
H  H1027  1  0.28170000  0.32480000  0.12770000  1.0 0.1208546254
H  H1028  1  0.42520000  0.46830000  0.12230000  1.0 0.1208546254
H  H1029  1  0.07480000  0.53170000  0.62230000  1.0 0.1208546254
H  H1030  1  0.78170000  0.17520000  0.87230000  1.0 0.1208546254
H  H1031  1  0.21830000  0.32480000  0.87230000  1.0 0.0793711115
H  H1032  1  0.92520000  0.03170000  0.87770000  1.0 0.1208546254
H  H1033  1  0.71830000  0.17520000  0.12770000  1.0 0.1208546254
H  H1034  1  0.07480000  0.46830000  0.87770000  1.0 0.1208546254
H  H1035  1  0.78170000  0.82480000  0.62770000  1.0 0.1208546254
H  H1036  1  0.92520000  0.96830000  0.62230000  1.0 0.1208546254
H  H1037  1  0.57480000  0.03170000  0.12230000  1.0 0.1208546254
H  H1038  1  0.28170000  0.67520000  0.37230000  1.0 0.1208546254
H  H1039  1  0.71830000  0.82480000  0.37230000  1.0 0.1208546254
H  H1040  1  0.57480000  0.46830000  0.62230000  1.0 0.1208546254
H  H1041  1  0.28170000  0.82480000  0.87230000  1.0 0.1308294164
H  H1042  1  0.42520000  0.03170000  0.62230000  1.0 0.1208546254
H  H1043  1  0.21830000  0.17520000  0.37230000  1.0 0.1208546254
H  H1044  1  0.57480000  0.53170000  0.87770000  1.0 0.1308294164
H  H1045  1  0.92520000  0.46830000  0.37770000  1.0 0.1308294164
H  H1046  1  0.71830000  0.32480000  0.62770000  1.0 0.1208546254
H  H1047  1  0.28170000  0.17520000  0.62770000  1.0 0.1208546254
H  H1048  1  0.07480000  0.96830000  0.12230000  1.0 0.1308294164
H  H1049  1  0.28170000  0.32480000  0.87230000  1.0 0.1005048675
H  H1050  1  0.92520000  0.53170000  0.12230000  1.0 0.1308294164
H  H1051  1  0.21830000  0.17520000  0.87230000  1.0 0.0890307818
H  H1052  1  0.07480000  0.03170000  0.37770000  1.0 0.1308294164
H  H1053  1  0.42520000  0.96830000  0.87770000  1.0 0.1208546254
H  H1054  1  0.21830000  0.32480000  0.62770000  1.0 0.1110391165
H  H1055  1  0.53660000  0.51060000  0.44960000  1.0 0.1510954652
H  H1056  1  0.23940000  0.78660000  0.69960000  1.0 0.1510954652
H  H1057  1  0.46340000  0.98940000  0.44960000  1.0 0.1510954652
H  H1058  1  0.26060000  0.21340000  0.19960000  1.0 0.1510954652
H  H1059  1  0.53660000  0.48940000  0.05040000  1.0 0.1510954652
H  H1060  1  0.96340000  0.51060000  0.55040000  1.0 0.1510954652
H  H1061  1  0.76060000  0.28660000  0.80040000  1.0 0.1510954652
H  H1062  1  0.23940000  0.21340000  0.80040000  1.0 0.0710296364
H  H1063  1  0.03660000  0.01060000  0.94960000  1.0 0.1510954652
H  H1064  1  0.73940000  0.28660000  0.19960000  1.0 0.1384575202
H  H1065  1  0.96340000  0.48940000  0.94960000  1.0 0.1510954652
H  H1066  1  0.76060000  0.71340000  0.69960000  1.0 0.1384575202
H  H1067  1  0.03660000  0.98940000  0.55040000  1.0 0.1510954652
H  H1068  1  0.46340000  0.01060000  0.05040000  1.0 0.1510954652
H  H1069  1  0.26060000  0.78660000  0.30040000  1.0 0.1384575202
H  H1070  1  0.73940000  0.71340000  0.30040000  1.0 0.1384575202
H  H1071  1  0.46340000  0.48940000  0.55040000  1.0 0.1510954652
H  H1072  1  0.26060000  0.71340000  0.80040000  1.0 0.1510954652
H  H1073  1  0.53660000  0.01060000  0.55040000  1.0 0.1510954652
H  H1074  1  0.23940000  0.28660000  0.30040000  1.0 0.1510954652
H  H1075  1  0.46340000  0.51060000  0.94960000  1.0 0.1510954652
H  H1076  1  0.03660000  0.48940000  0.44960000  1.0 0.1510954652
H  H1077  1  0.73940000  0.21340000  0.69960000  1.0 0.1510954652
H  H1078  1  0.26060000  0.28660000  0.69960000  1.0 0.0890307818
H  H1079  1  0.96340000  0.98940000  0.05040000  1.0 0.1510954652
H  H1080  1  0.26060000  0.21340000  0.80040000  1.0 0.0710296364
H  H1081  1  0.03660000  0.51060000  0.05040000  1.0 0.1510954652
H  H1082  1  0.23940000  0.28660000  0.80040000  1.0 0.0592408112
H  H1083  1  0.96340000  0.01060000  0.44960000  1.0 0.1510954652
H  H1084  1  0.53660000  0.98940000  0.94960000  1.0 0.1510954652
H  H1085  1  0.23940000  0.21340000  0.69960000  1.0 0.0890307818
H  H1086  1  0.53440000  0.47020000  0.43980000  1.0 0.1384575202
H  H1087  1  0.27980000  0.78440000  0.68980000  1.0 0.1384575202
H  H1088  1  0.46560000  0.02980000  0.43980000  1.0 0.1308294164
H  H1089  1  0.22020000  0.21560000  0.18980000  1.0 0.1384575202
H  H1090  1  0.53440000  0.52980000  0.06020000  1.0 0.1384575202
H  H1091  1  0.96560000  0.47020000  0.56020000  1.0 0.1308294164
H  H1092  1  0.72020000  0.28440000  0.81020000  1.0 0.1384575202
H  H1093  1  0.27980000  0.21560000  0.81020000  1.0 0.0890307818
H  H1094  1  0.03440000  0.97020000  0.93980000  1.0 0.1308294164
H  H1095  1  0.77980000  0.28440000  0.18980000  1.0 0.1384575202
H  H1096  1  0.96560000  0.52980000  0.93980000  1.0 0.1308294164
H  H1097  1  0.72020000  0.71560000  0.68980000  1.0 0.1384575202
H  H1098  1  0.03440000  0.02980000  0.56020000  1.0 0.1384575202
H  H1099  1  0.46560000  0.97020000  0.06020000  1.0 0.1384575202
H  H1100  1  0.22020000  0.78440000  0.31020000  1.0 0.1384575202
H  H1101  1  0.77980000  0.71560000  0.31020000  1.0 0.1384575202
H  H1102  1  0.46560000  0.52980000  0.56020000  1.0 0.1308294164
H  H1103  1  0.22020000  0.71560000  0.81020000  1.0 0.1384575202
H  H1104  1  0.53440000  0.97020000  0.56020000  1.0 0.1308294164
H  H1105  1  0.27980000  0.28440000  0.31020000  1.0 0.1308294164
H  H1106  1  0.46560000  0.47020000  0.93980000  1.0 0.1384575202
H  H1107  1  0.03440000  0.52980000  0.43980000  1.0 0.1384575202
H  H1108  1  0.77980000  0.21560000  0.68980000  1.0 0.1384575202
H  H1109  1  0.22020000  0.28440000  0.68980000  1.0 0.1005048675
H  H1110  1  0.96560000  0.02980000  0.06020000  1.0 0.1384575202
H  H1111  1  0.22020000  0.21560000  0.81020000  1.0 0.1110391165
H  H1112  1  0.03440000  0.47020000  0.06020000  1.0 0.1384575202
H  H1113  1  0.27980000  0.28440000  0.81020000  1.0 0.0793711115
H  H1114  1  0.96560000  0.97020000  0.43980000  1.0 0.1384575202
H  H1115  1  0.53440000  0.02980000  0.93980000  1.0 0.1384575202
H  H1116  1  0.27980000  0.21560000  0.68980000  1.0 0.1005048675
H  H1117  1  0.50920000  0.48300000  0.46200000  1.0 0.1384575202
H  H1118  1  0.26700000  0.75920000  0.71200000  1.0 0.1384575202
H  H1119  1  0.49080000  0.01700000  0.46200000  1.0 0.1384575202
H  H1120  1  0.23300000  0.24080000  0.21200000  1.0 0.1384575202
H  H1121  1  0.50920000  0.51700000  0.03800000  1.0 0.1384575202
H  H1122  1  0.99080000  0.48300000  0.53800000  1.0 0.1384575202
H  H1123  1  0.73300000  0.25920000  0.78800000  1.0 0.1384575202
H  H1124  1  0.26700000  0.24080000  0.78800000  1.0 0.0499194568
H  H1125  1  0.00920000  0.98300000  0.96200000  1.0 0.1384575202
H  H1126  1  0.76700000  0.25920000  0.21200000  1.0 0.1384575202
H  H1127  1  0.99080000  0.51700000  0.96200000  1.0 0.1384575202
H  H1128  1  0.73300000  0.74080000  0.71200000  1.0 0.1384575202
H  H1129  1  0.00920000  0.01700000  0.53800000  1.0 0.1384575202
H  H1130  1  0.49080000  0.98300000  0.03800000  1.0 0.1384575202
H  H1131  1  0.23300000  0.75920000  0.28800000  1.0 0.1384575202
H  H1132  1  0.76700000  0.74080000  0.28800000  1.0 0.1384575202
H  H1133  1  0.49080000  0.51700000  0.53800000  1.0 0.1384575202
H  H1134  1  0.23300000  0.74080000  0.78800000  1.0 0.1384575202
H  H1135  1  0.50920000  0.98300000  0.53800000  1.0 0.1384575202
H  H1136  1  0.26700000  0.25920000  0.28800000  1.0 0.1384575202
H  H1137  1  0.49080000  0.48300000  0.96200000  1.0 0.1384575202
H  H1138  1  0.00920000  0.51700000  0.46200000  1.0 0.1384575202
H  H1139  1  0.76700000  0.24080000  0.71200000  1.0 0.1384575202
H  H1140  1  0.23300000  0.25920000  0.71200000  1.0 0.0793711115
H  H1141  1  0.99080000  0.01700000  0.03800000  1.0 0.1384575202
H  H1142  1  0.23300000  0.24080000  0.78800000  1.0 0.0420178119
H  H1143  1  0.00920000  0.48300000  0.03800000  1.0 0.1384575202
H  H1144  1  0.26700000  0.25920000  0.78800000  1.0 0.0710296364
H  H1145  1  0.99080000  0.98300000  0.46200000  1.0 0.1384575202
H  H1146  1  0.50920000  0.01700000  0.96200000  1.0 0.1384575202
H  H1147  1  0.26700000  0.24080000  0.71200000  1.0 0.0793711115
H  H1148  1  0.34060000  0.44820000  0.38920000  1.0 0.1208546254
H  H1149  1  0.30180000  0.59060000  0.63920000  1.0 0.1208546254
H  H1150  1  0.65940000  0.05180000  0.38920000  1.0 0.1208546254
H  H1151  1  0.19820000  0.40940000  0.13920000  1.0 0.1208546254
H  H1152  1  0.34060000  0.55180000  0.11080000  1.0 0.1208546254
H  H1153  1  0.15940000  0.44820000  0.61080000  1.0 0.1208546254
H  H1154  1  0.69820000  0.09060000  0.86080000  1.0 0.1208546254
H  H1155  1  0.30180000  0.40940000  0.86080000  1.0 0.1308294164
H  H1156  1  0.84060000  0.94820000  0.88920000  1.0 0.1208546254
H  H1157  1  0.80180000  0.09060000  0.13920000  1.0 0.1308294164
H  H1158  1  0.15940000  0.55180000  0.88920000  1.0 0.1510954652
H  H1159  1  0.69820000  0.90940000  0.63920000  1.0 0.1208546254
H  H1160  1  0.84060000  0.05180000  0.61080000  1.0 0.1308294164
H  H1161  1  0.65940000  0.94820000  0.11080000  1.0 0.1208546254
H  H1162  1  0.19820000  0.59060000  0.36080000  1.0 0.1308294164
H  H1163  1  0.80180000  0.90940000  0.36080000  1.0 0.1308294164
H  H1164  1  0.65940000  0.55180000  0.61080000  1.0 0.1208546254
H  H1165  1  0.19820000  0.90940000  0.86080000  1.0 0.1308294164
H  H1166  1  0.34060000  0.94820000  0.61080000  1.0 0.1308294164
H  H1167  1  0.30180000  0.09060000  0.36080000  1.0 0.1208546254
H  H1168  1  0.65940000  0.44820000  0.88920000  1.0 0.1308294164
H  H1169  1  0.84060000  0.55180000  0.38920000  1.0 0.1208546254
H  H1170  1  0.80180000  0.40940000  0.63920000  1.0 0.1208546254
H  H1171  1  0.19820000  0.09060000  0.63920000  1.0 0.0710296364
H  H1172  1  0.15940000  0.05180000  0.11080000  1.0 0.1308294164
H  H1173  1  0.19820000  0.40940000  0.86080000  1.0 0.0793711115
H  H1174  1  0.84060000  0.44820000  0.11080000  1.0 0.1208546254
H  H1175  1  0.30180000  0.09060000  0.86080000  1.0 0.0793711115
H  H1176  1  0.15940000  0.94820000  0.38920000  1.0 0.1208546254
H  H1177  1  0.34060000  0.05180000  0.88920000  1.0 0.1110391165
H  H1178  1  0.30180000  0.40940000  0.63920000  1.0 0.0793711115
H  H1179  1  0.42390000  0.48820000  0.34730000  1.0 0.1308294164
H  H1180  1  0.26180000  0.67390000  0.59730000  1.0 0.1308294164
H  H1181  1  0.57610000  0.01180000  0.34730000  1.0 0.1308294164
H  H1182  1  0.23820000  0.32610000  0.09730000  1.0 0.1308294164
H  H1183  1  0.42390000  0.51180000  0.15270000  1.0 0.1308294164
H  H1184  1  0.07610000  0.48820000  0.65270000  1.0 0.1308294164
H  H1185  1  0.73820000  0.17390000  0.90270000  1.0 0.1308294164
H  H1186  1  0.26180000  0.32610000  0.90270000  1.0 0.1110391165
H  H1187  1  0.92390000  0.98820000  0.84730000  1.0 0.1308294164
H  H1188  1  0.76180000  0.17390000  0.09730000  1.0 0.1308294164
H  H1189  1  0.07610000  0.51180000  0.84730000  1.0 0.1005048675
H  H1190  1  0.73820000  0.82610000  0.59730000  1.0 0.1308294164
H  H1191  1  0.92390000  0.01180000  0.65270000  1.0 0.1005048675
H  H1192  1  0.57610000  0.98820000  0.15270000  1.0 0.1308294164
H  H1193  1  0.23820000  0.67390000  0.40270000  1.0 0.1308294164
H  H1194  1  0.76180000  0.82610000  0.40270000  1.0 0.1308294164
H  H1195  1  0.57610000  0.51180000  0.65270000  1.0 0.1208546254
H  H1196  1  0.23820000  0.82610000  0.90270000  1.0 0.1308294164
H  H1197  1  0.42390000  0.98820000  0.65270000  1.0 0.1308294164
H  H1198  1  0.26180000  0.17390000  0.40270000  1.0 0.1308294164
H  H1199  1  0.57610000  0.48820000  0.84730000  1.0 0.1308294164
H  H1200  1  0.92390000  0.51180000  0.34730000  1.0 0.1308294164
H  H1201  1  0.76180000  0.32610000  0.59730000  1.0 0.1308294164
H  H1202  1  0.23820000  0.17390000  0.59730000  1.0 0.229076173
H  H1203  1  0.07610000  0.01180000  0.15270000  1.0 0.1308294164
H  H1204  1  0.23820000  0.32610000  0.90270000  1.0 0.1384575202
H  H1205  1  0.92390000  0.48820000  0.15270000  1.0 0.1308294164
H  H1206  1  0.26180000  0.17390000  0.90270000  1.0 0.1901884569
H  H1207  1  0.07610000  0.98820000  0.34730000  1.0 0.1308294164
H  H1208  1  0.42390000  0.01180000  0.84730000  1.0 0.1005048675
H  H1209  1  0.26180000  0.32610000  0.59730000  1.0 0.2185030944
H  H1210  1  0.27490000  0.44990000  0.33980000  1.0 0.1308294164
H  H1211  1  0.30010000  0.52490000  0.58980000  1.0 0.1208546254
H  H1212  1  0.72510000  0.05010000  0.33980000  1.0 0.1308294164
H  H1213  1  0.19990000  0.47510000  0.08980000  1.0 0.1308294164
H  H1214  1  0.27490000  0.55010000  0.16020000  1.0 0.1308294164
H  H1215  1  0.22510000  0.44990000  0.66020000  1.0 0.1308294164
H  H1216  1  0.69990000  0.02490000  0.91020000  1.0 0.1308294164
H  H1217  1  0.30010000  0.47510000  0.91020000  1.0 0.1308294164
H  H1218  1  0.77490000  0.94990000  0.83980000  1.0 0.1308294164
H  H1219  1  0.80010000  0.02490000  0.08980000  1.0 0.1308294164
H  H1220  1  0.22510000  0.55010000  0.83980000  1.0 0.1110391165
H  H1221  1  0.69990000  0.97510000  0.58980000  1.0 0.1308294164
H  H1222  1  0.77490000  0.05010000  0.66020000  1.0 0.1308294164
H  H1223  1  0.72510000  0.94990000  0.16020000  1.0 0.1308294164
H  H1224  1  0.19990000  0.52490000  0.41020000  1.0 0.1308294164
H  H1225  1  0.80010000  0.97510000  0.41020000  1.0 0.1308294164
H  H1226  1  0.72510000  0.55010000  0.66020000  1.0 0.1208546254
H  H1227  1  0.19990000  0.97510000  0.91020000  1.0 0.1308294164
H  H1228  1  0.27490000  0.94990000  0.66020000  1.0 0.1005048675
H  H1229  1  0.30010000  0.02490000  0.41020000  1.0 0.1308294164
H  H1230  1  0.72510000  0.44990000  0.83980000  1.0 0.1308294164
H  H1231  1  0.77490000  0.55010000  0.33980000  1.0 0.1208546254
H  H1232  1  0.80010000  0.47510000  0.58980000  1.0 0.1308294164
H  H1233  1  0.19990000  0.02490000  0.58980000  1.0 0.1208546254
H  H1234  1  0.22510000  0.05010000  0.16020000  1.0 0.1308294164
H  H1235  1  0.19990000  0.47510000  0.91020000  1.0 0.1110391165
H  H1236  1  0.77490000  0.44990000  0.16020000  1.0 0.1208546254
H  H1237  1  0.30010000  0.02490000  0.91020000  1.0 0.1110391165
H  H1238  1  0.22510000  0.94990000  0.33980000  1.0 0.1308294164
H  H1239  1  0.27490000  0.05010000  0.83980000  1.0 0.1308294164
H  H1240  1  0.30010000  0.47510000  0.58980000  1.0 0.1110391165
H  H1241  1  0.27420000  0.45800000  0.36880000  1.0 0.1384575202
H  H1242  1  0.29200000  0.52420000  0.61880000  1.0 0.1384575202
H  H1243  1  0.72580000  0.04200000  0.36880000  1.0 0.1384575202
H  H1244  1  0.20800000  0.47580000  0.11880000  1.0 0.1384575202
H  H1245  1  0.27420000  0.54200000  0.13120000  1.0 0.1384575202
H  H1246  1  0.22580000  0.45800000  0.63120000  1.0 0.1384575202
H  H1247  1  0.70800000  0.02420000  0.88120000  1.0 0.1384575202
H  H1248  1  0.29200000  0.47580000  0.88120000  1.0 0.1510954652
H  H1249  1  0.77420000  0.95800000  0.86880000  1.0 0.1384575202
H  H1250  1  0.79200000  0.02420000  0.11880000  1.0 0.1384575202
H  H1251  1  0.22580000  0.54200000  0.86880000  1.0 0.1384575202
H  H1252  1  0.70800000  0.97580000  0.61880000  1.0 0.1510954652
H  H1253  1  0.77420000  0.04200000  0.63120000  1.0 0.1384575202
H  H1254  1  0.72580000  0.95800000  0.13120000  1.0 0.1384575202
H  H1255  1  0.20800000  0.52420000  0.38120000  1.0 0.1510954652
H  H1256  1  0.79200000  0.97580000  0.38120000  1.0 0.1384575202
H  H1257  1  0.72580000  0.54200000  0.63120000  1.0 0.1384575202
H  H1258  1  0.20800000  0.97580000  0.88120000  1.0 0.1510954652
H  H1259  1  0.27420000  0.95800000  0.63120000  1.0 0.1384575202
H  H1260  1  0.29200000  0.02420000  0.38120000  1.0 0.1384575202
H  H1261  1  0.72580000  0.45800000  0.86880000  1.0 0.1384575202
H  H1262  1  0.77420000  0.54200000  0.36880000  1.0 0.1384575202
H  H1263  1  0.79200000  0.47580000  0.61880000  1.0 0.1384575202
H  H1264  1  0.20800000  0.02420000  0.61880000  1.0 0.1510954652
H  H1265  1  0.22580000  0.04200000  0.13120000  1.0 0.1384575202
H  H1266  1  0.20800000  0.47580000  0.88120000  1.0 0.1308294164
H  H1267  1  0.77420000  0.45800000  0.13120000  1.0 0.1384575202
H  H1268  1  0.29200000  0.02420000  0.88120000  1.0 0.0890307818
H  H1269  1  0.22580000  0.95800000  0.36880000  1.0 0.1384575202
H  H1270  1  0.27420000  0.04200000  0.86880000  1.0 0.1110391165
H  H1271  1  0.29200000  0.47580000  0.61880000  1.0 0.1308294164
H  H1272  1  0.28760000  0.41990000  0.35900000  1.0 0.1384575202
H  H1273  1  0.33010000  0.53760000  0.60900000  1.0 0.1208546254
H  H1274  1  0.71240000  0.08010000  0.35900000  1.0 0.1384575202
H  H1275  1  0.16990000  0.46240000  0.10900000  1.0 0.1308294164
H  H1276  1  0.28760000  0.58010000  0.14100000  1.0 0.1384575202
H  H1277  1  0.21240000  0.41990000  0.64100000  1.0 0.1208546254
H  H1278  1  0.66990000  0.03760000  0.89100000  1.0 0.1308294164
H  H1279  1  0.33010000  0.46240000  0.89100000  1.0 0.1384575202
H  H1280  1  0.78760000  0.91990000  0.85900000  1.0 0.1308294164
H  H1281  1  0.83010000  0.03760000  0.10900000  1.0 0.1308294164
H  H1282  1  0.21240000  0.58010000  0.85900000  1.0 0.1308294164
H  H1283  1  0.66990000  0.96240000  0.60900000  1.0 0.1384575202
H  H1284  1  0.78760000  0.08010000  0.64100000  1.0 0.1384575202
H  H1285  1  0.71240000  0.91990000  0.14100000  1.0 0.1384575202
H  H1286  1  0.16990000  0.53760000  0.39100000  1.0 0.1384575202
H  H1287  1  0.83010000  0.96240000  0.39100000  1.0 0.1308294164
H  H1288  1  0.71240000  0.58010000  0.64100000  1.0 0.1384575202
H  H1289  1  0.16990000  0.96240000  0.89100000  1.0 0.1384575202
H  H1290  1  0.28760000  0.91990000  0.64100000  1.0 0.1308294164
H  H1291  1  0.33010000  0.03760000  0.39100000  1.0 0.1384575202
H  H1292  1  0.71240000  0.41990000  0.85900000  1.0 0.1384575202
H  H1293  1  0.78760000  0.58010000  0.35900000  1.0 0.1384575202
H  H1294  1  0.83010000  0.46240000  0.60900000  1.0 0.1384575202
H  H1295  1  0.16990000  0.03760000  0.60900000  1.0 0.1308294164
H  H1296  1  0.21240000  0.08010000  0.14100000  1.0 0.1384575202
H  H1297  1  0.16990000  0.46240000  0.89100000  1.0 0.1308294164
H  H1298  1  0.78760000  0.41990000  0.14100000  1.0 0.1384575202
H  H1299  1  0.33010000  0.03760000  0.89100000  1.0 0.0793711115
H  H1300  1  0.21240000  0.91990000  0.35900000  1.0 0.1384575202
H  H1301  1  0.28760000  0.08010000  0.85900000  1.0 0.0890307818
H  H1302  1  0.33010000  0.46240000  0.60900000  1.0 0.0890307818
H  H1303  1  0.36410000  0.40840000  0.46380000  1.0 0.1308294164
H  H1304  1  0.34160000  0.61410000  0.71380000  1.0 0.1384575202
H  H1305  1  0.63590000  0.09160000  0.46380000  1.0 0.1308294164
H  H1306  1  0.15840000  0.38590000  0.21380000  1.0 0.1384575202
H  H1307  1  0.36410000  0.59160000  0.03620000  1.0 0.1308294164
H  H1308  1  0.13590000  0.40840000  0.53620000  1.0 0.1308294164
H  H1309  1  0.65840000  0.11410000  0.78620000  1.0 0.1308294164
H  H1310  1  0.34160000  0.38590000  0.78620000  1.0 0.0890307818
H  H1311  1  0.86410000  0.90840000  0.96380000  1.0 0.1308294164
H  H1312  1  0.84160000  0.11410000  0.21380000  1.0 0.1308294164
H  H1313  1  0.13590000  0.59160000  0.96380000  1.0 0.1308294164
H  H1314  1  0.65840000  0.88590000  0.71380000  1.0 0.1384575202
H  H1315  1  0.86410000  0.09160000  0.53620000  1.0 0.1308294164
H  H1316  1  0.63590000  0.90840000  0.03620000  1.0 0.1308294164
H  H1317  1  0.15840000  0.61410000  0.28620000  1.0 0.1384575202
H  H1318  1  0.84160000  0.88590000  0.28620000  1.0 0.1308294164
H  H1319  1  0.63590000  0.59160000  0.53620000  1.0 0.1308294164
H  H1320  1  0.15840000  0.88590000  0.78620000  1.0 0.1384575202
H  H1321  1  0.36410000  0.90840000  0.53620000  1.0 0.1308294164
H  H1322  1  0.34160000  0.11410000  0.28620000  1.0 0.1308294164
H  H1323  1  0.63590000  0.40840000  0.96380000  1.0 0.1308294164
H  H1324  1  0.86410000  0.59160000  0.46380000  1.0 0.1308294164
H  H1325  1  0.84160000  0.38590000  0.71380000  1.0 0.1384575202
H  H1326  1  0.15840000  0.11410000  0.71380000  1.0 0.1110391165
H  H1327  1  0.13590000  0.09160000  0.03620000  1.0 0.1308294164
H  H1328  1  0.15840000  0.38590000  0.78620000  1.0 0.1110391165
H  H1329  1  0.86410000  0.40840000  0.03620000  1.0 0.1308294164
H  H1330  1  0.34160000  0.11410000  0.78620000  1.0 0.1005048675
H  H1331  1  0.13590000  0.90840000  0.46380000  1.0 0.1308294164
H  H1332  1  0.36410000  0.09160000  0.96380000  1.0 0.1308294164
H  H1333  1  0.34160000  0.38590000  0.71380000  1.0 0.1110391165
H  H1334  1  0.37300000  0.34960000  0.44730000  1.0 0.1308294164
H  H1335  1  0.40040000  0.62300000  0.69730000  1.0 0.1308294164
H  H1336  1  0.62700000  0.15040000  0.44730000  1.0 0.1308294164
H  H1337  1  0.09960000  0.37700000  0.19730000  1.0 0.1208546254
H  H1338  1  0.37300000  0.65040000  0.05270000  1.0 0.1308294164
H  H1339  1  0.12700000  0.34960000  0.55270000  1.0 0.1208546254
H  H1340  1  0.59960000  0.12300000  0.80270000  1.0 0.1308294164
H  H1341  1  0.40040000  0.37700000  0.80270000  1.0 0.1308294164
H  H1342  1  0.87300000  0.84960000  0.94730000  1.0 0.1308294164
H  H1343  1  0.90040000  0.12300000  0.19730000  1.0 0.1208546254
H  H1344  1  0.12700000  0.65040000  0.94730000  1.0 0.1308294164
H  H1345  1  0.59960000  0.87700000  0.69730000  1.0 0.1308294164
H  H1346  1  0.87300000  0.15040000  0.55270000  1.0 0.1308294164
H  H1347  1  0.62700000  0.84960000  0.05270000  1.0 0.1308294164
H  H1348  1  0.09960000  0.62300000  0.30270000  1.0 0.1308294164
H  H1349  1  0.90040000  0.87700000  0.30270000  1.0 0.1110391165
H  H1350  1  0.62700000  0.65040000  0.55270000  1.0 0.1308294164
H  H1351  1  0.09960000  0.87700000  0.80270000  1.0 0.1308294164
H  H1352  1  0.37300000  0.84960000  0.55270000  1.0 0.1308294164
H  H1353  1  0.40040000  0.12300000  0.30270000  1.0 0.1308294164
H  H1354  1  0.62700000  0.34960000  0.94730000  1.0 0.1308294164
H  H1355  1  0.87300000  0.65040000  0.44730000  1.0 0.1308294164
H  H1356  1  0.90040000  0.37700000  0.69730000  1.0 0.1308294164
H  H1357  1  0.09960000  0.12300000  0.69730000  1.0 0.1208546254
H  H1358  1  0.12700000  0.15040000  0.05270000  1.0 0.1308294164
H  H1359  1  0.09960000  0.37700000  0.80270000  1.0 0.1208546254
H  H1360  1  0.87300000  0.34960000  0.05270000  1.0 0.1308294164
H  H1361  1  0.40040000  0.12300000  0.80270000  1.0 0.1110391165
H  H1362  1  0.12700000  0.84960000  0.44730000  1.0 0.1308294164
H  H1363  1  0.37300000  0.15040000  0.94730000  1.0 0.1208546254
H  H1364  1  0.40040000  0.37700000  0.69730000  1.0 0.1208546254
H  H1365  1  0.40120000  0.34290000  0.40840000  1.0 0.1384575202
H  H1366  1  0.40710000  0.65120000  0.65840000  1.0 0.1384575202
H  H1367  1  0.59880000  0.15710000  0.40840000  1.0 0.1384575202
H  H1368  1  0.09290000  0.34880000  0.15840000  1.0 0.1384575202
H  H1369  1  0.40120000  0.65710000  0.09160000  1.0 0.1384575202
H  H1370  1  0.09880000  0.34290000  0.59160000  1.0 0.1308294164
H  H1371  1  0.59290000  0.15120000  0.84160000  1.0 0.1384575202
H  H1372  1  0.40710000  0.34880000  0.84160000  1.0 0.1384575202
H  H1373  1  0.90120000  0.84290000  0.90840000  1.0 0.1384575202
H  H1374  1  0.90710000  0.15120000  0.15840000  1.0 0.1384575202
H  H1375  1  0.09880000  0.65710000  0.90840000  1.0 0.1384575202
H  H1376  1  0.59290000  0.84880000  0.65840000  1.0 0.1384575202
H  H1377  1  0.90120000  0.15710000  0.59160000  1.0 0.1384575202
H  H1378  1  0.59880000  0.84290000  0.09160000  1.0 0.1384575202
H  H1379  1  0.09290000  0.65120000  0.34160000  1.0 0.1384575202
H  H1380  1  0.90710000  0.84880000  0.34160000  1.0 0.1384575202
H  H1381  1  0.59880000  0.65710000  0.59160000  1.0 0.1384575202
H  H1382  1  0.09290000  0.84880000  0.84160000  1.0 0.1384575202
H  H1383  1  0.40120000  0.84290000  0.59160000  1.0 0.1384575202
H  H1384  1  0.40710000  0.15120000  0.34160000  1.0 0.1384575202
H  H1385  1  0.59880000  0.34290000  0.90840000  1.0 0.1384575202
H  H1386  1  0.90120000  0.65710000  0.40840000  1.0 0.1384575202
H  H1387  1  0.90710000  0.34880000  0.65840000  1.0 0.1308294164
H  H1388  1  0.09290000  0.15120000  0.65840000  1.0 0.2394748895
H  H1389  1  0.09880000  0.15710000  0.09160000  1.0 0.1384575202
H  H1390  1  0.09290000  0.34880000  0.84160000  1.0 0.2486579834
H  H1391  1  0.90120000  0.34290000  0.09160000  1.0 0.1384575202
H  H1392  1  0.40710000  0.15120000  0.84160000  1.0 0.2394748895
H  H1393  1  0.09880000  0.84290000  0.40840000  1.0 0.1384575202
H  H1394  1  0.40120000  0.15710000  0.90840000  1.0 0.1308294164
H  H1395  1  0.40710000  0.34880000  0.65840000  1.0 0.2394748895
H  H1396  1  0.18380000  0.19910000  0.87230000  1.0 0.1384575202
H  H1397  1  0.94910000  0.43380000  0.87770000  1.0 0.1110391165
H  H1398  1  0.44910000  0.43380000  0.62230000  1.0 0.1110391165
H  H1399  1  0.31620000  0.30090000  0.62770000  1.0 0.1005048675
H  H1400  1  0.31620000  0.19910000  0.87230000  1.0 0.1005048675
H  H1401  1  0.18380000  0.30090000  0.87230000  1.0 0.1005048675
H  H1402  1  0.18380000  0.19910000  0.62770000  1.0 0.1005048675
H  H1403  1  0.18040000  0.19020000  0.90140000  1.0 0.229076173
H  H1404  1  0.94020000  0.43040000  0.84860000  1.0 0.0890307818
H  H1405  1  0.44020000  0.43040000  0.65140000  1.0 0.1005048675
H  H1406  1  0.31960000  0.30980000  0.59860000  1.0 0.1005048675
H  H1407  1  0.31960000  0.19020000  0.90140000  1.0 0.0793711115
H  H1408  1  0.18040000  0.30980000  0.90140000  1.0 0.1576197571
H  H1409  1  0.18040000  0.19020000  0.59860000  1.0 0.0890307818
H  H1410  1  0.17090000  0.12790000  0.89400000  1.0 0.1208546254
H  H1411  1  0.87790000  0.42090000  0.85600000  1.0 0.1208546254
H  H1412  1  0.37790000  0.42090000  0.64400000  1.0 0.1005048675
H  H1413  1  0.32910000  0.37210000  0.60600000  1.0 0.0793711115
H  H1414  1  0.32910000  0.12790000  0.89400000  1.0 0.0710296364
H  H1415  1  0.17090000  0.37210000  0.89400000  1.0 0.0793711115
H  H1416  1  0.17090000  0.12790000  0.60600000  1.0 0.0710296364
H  H1417  1  0.15690000  0.14150000  0.86740000  1.0 0.1308294164
H  H1418  1  0.89150000  0.40690000  0.88260000  1.0 0.1384575202
H  H1419  1  0.39150000  0.40690000  0.61740000  1.0 0.1208546254
H  H1420  1  0.34310000  0.35850000  0.63260000  1.0 0.0890307818
H  H1421  1  0.34310000  0.14150000  0.86740000  1.0 0.0890307818
H  H1422  1  0.15690000  0.35850000  0.86740000  1.0 0.1005048675
H  H1423  1  0.15690000  0.14150000  0.63260000  1.0 0.0890307818
H  H1424  1  0.20470000  0.12130000  0.84900000  1.0 0.1110391165
H  H1425  1  0.87130000  0.45470000  0.90100000  1.0 0.1110391165
H  H1426  1  0.37130000  0.45470000  0.59900000  1.0 0.1110391165
H  H1427  1  0.29530000  0.37870000  0.65100000  1.0 0.0793711115
H  H1428  1  0.29530000  0.12130000  0.84900000  1.0 0.0793711115
H  H1429  1  0.20470000  0.37870000  0.84900000  1.0 0.0890307818
H  H1430  1  0.20470000  0.12130000  0.65100000  1.0 0.0890307818
H  H1431  1  0.21420000  0.10110000  0.87440000  1.0 0.1110391165
H  H1432  1  0.85110000  0.46420000  0.87560000  1.0 0.1110391165
H  H1433  1  0.35110000  0.46420000  0.62440000  1.0 0.1005048675
H  H1434  1  0.28580000  0.39890000  0.62560000  1.0 0.0793711115
H  H1435  1  0.28580000  0.10110000  0.87440000  1.0 0.0499194568
H  H1436  1  0.21420000  0.39890000  0.87440000  1.0 0.0890307818
H  H1437  1  0.21420000  0.10110000  0.62560000  1.0 0.0793711115
H  H1438  1  0.26090000  0.13560000  0.87780000  1.0 0.0710296364
H  H1439  1  0.88560000  0.51090000  0.87220000  1.0 0.1005048675
H  H1440  1  0.38560000  0.51090000  0.62780000  1.0 0.1005048675
H  H1441  1  0.23910000  0.36440000  0.62220000  1.0 0.1110391165
H  H1442  1  0.23910000  0.13560000  0.87780000  1.0 0.0793711115
H  H1443  1  0.26090000  0.36440000  0.87780000  1.0 0.1005048675
H  H1444  1  0.26090000  0.13560000  0.62220000  1.0 0.1110391165
H  H1445  1  0.24830000  0.15920000  0.85440000  1.0 0.0793711115
H  H1446  1  0.90920000  0.49830000  0.89560000  1.0 0.1005048675
H  H1447  1  0.40920000  0.49830000  0.60440000  1.0 0.1005048675
H  H1448  1  0.25170000  0.34080000  0.64560000  1.0 0.0890307818
H  H1449  1  0.25170000  0.15920000  0.85440000  1.0 0.0793711115
H  H1450  1  0.24830000  0.34080000  0.85440000  1.0 0.0793711115
H  H1451  1  0.24830000  0.15920000  0.64560000  1.0 0.0793711115
C  C1  1  0.45960000  0.67380000  0.46170000  1.0 0.5809171861
C  C2  1  0.07620000  0.70960000  0.71170000  1.0 0.5809171861
C  C3  1  0.54040000  0.82620000  0.46170000  1.0 0.5809171861
C  C4  1  0.42380000  0.29040000  0.21170000  1.0 0.5809171861
C  C5  1  0.45960000  0.32620000  0.03830000  1.0 0.5809171861
C  C6  1  0.04040000  0.67380000  0.53830000  1.0 0.5809171861
C  C7  1  0.92380000  0.20960000  0.78830000  1.0 0.5879718483
C  C8  1  0.07620000  0.29040000  0.78830000  1.0 0.1697321975
C  C9  1  0.95960000  0.17380000  0.96170000  1.0 0.5809171861
C  C10  1  0.57620000  0.20960000  0.21170000  1.0 0.5809171861
C  C11  1  0.04040000  0.32620000  0.96170000  1.0 0.5879718483
C  C12  1  0.92380000  0.79040000  0.71170000  1.0 0.5809171861
C  C13  1  0.95960000  0.82620000  0.53830000  1.0 0.5809171861
C  C14  1  0.54040000  0.17380000  0.03830000  1.0 0.5809171861
C  C15  1  0.42380000  0.70960000  0.28830000  1.0 0.5809171861
C  C16  1  0.57620000  0.79040000  0.28830000  1.0 0.5809171861
C  C17  1  0.54040000  0.32620000  0.53830000  1.0 0.5809171861
C  C18  1  0.42380000  0.79040000  0.78830000  1.0 0.5809171861
C  C19  1  0.45960000  0.17380000  0.53830000  1.0 0.5879718483
C  C20  1  0.07620000  0.20960000  0.28830000  1.0 0.5809171861
C  C21  1  0.54040000  0.67380000  0.96170000  1.0 0.5809171861
C  C22  1  0.95960000  0.32620000  0.46170000  1.0 0.5809171861
C  C23  1  0.57620000  0.29040000  0.71170000  1.0 0.5879718483
C  C24  1  0.42380000  0.20960000  0.71170000  1.0 0.5103070382
C  C25  1  0.04040000  0.82620000  0.03830000  1.0 0.5809171861
C  C26  1  0.42380000  0.29040000  0.78830000  1.0 0.5103070382
C  C27  1  0.95960000  0.67380000  0.03830000  1.0 0.5809171861
C  C28  1  0.07620000  0.20960000  0.78830000  1.0 0.2115324739
C  C29  1  0.04040000  0.17380000  0.46170000  1.0 0.5809171861
C  C30  1  0.45960000  0.82620000  0.96170000  1.0 0.5809171861
C  C31  1  0.07620000  0.29040000  0.71170000  1.0 0.2809492452
C  C32  1  0.45070000  0.64620000  0.48186000  1.0 -0.1192279522
C  C33  1  0.10380000  0.70070000  0.73186000  1.0 -0.1192279522
C  C34  1  0.54930000  0.85380000  0.48186000  1.0 -0.1192279522
C  C35  1  0.39620000  0.29930000  0.23186000  1.0 -0.1101811951
C  C36  1  0.45070000  0.35380000  0.01814000  1.0 -0.1192279522
C  C37  1  0.04930000  0.64620000  0.51814000  1.0 -0.1101811951
C  C38  1  0.89620000  0.20070000  0.76814000  1.0 -0.1192279522
C  C39  1  0.10380000  0.29930000  0.76814000  1.0 0.0198361888
C  C40  1  0.95070000  0.14620000  0.98186000  1.0 -0.1192279522
C  C41  1  0.60380000  0.20070000  0.23186000  1.0 -0.1101811951
C  C42  1  0.04930000  0.35380000  0.98186000  1.0 -0.1192279522
C  C43  1  0.89620000  0.79930000  0.73186000  1.0 -0.1101811951
C  C44  1  0.95070000  0.85380000  0.51814000  1.0 -0.1101811951
C  C45  1  0.54930000  0.14620000  0.01814000  1.0 -0.1192279522
C  C46  1  0.39620000  0.70070000  0.26814000  1.0 -0.1101811951
C  C47  1  0.60380000  0.79930000  0.26814000  1.0 -0.1101811951
C  C48  1  0.54930000  0.35380000  0.51814000  1.0 -0.1299770603
C  C49  1  0.39620000  0.79930000  0.76814000  1.0 -0.1101811951
C  C50  1  0.45070000  0.14620000  0.51814000  1.0 -0.1101811951
C  C51  1  0.10380000  0.20070000  0.26814000  1.0 -0.1101811951
C  C52  1  0.54930000  0.64620000  0.98186000  1.0 -0.1101811951
C  C53  1  0.95070000  0.35380000  0.48186000  1.0 -0.1101811951
C  C54  1  0.60380000  0.29930000  0.73186000  1.0 -0.1299770603
C  C55  1  0.39620000  0.20070000  0.73186000  1.0 -0.1992477047
C  C56  1  0.04930000  0.85380000  0.01814000  1.0 -0.1101811951
C  C57  1  0.39620000  0.29930000  0.76814000  1.0 -0.1902425891
C  C58  1  0.95070000  0.64620000  0.01814000  1.0 -0.1101811951
C  C59  1  0.10380000  0.20070000  0.76814000  1.0 -0.16000267
C  C60  1  0.04930000  0.14620000  0.48186000  1.0 -0.1192279522
C  C61  1  0.45070000  0.85380000  0.98186000  1.0 -0.1101811951
C  C62  1  0.10380000  0.29930000  0.73186000  1.0 -0.0093931289
C  C63  1  0.44940000  0.60650000  0.47663000  1.0 0.3500042937
C  C64  1  0.14350000  0.69940000  0.72663000  1.0 0.3500042937
C  C65  1  0.55060000  0.89350000  0.47663000  1.0 0.3500042937
C  C66  1  0.35650000  0.30060000  0.22663000  1.0 0.3500042937
C  C67  1  0.44940000  0.39350000  0.02337000  1.0 0.3500042937
C  C68  1  0.05060000  0.60650000  0.52337000  1.0 0.3500042937
C  C69  1  0.85650000  0.19940000  0.77337000  1.0 0.3392998376
C  C70  1  0.14350000  0.30060000  0.77337000  1.0 0.1005048675
C  C71  1  0.94940000  0.10650000  0.97663000  1.0 0.3500042937
C  C72  1  0.64350000  0.19940000  0.22663000  1.0 0.3207569662
C  C73  1  0.05060000  0.39350000  0.97663000  1.0 0.3500042937
C  C74  1  0.85650000  0.80060000  0.72663000  1.0 0.3207569662
C  C75  1  0.94940000  0.89350000  0.52337000  1.0 0.3500042937
C  C76  1  0.55060000  0.10650000  0.02337000  1.0 0.3500042937
C  C77  1  0.35650000  0.69940000  0.27337000  1.0 0.3207569662
C  C78  1  0.64350000  0.80060000  0.27337000  1.0 0.3207569662
C  C79  1  0.55060000  0.39350000  0.52337000  1.0 0.3500042937
C  C80  1  0.35650000  0.80060000  0.77337000  1.0 0.3500042937
C  C81  1  0.44940000  0.10650000  0.52337000  1.0 0.3500042937
C  C82  1  0.14350000  0.19940000  0.27337000  1.0 0.3392998376
C  C83  1  0.55060000  0.60650000  0.97663000  1.0 0.3392998376
C  C84  1  0.94940000  0.39350000  0.47663000  1.0 0.3392998376
C  C85  1  0.64350000  0.30060000  0.72663000  1.0 0.3500042937
C  C86  1  0.35650000  0.19940000  0.72663000  1.0 0.1510954652
C  C87  1  0.05060000  0.89350000  0.02337000  1.0 0.3392998376
C  C88  1  0.35650000  0.30060000  0.77337000  1.0 0.1208546254
C  C89  1  0.94940000  0.60650000  0.02337000  1.0 0.3392998376
C  C90  1  0.14350000  0.19940000  0.77337000  1.0 0.1697321975
C  C91  1  0.05060000  0.10650000  0.47663000  1.0 0.3500042937
C  C92  1  0.44940000  0.89350000  0.97663000  1.0 0.3500042937
C  C93  1  0.14350000  0.30060000  0.72663000  1.0 0.0592408112
C  C94  1  0.44090000  0.58090000  0.49723000  1.0 0.0793711115
C  C95  1  0.16910000  0.69090000  0.74723000  1.0 0.0793711115
C  C96  1  0.55910000  0.91910000  0.49723000  1.0 0.0793711115
C  C97  1  0.33090000  0.30910000  0.24723000  1.0 0.0793711115
C  C98  1  0.44090000  0.41910000  0.00277000  1.0 0.0793711115
C  C99  1  0.05910000  0.58090000  0.50277000  1.0 0.0793711115
C  C100  1  0.83090000  0.19090000  0.75277000  1.0 0.0793711115
C  C101  1  0.16910000  0.30910000  0.75277000  1.0 0.0290024236
C  C102  1  0.94090000  0.08090000  0.99723000  1.0 0.0793711115
C  C103  1  0.66910000  0.19090000  0.24723000  1.0 0.0793711115
C  C104  1  0.05910000  0.41910000  0.99723000  1.0 0.0793711115
C  C105  1  0.83090000  0.80910000  0.74723000  1.0 0.0793711115
C  C106  1  0.94090000  0.91910000  0.50277000  1.0 0.0793711115
C  C107  1  0.55910000  0.08090000  0.00277000  1.0 0.0793711115
C  C108  1  0.33090000  0.69090000  0.25277000  1.0 0.0793711115
C  C109  1  0.66910000  0.80910000  0.25277000  1.0 0.0793711115
C  C110  1  0.55910000  0.41910000  0.50277000  1.0 0.0793711115
C  C111  1  0.33090000  0.80910000  0.75277000  1.0 0.0793711115
C  C112  1  0.44090000  0.08090000  0.50277000  1.0 0.0793711115
C  C113  1  0.16910000  0.19090000  0.25277000  1.0 0.0793711115
C  C114  1  0.55910000  0.58090000  0.99723000  1.0 0.0793711115
C  C115  1  0.94090000  0.41910000  0.49723000  1.0 0.0793711115
C  C116  1  0.66910000  0.30910000  0.74723000  1.0 0.0793711115
C  C117  1  0.33090000  0.19090000  0.74723000  1.0 -0.0093931289
C  C118  1  0.05910000  0.91910000  0.00277000  1.0 0.0793711115
C  C119  1  0.33090000  0.30910000  0.75277000  1.0 -0.0020969194
C  C120  1  0.94090000  0.58090000  0.00277000  1.0 0.0793711115
C  C121  1  0.16910000  0.19090000  0.75277000  1.0 0.0085699419
C  C122  1  0.05910000  0.08090000  0.49723000  1.0 0.0793711115
C  C123  1  0.44090000  0.91910000  0.99723000  1.0 0.0793711115
C  C124  1  0.16910000  0.30910000  0.74723000  1.0 0.002215872
C  C125  1  0.43490000  0.59410000  0.52067000  1.0 -0.1801726518
C  C126  1  0.15590000  0.68490000  0.77067000  1.0 -0.1801726518
C  C127  1  0.56510000  0.90590000  0.52067000  1.0 -0.1801726518
C  C128  1  0.34410000  0.31510000  0.27067000  1.0 -0.1801726518
C  C129  1  0.43490000  0.40590000  0.97933000  1.0 -0.1801726518
C  C130  1  0.06510000  0.59410000  0.47933000  1.0 -0.1801726518
C  C131  1  0.84410000  0.18490000  0.72933000  1.0 -0.1902425891
C  C132  1  0.15590000  0.31510000  0.72933000  1.0 0.002215872
C  C133  1  0.93490000  0.09410000  0.02067000  1.0 -0.1801726518
C  C134  1  0.65590000  0.18490000  0.27067000  1.0 -0.1708846832
C  C135  1  0.06510000  0.40590000  0.02067000  1.0 -0.1902425891
C  C136  1  0.84410000  0.81510000  0.77067000  1.0 -0.1708846832
C  C137  1  0.93490000  0.90590000  0.47933000  1.0 -0.1801726518
C  C138  1  0.56510000  0.09410000  0.97933000  1.0 -0.1801726518
C  C139  1  0.34410000  0.68490000  0.22933000  1.0 -0.1708846832
C  C140  1  0.65590000  0.81510000  0.22933000  1.0 -0.1708846832
C  C141  1  0.56510000  0.40590000  0.47933000  1.0 -0.1902425891
C  C142  1  0.34410000  0.81510000  0.72933000  1.0 -0.1801726518
C  C143  1  0.43490000  0.09410000  0.47933000  1.0 -0.1801726518
C  C144  1  0.15590000  0.18490000  0.22933000  1.0 -0.1801726518
C  C145  1  0.56510000  0.59410000  0.02067000  1.0 -0.1801726518
C  C146  1  0.93490000  0.40590000  0.52067000  1.0 -0.1902425891
C  C147  1  0.65590000  0.31510000  0.77067000  1.0 -0.1992477047
C  C148  1  0.34410000  0.18490000  0.77067000  1.0 0.0290024236
C  C149  1  0.06510000  0.90590000  0.97933000  1.0 -0.1902425891
C  C150  1  0.34410000  0.31510000  0.72933000  1.0 0.0420178119
C  C151  1  0.93490000  0.59410000  0.97933000  1.0 -0.1902425891
C  C152  1  0.15590000  0.18490000  0.72933000  1.0 0.0198361888
C  C153  1  0.06510000  0.09410000  0.52067000  1.0 -0.1801726518
C  C154  1  0.43490000  0.90590000  0.02067000  1.0 -0.1801726518
C  C155  1  0.15590000  0.31510000  0.77067000  1.0 0.0290024236
C  C156  1  0.43550000  0.63340000  0.52620000  1.0 0.0499194568
C  C157  1  0.11660000  0.68550000  0.77620000  1.0 0.0499194568
C  C158  1  0.56450000  0.86660000  0.52620000  1.0 0.0420178119
C  C159  1  0.38340000  0.31450000  0.27620000  1.0 0.0420178119
C  C160  1  0.43550000  0.36660000  0.97380000  1.0 0.0499194568
C  C161  1  0.06450000  0.63340000  0.47380000  1.0 0.0420178119
C  C162  1  0.88340000  0.18550000  0.72380000  1.0 0.0499194568
C  C163  1  0.11660000  0.31450000  0.72380000  1.0 0.0085699419
C  C164  1  0.93550000  0.13340000  0.02620000  1.0 0.0420178119
C  C165  1  0.61660000  0.18550000  0.27620000  1.0 0.0420178119
C  C166  1  0.06450000  0.36660000  0.02620000  1.0 0.0499194568
C  C167  1  0.88340000  0.81450000  0.77620000  1.0 0.0420178119
C  C168  1  0.93550000  0.86660000  0.47380000  1.0 0.0420178119
C  C169  1  0.56450000  0.13340000  0.97380000  1.0 0.0420178119
C  C170  1  0.38340000  0.68550000  0.22380000  1.0 0.0420178119
C  C171  1  0.61660000  0.81450000  0.22380000  1.0 0.0420178119
C  C172  1  0.56450000  0.36660000  0.47380000  1.0 0.0420178119
C  C173  1  0.38340000  0.81450000  0.72380000  1.0 0.0499194568
C  C174  1  0.43550000  0.13340000  0.47380000  1.0 0.0420178119
C  C175  1  0.11660000  0.18550000  0.22380000  1.0 0.0420178119
C  C176  1  0.56450000  0.63340000  0.02620000  1.0 0.0499194568
C  C177  1  0.93550000  0.36660000  0.52620000  1.0 0.0499194568
C  C178  1  0.61660000  0.31450000  0.77620000  1.0 0.0420178119
C  C179  1  0.38340000  0.18550000  0.77620000  1.0 0.0793711115
C  C180  1  0.06450000  0.86660000  0.97380000  1.0 0.0499194568
C  C181  1  0.38340000  0.31450000  0.72380000  1.0 0.0793711115
C  C182  1  0.93550000  0.63340000  0.97380000  1.0 0.0499194568
C  C183  1  0.11660000  0.18550000  0.72380000  1.0 0.002215872
C  C184  1  0.06450000  0.13340000  0.52620000  1.0 0.0420178119
C  C185  1  0.43550000  0.86660000  0.02620000  1.0 0.0499194568
C  C186  1  0.11660000  0.31450000  0.77620000  1.0 0.002215872
C  C187  1  0.44140000  0.65730000  0.50563000  1.0 -0.1299770603
C  C188  1  0.09270000  0.69140000  0.75563000  1.0 -0.1299770603
C  C189  1  0.55860000  0.84270000  0.50563000  1.0 -0.1299770603
C  C190  1  0.40730000  0.30860000  0.25563000  1.0 -0.1299770603
C  C191  1  0.44140000  0.34270000  0.99437000  1.0 -0.1299770603
C  C192  1  0.05860000  0.65730000  0.49437000  1.0 -0.1299770603
C  C193  1  0.90730000  0.19140000  0.74437000  1.0 -0.1101811951
C  C194  1  0.09270000  0.30860000  0.74437000  1.0 -0.0699674866
C  C195  1  0.94140000  0.15730000  0.00563000  1.0 -0.1299770603
C  C196  1  0.59270000  0.19140000  0.25563000  1.0 -0.1192279522
C  C197  1  0.05860000  0.34270000  0.00563000  1.0 -0.1299770603
C  C198  1  0.90730000  0.80860000  0.75563000  1.0 -0.1192279522
C  C199  1  0.94140000  0.84270000  0.49437000  1.0 -0.1299770603
C  C200  1  0.55860000  0.15730000  0.99437000  1.0 -0.1299770603
C  C201  1  0.40730000  0.69140000  0.24437000  1.0 -0.1192279522
C  C202  1  0.59270000  0.80860000  0.24437000  1.0 -0.1192279522
C  C203  1  0.55860000  0.34270000  0.49437000  1.0 -0.1299770603
C  C204  1  0.40730000  0.80860000  0.74437000  1.0 -0.1299770603
C  C205  1  0.44140000  0.15730000  0.49437000  1.0 -0.1299770603
C  C206  1  0.09270000  0.19140000  0.24437000  1.0 -0.1299770603
C  C207  1  0.55860000  0.65730000  0.00563000  1.0 -0.1299770603
C  C208  1  0.94140000  0.34270000  0.50563000  1.0 -0.1299770603
C  C209  1  0.59270000  0.30860000  0.75563000  1.0 -0.1192279522
C  C210  1  0.40730000  0.19140000  0.75563000  1.0 -0.2208739476
C  C211  1  0.05860000  0.84270000  0.99437000  1.0 -0.1299770603
C  C212  1  0.40730000  0.30860000  0.74437000  1.0 -0.1902425891
C  C213  1  0.94140000  0.65730000  0.99437000  1.0 -0.1299770603
C  C214  1  0.09270000  0.19140000  0.74437000  1.0 -0.2715497983
C  C215  1  0.05860000  0.15730000  0.50563000  1.0 -0.1299770603
C  C216  1  0.44140000  0.84270000  0.00563000  1.0 -0.1299770603
C  C217  1  0.09270000  0.30860000  0.75563000  1.0 -0.0888406341
C  C218  1  0.43780000  0.54120000  0.49100000  1.0 -0.4202381655
C  C219  1  0.20880000  0.68780000  0.74100000  1.0 -0.4202381655
C  C220  1  0.56220000  0.95880000  0.49100000  1.0 -0.4202381655
C  C221  1  0.29120000  0.31220000  0.24100000  1.0 -0.4202381655
C  C222  1  0.43780000  0.45880000  0.00900000  1.0 -0.4202381655
C  C223  1  0.06220000  0.54120000  0.50900000  1.0 -0.4294079164
C  C224  1  0.79120000  0.18780000  0.75900000  1.0 -0.4294079164
C  C225  1  0.20880000  0.31220000  0.75900000  1.0 -0.1005984017
C  C226  1  0.93780000  0.04120000  0.99100000  1.0 -0.4202381655
C  C227  1  0.70880000  0.18780000  0.24100000  1.0 -0.4117549535
C  C228  1  0.06220000  0.45880000  0.99100000  1.0 -0.4294079164
C  C229  1  0.79120000  0.81220000  0.74100000  1.0 -0.4117549535
C  C230  1  0.93780000  0.95880000  0.50900000  1.0 -0.4294079164
C  C231  1  0.56220000  0.04120000  0.00900000  1.0 -0.4202381655
C  C232  1  0.29120000  0.68780000  0.25900000  1.0 -0.4117549535
C  C233  1  0.70880000  0.81220000  0.25900000  1.0 -0.4117549535
C  C234  1  0.56220000  0.45880000  0.50900000  1.0 -0.4294079164
C  C235  1  0.29120000  0.81220000  0.75900000  1.0 -0.4202381655
C  C236  1  0.43780000  0.04120000  0.50900000  1.0 -0.4202381655
C  C237  1  0.20880000  0.18780000  0.25900000  1.0 -0.4202381655
C  C238  1  0.56220000  0.54120000  0.99100000  1.0 -0.4202381655
C  C239  1  0.93780000  0.45880000  0.49100000  1.0 -0.4294079164
C  C240  1  0.70880000  0.31220000  0.74100000  1.0 -0.4202381655
C  C241  1  0.29120000  0.18780000  0.74100000  1.0 -0.1902425891
C  C242  1  0.06220000  0.95880000  0.00900000  1.0 -0.4202381655
C  C243  1  0.29120000  0.31220000  0.75900000  1.0 -0.1992477047
C  C244  1  0.93780000  0.54120000  0.00900000  1.0 -0.4202381655
C  C245  1  0.20880000  0.18780000  0.75900000  1.0 -0.1005984017
C  C246  1  0.06220000  0.04120000  0.49100000  1.0 -0.4202381655
C  C247  1  0.43780000  0.95880000  0.99100000  1.0 -0.4202381655
C  C248  1  0.20880000  0.31220000  0.74100000  1.0 -0.1401683215
C  C249  1  0.43020000  0.64590000  0.55027000  1.0 0.002215872
C  C250  1  0.10410000  0.68020000  0.80027000  1.0 0.0085699419
C  C251  1  0.56980000  0.85410000  0.55027000  1.0 0.002215872
C  C252  1  0.39590000  0.31980000  0.30027000  1.0 0.002215872
C  C253  1  0.43020000  0.35410000  0.94973000  1.0 -0.0020969194
C  C254  1  0.06980000  0.64590000  0.44973000  1.0 0.002215872
C  C255  1  0.89590000  0.18020000  0.69973000  1.0 0.0085699419
C  C256  1  0.10410000  0.31980000  0.69973000  1.0 -0.0594661196
C  C257  1  0.93020000  0.14590000  0.05027000  1.0 0.002215872
C  C258  1  0.60410000  0.18020000  0.30027000  1.0 0.0085699419
C  C259  1  0.06980000  0.35410000  0.05027000  1.0 -0.0020969194
C  C260  1  0.89590000  0.81980000  0.80027000  1.0 0.0085699419
C  C261  1  0.93020000  0.85410000  0.44973000  1.0 0.002215872
C  C262  1  0.56980000  0.14590000  0.94973000  1.0 -0.0020969194
C  C263  1  0.39590000  0.68020000  0.19973000  1.0 0.0085699419
C  C264  1  0.60410000  0.81980000  0.19973000  1.0 0.0085699419
C  C265  1  0.56980000  0.35410000  0.44973000  1.0 0.002215872
C  C266  1  0.39590000  0.81980000  0.69973000  1.0 -0.0020969194
C  C267  1  0.43020000  0.14590000  0.44973000  1.0 -0.0020969194
C  C268  1  0.10410000  0.18020000  0.19973000  1.0 -0.0020969194
C  C269  1  0.56980000  0.64590000  0.05027000  1.0 0.002215872
C  C270  1  0.93020000  0.35410000  0.55027000  1.0 -0.0020969194
C  C271  1  0.60410000  0.31980000  0.80027000  1.0 -0.0020969194
C  C272  1  0.39590000  0.18020000  0.80027000  1.0 -0.0699674866
C  C273  1  0.06980000  0.85410000  0.94973000  1.0 -0.0020969194
C  C274  1  0.39590000  0.31980000  0.69973000  1.0 -0.0888406341
C  C275  1  0.93020000  0.64590000  0.94973000  1.0 0.002215872
C  C276  1  0.10410000  0.18020000  0.69973000  1.0 -0.1101811951
C  C277  1  0.06980000  0.14590000  0.55027000  1.0 0.0085699419
C  C278  1  0.43020000  0.85410000  0.05027000  1.0 0.002215872
C  C279  1  0.10410000  0.31980000  0.80027000  1.0 -0.0699674866
C  C280  1  0.41890000  0.68330000  0.55652000  1.0 0.0420178119
C  C281  1  0.06670000  0.66890000  0.80652000  1.0 0.0499194568
C  C282  1  0.58110000  0.81670000  0.55652000  1.0 0.0420178119
C  C283  1  0.43330000  0.33110000  0.30652000  1.0 0.0420178119
C  C284  1  0.41890000  0.31670000  0.94348000  1.0 0.0793711115
C  C285  1  0.08110000  0.68330000  0.44348000  1.0 0.0420178119
C  C286  1  0.93330000  0.16890000  0.69348000  1.0 0.0420178119
C  C287  1  0.06670000  0.33110000  0.69348000  1.0 0.1110391165
C  C288  1  0.91890000  0.18330000  0.05652000  1.0 0.0420178119
C  C289  1  0.56670000  0.16890000  0.30652000  1.0 0.0420178119
C  C290  1  0.08110000  0.31670000  0.05652000  1.0 0.0420178119
C  C291  1  0.93330000  0.83110000  0.80652000  1.0 0.0499194568
C  C292  1  0.91890000  0.81670000  0.44348000  1.0 0.0420178119
C  C293  1  0.58110000  0.18330000  0.94348000  1.0 0.0420178119
C  C294  1  0.43330000  0.66890000  0.19348000  1.0 0.0420178119
C  C295  1  0.56670000  0.83110000  0.19348000  1.0 0.0420178119
C  C296  1  0.58110000  0.31670000  0.44348000  1.0 0.0499194568
C  C297  1  0.43330000  0.83110000  0.69348000  1.0 0.0420178119
C  C298  1  0.41890000  0.18330000  0.44348000  1.0 0.0420178119
C  C299  1  0.06670000  0.16890000  0.19348000  1.0 0.0420178119
C  C300  1  0.58110000  0.68330000  0.05652000  1.0 0.0499194568
C  C301  1  0.91890000  0.31670000  0.55652000  1.0 0.0420178119
C  C302  1  0.56670000  0.33110000  0.80652000  1.0 0.0592408112
C  C303  1  0.43330000  0.16890000  0.80652000  1.0 0.0420178119
C  C304  1  0.08110000  0.81670000  0.94348000  1.0 0.0420178119
C  C305  1  0.43330000  0.33110000  0.69348000  1.0 0.0290024236
C  C306  1  0.91890000  0.68330000  0.94348000  1.0 0.0420178119
C  C307  1  0.06670000  0.16890000  0.69348000  1.0 -0.0397310453
C  C308  1  0.08110000  0.18330000  0.55652000  1.0 0.0710296364
C  C309  1  0.41890000  0.81670000  0.05652000  1.0 0.0499194568
C  C310  1  0.06670000  0.33110000  0.80652000  1.0 0.1208546254
C  C311  1  0.43390000  0.70150000  0.57741000  1.0 -0.1801726518
C  C312  1  0.04850000  0.68390000  0.82741000  1.0 -0.1801726518
C  C313  1  0.56610000  0.79850000  0.57741000  1.0 -0.1801726518
C  C314  1  0.45150000  0.31610000  0.32741000  1.0 -0.1801726518
C  C315  1  0.43390000  0.29850000  0.92259000  1.0 -0.2715497983
C  C316  1  0.06610000  0.70150000  0.42259000  1.0 -0.1708846832
C  C317  1  0.95150000  0.18390000  0.67259000  1.0 -0.2405234429
C  C318  1  0.04850000  0.31610000  0.67259000  1.0 -0.2405234429
C  C319  1  0.93390000  0.20150000  0.07741000  1.0 -0.1801726518
C  C320  1  0.54850000  0.18390000  0.32741000  1.0 -0.1801726518
C  C321  1  0.06610000  0.29850000  0.07741000  1.0 -0.1801726518
C  C322  1  0.95150000  0.81610000  0.82741000  1.0 -0.1708846832
C  C323  1  0.93390000  0.79850000  0.42259000  1.0 -0.1708846832
C  C324  1  0.56610000  0.20150000  0.92259000  1.0 -0.1801726518
C  C325  1  0.45150000  0.68390000  0.17259000  1.0 -0.1801726518
C  C326  1  0.54850000  0.81610000  0.17259000  1.0 -0.1708846832
C  C327  1  0.56610000  0.29850000  0.42259000  1.0 -0.1708846832
C  C328  1  0.45150000  0.81610000  0.67259000  1.0 -0.1801726518
C  C329  1  0.43390000  0.20150000  0.42259000  1.0 -0.1801726518
C  C330  1  0.04850000  0.18390000  0.17259000  1.0 -0.1801726518
C  C331  1  0.56610000  0.70150000  0.07741000  1.0 -0.1801726518
C  C332  1  0.93390000  0.29850000  0.57741000  1.0 -0.1801726518
C  C333  1  0.54850000  0.31610000  0.82741000  1.0 -0.1708846832
C  C334  1  0.45150000  0.18390000  0.82741000  1.0 -0.312305917
C  C335  1  0.06610000  0.79850000  0.92259000  1.0 -0.1801726518
C  C336  1  0.45150000  0.31610000  0.67259000  1.0 -0.2902438519
C  C337  1  0.93390000  0.70150000  0.92259000  1.0 -0.1801726518
C  C338  1  0.04850000  0.18390000  0.67259000  1.0 -0.2509262748
C  C339  1  0.06610000  0.20150000  0.57741000  1.0 -0.2095360177
C  C340  1  0.43390000  0.79850000  0.07741000  1.0 -0.1708846832
C  C341  1  0.04850000  0.31610000  0.82741000  1.0 -0.2902438519
C  C342  1  0.42070000  0.73520000  0.58558000  1.0 0.0499194568
C  C343  1  0.01480000  0.67070000  0.83558000  1.0 0.0592408112
C  C344  1  0.57930000  0.76480000  0.58558000  1.0 0.0592408112
C  C345  1  0.48520000  0.32930000  0.33558000  1.0 0.0592408112
C  C346  1  0.42070000  0.26480000  0.91442000  1.0 0.1697321975
C  C347  1  0.07930000  0.73520000  0.41442000  1.0 0.0499194568
C  C348  1  0.98520000  0.17070000  0.66442000  1.0 0.0890307818
C  C349  1  0.01480000  0.32930000  0.66442000  1.0 0.0890307818
C  C350  1  0.92070000  0.23520000  0.08558000  1.0 0.0592408112
C  C351  1  0.51480000  0.17070000  0.33558000  1.0 0.0592408112
C  C352  1  0.07930000  0.26480000  0.08558000  1.0 0.0592408112
C  C353  1  0.98520000  0.82930000  0.83558000  1.0 0.0592408112
C  C354  1  0.92070000  0.76480000  0.41442000  1.0 0.0499194568
C  C355  1  0.57930000  0.23520000  0.91442000  1.0 0.0592408112
C  C356  1  0.48520000  0.67070000  0.16442000  1.0 0.0592408112
C  C357  1  0.51480000  0.82930000  0.16442000  1.0 0.0592408112
C  C358  1  0.57930000  0.26480000  0.41442000  1.0 0.0592408112
C  C359  1  0.48520000  0.82930000  0.66442000  1.0 0.0592408112
C  C360  1  0.42070000  0.23520000  0.41442000  1.0 0.0592408112
C  C361  1  0.01480000  0.17070000  0.16442000  1.0 0.0592408112
C  C362  1  0.57930000  0.73520000  0.08558000  1.0 0.0592408112
C  C363  1  0.92070000  0.26480000  0.58558000  1.0 0.0499194568
C  C364  1  0.51480000  0.32930000  0.83558000  1.0 0.0793711115
C  C365  1  0.48520000  0.17070000  0.83558000  1.0 0.0793711115
C  C366  1  0.07930000  0.76480000  0.91442000  1.0 0.0592408112
C  C367  1  0.48520000  0.32930000  0.66442000  1.0 -0.0093931289
C  C368  1  0.92070000  0.73520000  0.91442000  1.0 0.0592408112
C  C369  1  0.01480000  0.17070000  0.66442000  1.0 0.1005048675
C  C370  1  0.07930000  0.23520000  0.58558000  1.0 -0.0795118742
C  C371  1  0.42070000  0.76480000  0.08558000  1.0 0.0592408112
C  C372  1  0.01480000  0.32930000  0.83558000  1.0 0.1901884569
C  C373  1  0.39130000  0.75030000  0.57331000  1.0 0.2002708665
C  C374  1  0.99970000  0.64130000  0.82331000  1.0 0.2115324739
C  C375  1  0.60870000  0.74970000  0.57331000  1.0 0.1901884569
C  C376  1  0.50030000  0.35870000  0.32331000  1.0 0.2002708665
C  C377  1  0.39130000  0.24970000  0.92669000  1.0 0.1576197571
C  C378  1  0.10870000  0.75030000  0.42669000  1.0 0.1901884569
C  C379  1  0.00030000  0.14130000  0.67669000  1.0 0.1384575202
C  C380  1  0.99970000  0.35870000  0.67669000  1.0 0.2115324739
C  C381  1  0.89130000  0.25030000  0.07331000  1.0 0.1901884569
C  C382  1  0.49970000  0.14130000  0.32331000  1.0 0.2002708665
C  C383  1  0.10870000  0.24970000  0.07331000  1.0 0.2002708665
C  C384  1  0.00030000  0.85870000  0.82331000  1.0 0.2002708665
C  C385  1  0.89130000  0.74970000  0.42669000  1.0 0.2002708665
C  C386  1  0.60870000  0.25030000  0.92669000  1.0 0.2002708665
C  C387  1  0.50030000  0.64130000  0.17669000  1.0 0.2002708665
C  C388  1  0.49970000  0.85870000  0.17669000  1.0 0.2002708665
C  C389  1  0.60870000  0.24970000  0.42669000  1.0 0.2002708665
C  C390  1  0.50030000  0.85870000  0.67669000  1.0 0.2002708665
C  C391  1  0.39130000  0.25030000  0.42669000  1.0 0.2002708665
C  C392  1  0.99970000  0.14130000  0.17669000  1.0 0.2002708665
C  C393  1  0.60870000  0.75030000  0.07331000  1.0 0.2002708665
C  C394  1  0.89130000  0.24970000  0.57331000  1.0 0.2002708665
C  C395  1  0.49970000  0.35870000  0.82331000  1.0 0.2115324739
C  C396  1  0.50030000  0.14130000  0.82331000  1.0 0.2115324739
C  C397  1  0.10870000  0.74970000  0.92669000  1.0 0.2002708665
C  C398  1  0.50030000  0.35870000  0.67669000  1.0 0.1576197571
C  C399  1  0.89130000  0.75030000  0.92669000  1.0 0.2002708665
C  C400  1  0.10870000  0.25030000  0.57331000  1.0 0.1384575202
C  C401  1  0.39130000  0.74970000  0.07331000  1.0 0.2002708665
C  C402  1  0.99970000  0.35870000  0.82331000  1.0 0.1697321975
C  C403  1  0.37550000  0.73270000  0.55208000  1.0 -0.1401683215
C  C404  1  0.01730000  0.62550000  0.80208000  1.0 -0.1491777561
C  C405  1  0.62450000  0.76730000  0.55208000  1.0 -0.1491777561
C  C406  1  0.48270000  0.37450000  0.30208000  1.0 -0.1401683215
C  C407  1  0.37550000  0.26730000  0.94792000  1.0 -0.1299770603
C  C408  1  0.12450000  0.73270000  0.44792000  1.0 -0.1401683215
C  C409  1  0.98270000  0.12550000  0.69792000  1.0 0.002215872
C  C410  1  0.01730000  0.37450000  0.69792000  1.0 -0.1192279522
C  C411  1  0.87550000  0.23270000  0.05208000  1.0 -0.1401683215
C  C412  1  0.51730000  0.12550000  0.30208000  1.0 -0.1401683215
C  C413  1  0.12450000  0.26730000  0.05208000  1.0 -0.1401683215
C  C414  1  0.98270000  0.87450000  0.80208000  1.0 -0.1401683215
C  C415  1  0.87550000  0.76730000  0.44792000  1.0 -0.1401683215
C  C416  1  0.62450000  0.23270000  0.94792000  1.0 -0.1401683215
C  C417  1  0.48270000  0.62550000  0.19792000  1.0 -0.1401683215
C  C418  1  0.51730000  0.87450000  0.19792000  1.0 -0.1401683215
C  C419  1  0.62450000  0.26730000  0.44792000  1.0 -0.1491777561
C  C420  1  0.48270000  0.87450000  0.69792000  1.0 -0.1491777561
C  C421  1  0.37550000  0.23270000  0.44792000  1.0 -0.1401683215
C  C422  1  0.01730000  0.12550000  0.19792000  1.0 -0.1401683215
C  C423  1  0.62450000  0.73270000  0.05208000  1.0 -0.1491777561
C  C424  1  0.87550000  0.26730000  0.55208000  1.0 -0.1401683215
C  C425  1  0.51730000  0.37450000  0.80208000  1.0 -0.1491777561
C  C426  1  0.48270000  0.12550000  0.80208000  1.0 -0.1299770603
C  C427  1  0.12450000  0.76730000  0.94792000  1.0 -0.1401683215
C  C428  1  0.48270000  0.37450000  0.69792000  1.0 -0.1401683215
C  C429  1  0.87550000  0.73270000  0.94792000  1.0 -0.1491777561
C  C430  1  0.01730000  0.12550000  0.69792000  1.0 0.0198361888
C  C431  1  0.12450000  0.23270000  0.55208000  1.0 -0.1101811951
C  C432  1  0.37550000  0.76730000  0.05208000  1.0 -0.1491777561
C  C433  1  0.01730000  0.37450000  0.80208000  1.0 -0.1401683215
C  C434  1  0.39090000  0.69990000  0.54350000  1.0 -0.1192279522
C  C435  1  0.05010000  0.64090000  0.79350000  1.0 -0.1401683215
C  C436  1  0.60910000  0.80010000  0.54350000  1.0 -0.1192279522
C  C437  1  0.44990000  0.35910000  0.29350000  1.0 -0.1192279522
C  C438  1  0.39090000  0.30010000  0.95650000  1.0 -0.1192279522
C  C439  1  0.10910000  0.69990000  0.45650000  1.0 -0.1192279522
C  C440  1  0.94990000  0.14090000  0.70650000  1.0 -0.2715497983
C  C441  1  0.05010000  0.35910000  0.70650000  1.0 -0.1992477047
C  C442  1  0.89090000  0.19990000  0.04350000  1.0 -0.1192279522
C  C443  1  0.55010000  0.14090000  0.29350000  1.0 -0.1192279522
C  C444  1  0.10910000  0.30010000  0.04350000  1.0 -0.1192279522
C  C445  1  0.94990000  0.85910000  0.79350000  1.0 -0.1192279522
C  C446  1  0.89090000  0.80010000  0.45650000  1.0 -0.1192279522
C  C447  1  0.60910000  0.19990000  0.95650000  1.0 -0.1192279522
C  C448  1  0.44990000  0.64090000  0.20650000  1.0 -0.1192279522
C  C449  1  0.55010000  0.85910000  0.20650000  1.0 -0.1192279522
C  C450  1  0.60910000  0.30010000  0.45650000  1.0 -0.1192279522
C  C451  1  0.44990000  0.85910000  0.70650000  1.0 -0.1192279522
C  C452  1  0.39090000  0.19990000  0.45650000  1.0 -0.1192279522
C  C453  1  0.05010000  0.14090000  0.20650000  1.0 -0.1101811951
C  C454  1  0.60910000  0.69990000  0.04350000  1.0 -0.1192279522
C  C455  1  0.89090000  0.30010000  0.54350000  1.0 -0.1101811951
C  C456  1  0.55010000  0.35910000  0.79350000  1.0 -0.1491777561
C  C457  1  0.44990000  0.14090000  0.79350000  1.0 -0.2208739476
C  C458  1  0.10910000  0.80010000  0.95650000  1.0 -0.1192279522
C  C459  1  0.44990000  0.35910000  0.70650000  1.0 -0.2613613115
C  C460  1  0.89090000  0.69990000  0.95650000  1.0 -0.1299770603
C  C461  1  0.05010000  0.14090000  0.70650000  1.0 -0.3214784698
C  C462  1  0.10910000  0.19990000  0.54350000  1.0 -0.1005984017
C  C463  1  0.39090000  0.80010000  0.04350000  1.0 -0.1299770603
C  C464  1  0.05010000  0.35910000  0.79350000  1.0 -0.2902438519
C  C465  1  0.43430000  0.75380000  0.60870000  1.0 -0.4202381655
C  C466  1  0.99620000  0.68430000  0.85870000  1.0 -0.4294079164
C  C467  1  0.56570000  0.74620000  0.60870000  1.0 -0.4117549535
C  C468  1  0.50380000  0.31570000  0.35870000  1.0 -0.4294079164
C  C469  1  0.43430000  0.24620000  0.89130000  1.0 -0.1801726518
C  C470  1  0.06570000  0.75380000  0.39130000  1.0 -0.4010052265
C  C471  1  0.00380000  0.18430000  0.64130000  1.0 -0.3021247344
C  C472  1  0.99620000  0.31570000  0.64130000  1.0 -0.4294079164
C  C473  1  0.93430000  0.25380000  0.10870000  1.0 -0.4117549535
C  C474  1  0.49620000  0.18430000  0.35870000  1.0 -0.4294079164
C  C475  1  0.06570000  0.24620000  0.10870000  1.0 -0.4294079164
C  C476  1  0.00380000  0.81570000  0.85870000  1.0 -0.4294079164
C  C477  1  0.93430000  0.74620000  0.39130000  1.0 -0.4010052265
C  C478  1  0.56570000  0.25380000  0.89130000  1.0 -0.4294079164
C  C479  1  0.50380000  0.68430000  0.14130000  1.0 -0.4294079164
C  C480  1  0.49620000  0.81570000  0.14130000  1.0 -0.4294079164
C  C481  1  0.56570000  0.24620000  0.39130000  1.0 -0.4294079164
C  C482  1  0.50380000  0.81570000  0.64130000  1.0 -0.4294079164
C  C483  1  0.43430000  0.25380000  0.39130000  1.0 -0.4294079164
C  C484  1  0.99620000  0.18430000  0.14130000  1.0 -0.4294079164
C  C485  1  0.56570000  0.75380000  0.10870000  1.0 -0.4294079164
C  C486  1  0.93430000  0.24620000  0.60870000  1.0 -0.4294079164
C  C487  1  0.49620000  0.31570000  0.85870000  1.0 -0.4294079164
C  C488  1  0.50380000  0.18430000  0.85870000  1.0 -0.4202381655
C  C489  1  0.06570000  0.74620000  0.89130000  1.0 -0.4294079164
C  C490  1  0.50380000  0.31570000  0.64130000  1.0 -0.1005984017
C  C491  1  0.93430000  0.75380000  0.89130000  1.0 -0.4294079164
C  C492  1  0.99620000  0.18430000  0.64130000  1.0 -0.3021247344
C  C493  1  0.06570000  0.25380000  0.60870000  1.0 -0.1101811951
C  C494  1  0.43430000  0.74620000  0.10870000  1.0 -0.4294079164
C  C495  1  0.99620000  0.31570000  0.85870000  1.0 -0.1708846832
C  C496  1  0.34320000  0.74930000  0.53880000  1.0 0.6012446857
C  C497  1  0.00070000  0.59320000  0.78880000  1.0 0.5879718483
C  C498  1  0.65680000  0.75070000  0.53880000  1.0 0.6012446857
C  C499  1  0.49930000  0.40680000  0.28880000  1.0 0.6098035878
C  C500  1  0.34320000  0.25070000  0.96120000  1.0 0.6012446857
C  C501  1  0.15680000  0.74930000  0.46120000  1.0 0.6012446857
C  C502  1  0.99930000  0.09320000  0.71120000  1.0 0.4114816331
C  C503  1  0.00070000  0.40680000  0.71120000  1.0 0.3807469852
C  C504  1  0.84320000  0.24930000  0.03880000  1.0 0.6098035878
C  C505  1  0.50070000  0.09320000  0.28880000  1.0 0.6098035878
C  C506  1  0.15680000  0.25070000  0.03880000  1.0 0.6098035878
C  C507  1  0.99930000  0.90680000  0.78880000  1.0 0.5879718483
C  C508  1  0.84320000  0.75070000  0.46120000  1.0 0.6098035878
C  C509  1  0.65680000  0.24930000  0.96120000  1.0 0.6012446857
C  C510  1  0.49930000  0.59320000  0.21120000  1.0 0.6098035878
C  C511  1  0.50070000  0.90680000  0.21120000  1.0 0.6098035878
C  C512  1  0.65680000  0.25070000  0.46120000  1.0 0.6098035878
C  C513  1  0.49930000  0.90680000  0.71120000  1.0 0.6098035878
C  C514  1  0.34320000  0.24930000  0.46120000  1.0 0.6098035878
C  C515  1  0.00070000  0.09320000  0.21120000  1.0 0.6308818502
C  C516  1  0.65680000  0.74930000  0.03880000  1.0 0.6151468201
C  C517  1  0.84320000  0.25070000  0.53880000  1.0 0.6098035878
C  C518  1  0.50070000  0.40680000  0.78880000  1.0 0.3999003612
C  C519  1  0.49930000  0.09320000  0.78880000  1.0 0.6098035878
C  C520  1  0.15680000  0.75070000  0.96120000  1.0 0.6098035878
C  C521  1  0.49930000  0.40680000  0.71120000  1.0 0.3999003612
C  C522  1  0.84320000  0.74930000  0.96120000  1.0 0.6151468201
C  C523  1  0.00070000  0.09320000  0.71120000  1.0 0.4114816331
C  C524  1  0.15680000  0.24930000  0.53880000  1.0 0.5809171861
C  C525  1  0.34320000  0.75070000  0.03880000  1.0 0.6098035878
C  C526  1  0.00070000  0.40680000  0.78880000  1.0 0.3590839303
C  C527  1  0.43280000  0.62050000  0.57278000  1.0 -0.0594661196
C  C528  1  0.12950000  0.68280000  0.82278000  1.0 -0.0594661196
C  C529  1  0.56720000  0.87950000  0.57278000  1.0 -0.0699674866
C  C530  1  0.37050000  0.31720000  0.32278000  1.0 -0.0699674866
C  C531  1  0.43280000  0.37950000  0.92722000  1.0 -0.0594661196
C  C532  1  0.06720000  0.62050000  0.42722000  1.0 -0.0594661196
C  C533  1  0.87050000  0.18280000  0.67722000  1.0 -0.0594661196
C  C534  1  0.12950000  0.31720000  0.67722000  1.0 -0.1992477047
C  C535  1  0.93280000  0.12050000  0.07278000  1.0 -0.0594661196
C  C536  1  0.62950000  0.18280000  0.32278000  1.0 -0.0594661196
C  C537  1  0.06720000  0.37950000  0.07278000  1.0 -0.0594661196
C  C538  1  0.87050000  0.81720000  0.82278000  1.0 -0.0594661196
C  C539  1  0.93280000  0.87950000  0.42722000  1.0 -0.0594661196
C  C540  1  0.56720000  0.12050000  0.92722000  1.0 -0.0699674866
C  C541  1  0.37050000  0.68280000  0.17722000  1.0 -0.0594661196
C  C542  1  0.62950000  0.81720000  0.17722000  1.0 -0.0594661196
C  C543  1  0.56720000  0.37950000  0.42722000  1.0 -0.0699674866
C  C544  1  0.37050000  0.81720000  0.67722000  1.0 -0.0699674866
C  C545  1  0.43280000  0.12050000  0.42722000  1.0 -0.0699674866
C  C546  1  0.12950000  0.18280000  0.17722000  1.0 -0.0699674866
C  C547  1  0.56720000  0.62050000  0.07278000  1.0 -0.0699674866
C  C548  1  0.93280000  0.37950000  0.57278000  1.0 -0.0699674866
C  C549  1  0.62950000  0.31720000  0.82278000  1.0 -0.0699674866
C  C550  1  0.37050000  0.18280000  0.82278000  1.0 0.0890307818
C  C551  1  0.06720000  0.87950000  0.92722000  1.0 -0.0699674866
C  C552  1  0.37050000  0.31720000  0.67722000  1.0 0.0793711115
C  C553  1  0.93280000  0.62050000  0.92722000  1.0 -0.0699674866
C  C554  1  0.12950000  0.18280000  0.67722000  1.0 0.0710296364
C  C555  1  0.06720000  0.12050000  0.57278000  1.0 -0.030941723
C  C556  1  0.43280000  0.87950000  0.07278000  1.0 -0.0699674866
C  C557  1  0.12950000  0.31720000  0.82278000  1.0 0.0198361888
C  C558  1  0.46460000  0.61010000  0.58320000  1.0 0.1005048675
C  C559  1  0.13990000  0.71460000  0.83320000  1.0 0.1005048675
C  C560  1  0.53540000  0.88990000  0.58320000  1.0 0.1005048675
C  C561  1  0.36010000  0.28540000  0.33320000  1.0 0.1005048675
C  C562  1  0.46460000  0.38990000  0.91680000  1.0 0.1005048675
C  C563  1  0.03540000  0.61010000  0.41680000  1.0 0.1005048675
C  C564  1  0.86010000  0.21460000  0.66680000  1.0 0.0890307818
C  C565  1  0.13990000  0.28540000  0.66680000  1.0 0.0499194568
C  C566  1  0.96460000  0.11010000  0.08320000  1.0 0.1005048675
C  C567  1  0.63990000  0.21460000  0.33320000  1.0 0.1005048675
C  C568  1  0.03540000  0.38990000  0.08320000  1.0 0.1005048675
C  C569  1  0.86010000  0.78540000  0.83320000  1.0 0.1005048675
C  C570  1  0.96460000  0.88990000  0.41680000  1.0 0.1110391165
C  C571  1  0.53540000  0.11010000  0.91680000  1.0 0.1005048675
C  C572  1  0.36010000  0.71460000  0.16680000  1.0 0.1005048675
C  C573  1  0.63990000  0.78540000  0.16680000  1.0 0.1005048675
C  C574  1  0.53540000  0.38990000  0.41680000  1.0 0.1005048675
C  C575  1  0.36010000  0.78540000  0.66680000  1.0 0.1005048675
C  C576  1  0.46460000  0.11010000  0.41680000  1.0 0.1005048675
C  C577  1  0.13990000  0.21460000  0.16680000  1.0 0.1005048675
C  C578  1  0.53540000  0.61010000  0.08320000  1.0 0.1005048675
C  C579  1  0.96460000  0.38990000  0.58320000  1.0 0.1005048675
C  C580  1  0.63990000  0.28540000  0.83320000  1.0 0.1005048675
C  C581  1  0.36010000  0.21460000  0.83320000  1.0 -0.0795118742
C  C582  1  0.03540000  0.88990000  0.91680000  1.0 0.1005048675
C  C583  1  0.36010000  0.28540000  0.66680000  1.0 -0.0699674866
C  C584  1  0.96460000  0.61010000  0.91680000  1.0 0.1110391165
C  C585  1  0.13990000  0.21460000  0.66680000  1.0 -0.0888406341
C  C586  1  0.03540000  0.11010000  0.58320000  1.0 0.1005048675
C  C587  1  0.46460000  0.88990000  0.08320000  1.0 0.1005048675
C  C588  1  0.13990000  0.28540000  0.83320000  1.0 -0.0699674866
C  C589  1  0.46740000  0.59100000  0.60540000  1.0 -0.1708846832
C  C590  1  0.15900000  0.71740000  0.85540000  1.0 -0.1491777561
C  C591  1  0.53260000  0.90900000  0.60540000  1.0 -0.16000267
C  C592  1  0.34100000  0.28260000  0.35540000  1.0 -0.16000267
C  C593  1  0.46740000  0.40900000  0.89460000  1.0 -0.16000267
C  C594  1  0.03260000  0.59100000  0.39460000  1.0 -0.1708846832
C  C595  1  0.84100000  0.21740000  0.64460000  1.0 -0.16000267
C  C596  1  0.15900000  0.28260000  0.64460000  1.0 0.1005048675
C  C597  1  0.96740000  0.09100000  0.10540000  1.0 -0.1491777561
C  C598  1  0.65900000  0.21740000  0.35540000  1.0 -0.16000267
C  C599  1  0.03260000  0.40900000  0.10540000  1.0 -0.1708846832
C  C600  1  0.84100000  0.78260000  0.85540000  1.0 -0.16000267
C  C601  1  0.96740000  0.90900000  0.39460000  1.0 -0.1708846832
C  C602  1  0.53260000  0.09100000  0.89460000  1.0 -0.1491777561
C  C603  1  0.34100000  0.71740000  0.14460000  1.0 -0.16000267
C  C604  1  0.65900000  0.78260000  0.14460000  1.0 -0.16000267
C  C605  1  0.53260000  0.40900000  0.39460000  1.0 -0.16000267
C  C606  1  0.34100000  0.78260000  0.64460000  1.0 -0.16000267
C  C607  1  0.46740000  0.09100000  0.39460000  1.0 -0.16000267
C  C608  1  0.15900000  0.21740000  0.14460000  1.0 -0.16000267
C  C609  1  0.53260000  0.59100000  0.10540000  1.0 -0.16000267
C  C610  1  0.96740000  0.40900000  0.60540000  1.0 -0.16000267
C  C611  1  0.65900000  0.28260000  0.85540000  1.0 -0.16000267
C  C612  1  0.34100000  0.21740000  0.85540000  1.0 -0.3494447844
C  C613  1  0.03260000  0.90900000  0.89460000  1.0 -0.16000267
C  C614  1  0.34100000  0.28260000  0.64460000  1.0 -0.3400373813
C  C615  1  0.96740000  0.59100000  0.89460000  1.0 -0.16000267
C  C616  1  0.15900000  0.21740000  0.64460000  1.0 -0.3794708432
C  C617  1  0.03260000  0.09100000  0.60540000  1.0 -0.16000267
C  C618  1  0.46740000  0.90900000  0.10540000  1.0 -0.16000267
C  C619  1  0.15900000  0.28260000  0.85540000  1.0 -0.0888406341
C  C620  1  0.43490000  0.57940000  0.61710000  1.0 -0.0504702194
C  C621  1  0.17060000  0.68490000  0.86710000  1.0 -0.0397310453
C  C622  1  0.56510000  0.92060000  0.61710000  1.0 -0.030941723
C  C623  1  0.32940000  0.31510000  0.36710000  1.0 -0.030941723
C  C624  1  0.43490000  0.42060000  0.88290000  1.0 -0.0397310453
C  C625  1  0.06510000  0.57940000  0.38290000  1.0 -0.0397310453
C  C626  1  0.82940000  0.18490000  0.63290000  1.0 -0.0397310453
C  C627  1  0.17060000  0.31510000  0.63290000  1.0 0.0793711115
C  C628  1  0.93490000  0.07940000  0.11710000  1.0 -0.030941723
C  C629  1  0.67060000  0.18490000  0.36710000  1.0 -0.030941723
C  C630  1  0.06510000  0.42060000  0.11710000  1.0 -0.0504702194
C  C631  1  0.82940000  0.81510000  0.86710000  1.0 -0.030941723
C  C632  1  0.93490000  0.92060000  0.38290000  1.0 -0.0504702194
C  C633  1  0.56510000  0.07940000  0.88290000  1.0 -0.030941723
C  C634  1  0.32940000  0.68490000  0.13290000  1.0 -0.030941723
C  C635  1  0.67060000  0.81510000  0.13290000  1.0 -0.030941723
C  C636  1  0.56510000  0.42060000  0.38290000  1.0 -0.0213854207
C  C637  1  0.32940000  0.81510000  0.63290000  1.0 -0.030941723
C  C638  1  0.43490000  0.07940000  0.38290000  1.0 -0.030941723
C  C639  1  0.17060000  0.18490000  0.13290000  1.0 -0.030941723
C  C640  1  0.56510000  0.57940000  0.11710000  1.0 -0.0213854207
C  C641  1  0.93490000  0.42060000  0.61710000  1.0 -0.030941723
C  C642  1  0.67060000  0.31510000  0.86710000  1.0 -0.030941723
C  C643  1  0.32940000  0.18490000  0.86710000  1.0 0.0420178119
C  C644  1  0.06510000  0.92060000  0.88290000  1.0 -0.030941723
C  C645  1  0.32940000  0.31510000  0.63290000  1.0 0.0290024236
C  C646  1  0.93490000  0.57940000  0.88290000  1.0 -0.030941723
C  C647  1  0.17060000  0.18490000  0.63290000  1.0 0.0290024236
C  C648  1  0.06510000  0.07940000  0.61710000  1.0 -0.0795118742
C  C649  1  0.43490000  0.92060000  0.11710000  1.0 -0.0213854207
C  C650  1  0.17060000  0.31510000  0.86710000  1.0 0.0420178119
C  C651  1  0.40130000  0.58890000  0.60640000  1.0 -0.1708846832
C  C652  1  0.16110000  0.65130000  0.85640000  1.0 -0.1708846832
C  C653  1  0.59870000  0.91110000  0.60640000  1.0 -0.1708846832
C  C654  1  0.33890000  0.34870000  0.35640000  1.0 -0.1708846832
C  C655  1  0.40130000  0.41110000  0.89360000  1.0 -0.1801726518
C  C656  1  0.09870000  0.58890000  0.39360000  1.0 -0.1708846832
C  C657  1  0.83890000  0.15130000  0.64360000  1.0 -0.1708846832
C  C658  1  0.16110000  0.34870000  0.64360000  1.0 -0.2613613115
C  C659  1  0.90130000  0.08890000  0.10640000  1.0 -0.1708846832
C  C660  1  0.66110000  0.15130000  0.35640000  1.0 -0.1708846832
C  C661  1  0.09870000  0.41110000  0.10640000  1.0 -0.1708846832
C  C662  1  0.83890000  0.84870000  0.85640000  1.0 -0.1708846832
C  C663  1  0.90130000  0.91110000  0.39360000  1.0 -0.1708846832
C  C664  1  0.59870000  0.08890000  0.89360000  1.0 -0.1708846832
C  C665  1  0.33890000  0.65130000  0.14360000  1.0 -0.1708846832
C  C666  1  0.66110000  0.84870000  0.14360000  1.0 -0.1708846832
C  C667  1  0.59870000  0.41110000  0.39360000  1.0 -0.16000267
C  C668  1  0.33890000  0.84870000  0.64360000  1.0 -0.1708846832
C  C669  1  0.40130000  0.08890000  0.39360000  1.0 -0.1708846832
C  C670  1  0.16110000  0.15130000  0.14360000  1.0 -0.1708846832
C  C671  1  0.59870000  0.58890000  0.10640000  1.0 -0.16000267
C  C672  1  0.90130000  0.41110000  0.60640000  1.0 -0.1708846832
C  C673  1  0.66110000  0.34870000  0.85640000  1.0 -0.1801726518
C  C674  1  0.33890000  0.15130000  0.85640000  1.0 -0.0594661196
C  C675  1  0.09870000  0.91110000  0.89360000  1.0 -0.1801726518
C  C676  1  0.33890000  0.34870000  0.64360000  1.0 -0.0888406341
C  C677  1  0.90130000  0.58890000  0.89360000  1.0 -0.1708846832
C  C678  1  0.16110000  0.15130000  0.64360000  1.0 -0.0699674866
C  C679  1  0.09870000  0.08890000  0.60640000  1.0 -0.2902438519
C  C680  1  0.40130000  0.91110000  0.10640000  1.0 -0.16000267
C  C681  1  0.16110000  0.34870000  0.85640000  1.0 -0.1101811951
C  C682  1  0.40090000  0.60880000  0.58431000  1.0 0.1110391165
C  C683  1  0.14120000  0.65090000  0.83431000  1.0 0.0890307818
C  C684  1  0.59910000  0.89120000  0.58431000  1.0 0.1110391165
C  C685  1  0.35880000  0.34910000  0.33431000  1.0 0.1110391165
C  C686  1  0.40090000  0.39120000  0.91569000  1.0 0.1005048675
C  C687  1  0.09910000  0.60880000  0.41569000  1.0 0.1110391165
C  C688  1  0.85880000  0.15090000  0.66569000  1.0 0.1110391165
C  C689  1  0.14120000  0.34910000  0.66569000  1.0 -0.0594661196
C  C690  1  0.90090000  0.10880000  0.08431000  1.0 0.1110391165
C  C691  1  0.64120000  0.15090000  0.33431000  1.0 0.1110391165
C  C692  1  0.09910000  0.39120000  0.08431000  1.0 0.1110391165
C  C693  1  0.85880000  0.84910000  0.83431000  1.0 0.1110391165
C  C694  1  0.90090000  0.89120000  0.41569000  1.0 0.1110391165
C  C695  1  0.59910000  0.10880000  0.91569000  1.0 0.1110391165
C  C696  1  0.35880000  0.65090000  0.16569000  1.0 0.1110391165
C  C697  1  0.64120000  0.84910000  0.16569000  1.0 0.1110391165
C  C698  1  0.59910000  0.39120000  0.41569000  1.0 0.1110391165
C  C699  1  0.35880000  0.84910000  0.66569000  1.0 0.1110391165
C  C700  1  0.40090000  0.10880000  0.41569000  1.0 0.1110391165
C  C701  1  0.14120000  0.15090000  0.16569000  1.0 0.1110391165
C  C702  1  0.59910000  0.60880000  0.08431000  1.0 0.1110391165
C  C703  1  0.90090000  0.39120000  0.58431000  1.0 0.1110391165
C  C704  1  0.64120000  0.34910000  0.83431000  1.0 0.1110391165
C  C705  1  0.35880000  0.15090000  0.83431000  1.0 0.0420178119
C  C706  1  0.09910000  0.89120000  0.91569000  1.0 0.1110391165
C  C707  1  0.35880000  0.34910000  0.66569000  1.0 0.0290024236
C  C708  1  0.90090000  0.60880000  0.91569000  1.0 0.1110391165
C  C709  1  0.14120000  0.15090000  0.66569000  1.0 0.0420178119
C  C710  1  0.09910000  0.10880000  0.58431000  1.0 0.0290024236
C  C711  1  0.40090000  0.89120000  0.08431000  1.0 0.1110391165
C  C712  1  0.14120000  0.34910000  0.83431000  1.0 0.0420178119
C  C713  1  0.58010000  0.63450000  0.42705000  1.0 0.5879718483
C  C714  1  0.11550000  0.83010000  0.67705000  1.0 0.5879718483
C  C715  1  0.41990000  0.86550000  0.42705000  1.0 0.5879718483
C  C716  1  0.38450000  0.16990000  0.17705000  1.0 0.5879718483
C  C717  1  0.58010000  0.36550000  0.07295000  1.0 0.5879718483
C  C718  1  0.91990000  0.63450000  0.57295000  1.0 0.5879718483
C  C719  1  0.88450000  0.33010000  0.82295000  1.0 0.5809171861
C  C720  1  0.11550000  0.16990000  0.82295000  1.0 0.2394748895
C  C721  1  0.08010000  0.13450000  0.92705000  1.0 0.6098035878
C  C722  1  0.61550000  0.33010000  0.17705000  1.0 0.5809171861
C  C723  1  0.91990000  0.36550000  0.92705000  1.0 0.5718607581
C  C724  1  0.88450000  0.66990000  0.67705000  1.0 0.5879718483
C  C725  1  0.08010000  0.86550000  0.57295000  1.0 0.5879718483
C  C726  1  0.41990000  0.13450000  0.07295000  1.0 0.5879718483
C  C727  1  0.38450000  0.83010000  0.32295000  1.0 0.5879718483
C  C728  1  0.61550000  0.66990000  0.32295000  1.0 0.5809171861
C  C729  1  0.41990000  0.36550000  0.57295000  1.0 0.5718607581
C  C730  1  0.38450000  0.66990000  0.82295000  1.0 0.5809171861
C  C731  1  0.58010000  0.13450000  0.57295000  1.0 0.5879718483
C  C732  1  0.11550000  0.33010000  0.32295000  1.0 0.5809171861
C  C733  1  0.41990000  0.63450000  0.92705000  1.0 0.5879718483
C  C734  1  0.08010000  0.36550000  0.42705000  1.0 0.5879718483
C  C735  1  0.61550000  0.16990000  0.67705000  1.0 0.5809171861
C  C736  1  0.38450000  0.33010000  0.67705000  1.0 0.1110391165
C  C737  1  0.91990000  0.86550000  0.07295000  1.0 0.5879718483
C  C738  1  0.38450000  0.16990000  0.82295000  1.0 0.1110391165
C  C739  1  0.08010000  0.63450000  0.07295000  1.0 0.5879718483
C  C740  1  0.11550000  0.33010000  0.82295000  1.0 0.0890307818
C  C741  1  0.91990000  0.13450000  0.42705000  1.0 0.5879718483
C  C742  1  0.58010000  0.86550000  0.92705000  1.0 0.5879718483
C  C743  1  0.11550000  0.16990000  0.67705000  1.0 0.1005048675
C  C744  1  0.58870000  0.60770000  0.44857000  1.0 -0.1005984017
C  C745  1  0.14230000  0.83870000  0.69857000  1.0 -0.1101811951
C  C746  1  0.41130000  0.89230000  0.44857000  1.0 -0.1005984017
C  C747  1  0.35770000  0.16130000  0.19857000  1.0 -0.1005984017
C  C748  1  0.58870000  0.39230000  0.05143000  1.0 -0.1005984017
C  C749  1  0.91130000  0.60770000  0.55143000  1.0 -0.1005984017
C  C750  1  0.85770000  0.33870000  0.80143000  1.0 -0.1101811951
C  C751  1  0.14230000  0.16130000  0.80143000  1.0 -0.1992477047
C  C752  1  0.08870000  0.10770000  0.94857000  1.0 -0.1192279522
C  C753  1  0.64230000  0.33870000  0.19857000  1.0 -0.1005984017
C  C754  1  0.91130000  0.39230000  0.94857000  1.0 -0.1192279522
C  C755  1  0.85770000  0.66130000  0.69857000  1.0 -0.0888406341
C  C756  1  0.08870000  0.89230000  0.55143000  1.0 -0.1005984017
C  C757  1  0.41130000  0.10770000  0.05143000  1.0 -0.1005984017
C  C758  1  0.35770000  0.83870000  0.30143000  1.0 -0.1005984017
C  C759  1  0.64230000  0.66130000  0.30143000  1.0 -0.1005984017
C  C760  1  0.41130000  0.39230000  0.55143000  1.0 -0.1192279522
C  C761  1  0.35770000  0.66130000  0.80143000  1.0 -0.1005984017
C  C762  1  0.58870000  0.10770000  0.55143000  1.0 -0.1005984017
C  C763  1  0.14230000  0.33870000  0.30143000  1.0 -0.1005984017
C  C764  1  0.41130000  0.60770000  0.94857000  1.0 -0.1005984017
C  C765  1  0.08870000  0.39230000  0.44857000  1.0 -0.1005984017
C  C766  1  0.64230000  0.16130000  0.69857000  1.0 -0.1005984017
C  C767  1  0.35770000  0.33870000  0.69857000  1.0 0.0085699419
C  C768  1  0.91130000  0.89230000  0.05143000  1.0 -0.1005984017
C  C769  1  0.35770000  0.16130000  0.80143000  1.0 -0.0093931289
C  C770  1  0.08870000  0.60770000  0.05143000  1.0 -0.1005984017
C  C771  1  0.14230000  0.33870000  0.80143000  1.0 -0.0093931289
C  C772  1  0.91130000  0.10770000  0.44857000  1.0 -0.1005984017
C  C773  1  0.58870000  0.89230000  0.94857000  1.0 -0.1005984017
C  C774  1  0.14230000  0.16130000  0.69857000  1.0 -0.0093931289
C  C775  1  0.56140000  0.59830000  0.46762000  1.0 0.3392998376
C  C776  1  0.15170000  0.81140000  0.71762000  1.0 0.3392998376
C  C777  1  0.43860000  0.90170000  0.46762000  1.0 0.3392998376
C  C778  1  0.34830000  0.18860000  0.21762000  1.0 0.3392998376
C  C779  1  0.56140000  0.40170000  0.03238000  1.0 0.3392998376
C  C780  1  0.93860000  0.59830000  0.53238000  1.0 0.3392998376
C  C781  1  0.84830000  0.31140000  0.78238000  1.0 0.3500042937
C  C782  1  0.15170000  0.18860000  0.78238000  1.0 0.1759640171
C  C783  1  0.06140000  0.09830000  0.96762000  1.0 0.3392998376
C  C784  1  0.65170000  0.31140000  0.21762000  1.0 0.3207569662
C  C785  1  0.93860000  0.40170000  0.96762000  1.0 0.3392998376
C  C786  1  0.84830000  0.68860000  0.71762000  1.0 0.3207569662
C  C787  1  0.06140000  0.90170000  0.53238000  1.0 0.3392998376
C  C788  1  0.43860000  0.09830000  0.03238000  1.0 0.3392998376
C  C789  1  0.34830000  0.81140000  0.28238000  1.0 0.3207569662
C  C790  1  0.65170000  0.68860000  0.28238000  1.0 0.3207569662
C  C791  1  0.43860000  0.40170000  0.53238000  1.0 0.3500042937
C  C792  1  0.34830000  0.68860000  0.78238000  1.0 0.3392998376
C  C793  1  0.56140000  0.09830000  0.53238000  1.0 0.3392998376
C  C794  1  0.15170000  0.31140000  0.28238000  1.0 0.3305050136
C  C795  1  0.43860000  0.59830000  0.96762000  1.0 0.3392998376
C  C796  1  0.06140000  0.40170000  0.46762000  1.0 0.3392998376
C  C797  1  0.65170000  0.18860000  0.71762000  1.0 0.3392998376
C  C798  1  0.34830000  0.31140000  0.71762000  1.0 0.0420178119
C  C799  1  0.93860000  0.90170000  0.03238000  1.0 0.3305050136
C  C800  1  0.34830000  0.18860000  0.78238000  1.0 0.0420178119
C  C801  1  0.06140000  0.59830000  0.03238000  1.0 0.3305050136
C  C802  1  0.15170000  0.31140000  0.78238000  1.0 0.0890307818
C  C803  1  0.93860000  0.09830000  0.46762000  1.0 0.3305050136
C  C804  1  0.56140000  0.90170000  0.96762000  1.0 0.3305050136
C  C805  1  0.15170000  0.18860000  0.71762000  1.0 0.0290024236
C  C806  1  0.57200000  0.57220000  0.48710000  1.0 0.0793711115
C  C807  1  0.17780000  0.82200000  0.73710000  1.0 0.0793711115
C  C808  1  0.42800000  0.92780000  0.48710000  1.0 0.0890307818
C  C809  1  0.32220000  0.17800000  0.23710000  1.0 0.0890307818
C  C810  1  0.57200000  0.42780000  0.01290000  1.0 0.0793711115
C  C811  1  0.92800000  0.57220000  0.51290000  1.0 0.0890307818
C  C812  1  0.82220000  0.32200000  0.76290000  1.0 0.0890307818
C  C813  1  0.17780000  0.17800000  0.76290000  1.0 0.0290024236
C  C814  1  0.07200000  0.07220000  0.98710000  1.0 0.0890307818
C  C815  1  0.67780000  0.32200000  0.23710000  1.0 0.0793711115
C  C816  1  0.92800000  0.42780000  0.98710000  1.0 0.0793711115
C  C817  1  0.82220000  0.67800000  0.73710000  1.0 0.0793711115
C  C818  1  0.07200000  0.92780000  0.51290000  1.0 0.0890307818
C  C819  1  0.42800000  0.07220000  0.01290000  1.0 0.0890307818
C  C820  1  0.32220000  0.82200000  0.26290000  1.0 0.0793711115
C  C821  1  0.67780000  0.67800000  0.26290000  1.0 0.0793711115
C  C822  1  0.42800000  0.42780000  0.51290000  1.0 0.0890307818
C  C823  1  0.32220000  0.67800000  0.76290000  1.0 0.0793711115
C  C824  1  0.57200000  0.07220000  0.51290000  1.0 0.0890307818
C  C825  1  0.17780000  0.32200000  0.26290000  1.0 0.0793711115
C  C826  1  0.42800000  0.57220000  0.98710000  1.0 0.0890307818
C  C827  1  0.07200000  0.42780000  0.48710000  1.0 0.0890307818
C  C828  1  0.67780000  0.17800000  0.73710000  1.0 0.0890307818
C  C829  1  0.32220000  0.32200000  0.73710000  1.0 0.0592408112
C  C830  1  0.92800000  0.92780000  0.01290000  1.0 0.0890307818
C  C831  1  0.32220000  0.17800000  0.76290000  1.0 0.0499194568
C  C832  1  0.07200000  0.57220000  0.01290000  1.0 0.0890307818
C  C833  1  0.17780000  0.32200000  0.76290000  1.0 0.0290024236
C  C834  1  0.92800000  0.07220000  0.48710000  1.0 0.0890307818
C  C835  1  0.57200000  0.92780000  0.98710000  1.0 0.0890307818
C  C836  1  0.17780000  0.17800000  0.73710000  1.0 0.0290024236
C  C837  1  0.60500000  0.55570000  0.48586000  1.0 -0.1902425891
C  C838  1  0.19430000  0.85500000  0.73586000  1.0 -0.1708846832
C  C839  1  0.39500000  0.94430000  0.48586000  1.0 -0.1902425891
C  C840  1  0.30570000  0.14500000  0.23586000  1.0 -0.1902425891
C  C841  1  0.60500000  0.44430000  0.01414000  1.0 -0.1902425891
C  C842  1  0.89500000  0.55570000  0.51414000  1.0 -0.1902425891
C  C843  1  0.80570000  0.35500000  0.76414000  1.0 -0.1801726518
C  C844  1  0.19430000  0.14500000  0.76414000  1.0 -0.1801726518
C  C845  1  0.10500000  0.05570000  0.98586000  1.0 -0.1902425891
C  C846  1  0.69430000  0.35500000  0.23586000  1.0 -0.1708846832
C  C847  1  0.89500000  0.44430000  0.98586000  1.0 -0.1902425891
C  C848  1  0.80570000  0.64500000  0.73586000  1.0 -0.1708846832
C  C849  1  0.10500000  0.94430000  0.51414000  1.0 -0.1902425891
C  C850  1  0.39500000  0.05570000  0.01414000  1.0 -0.1902425891
C  C851  1  0.30570000  0.85500000  0.26414000  1.0 -0.1801726518
C  C852  1  0.69430000  0.64500000  0.26414000  1.0 -0.1708846832
C  C853  1  0.39500000  0.44430000  0.51414000  1.0 -0.1801726518
C  C854  1  0.30570000  0.64500000  0.76414000  1.0 -0.1902425891
C  C855  1  0.60500000  0.05570000  0.51414000  1.0 -0.1902425891
C  C856  1  0.19430000  0.35500000  0.26414000  1.0 -0.1902425891
C  C857  1  0.39500000  0.55570000  0.98586000  1.0 -0.1902425891
C  C858  1  0.10500000  0.44430000  0.48586000  1.0 -0.1902425891
C  C859  1  0.69430000  0.14500000  0.73586000  1.0 -0.1902425891
C  C860  1  0.30570000  0.35500000  0.73586000  1.0 -0.2902438519
C  C861  1  0.89500000  0.94430000  0.01414000  1.0 -0.1902425891
C  C862  1  0.30570000  0.14500000  0.76414000  1.0 -0.3214784698
C  C863  1  0.10500000  0.55570000  0.01414000  1.0 -0.1902425891
C  C864  1  0.19430000  0.35500000  0.76414000  1.0 -0.2306746947
C  C865  1  0.89500000  0.05570000  0.48586000  1.0 -0.1902425891
C  C866  1  0.60500000  0.94430000  0.98586000  1.0 -0.1902425891
C  C867  1  0.19430000  0.14500000  0.73586000  1.0 -0.2208739476
C  C868  1  0.63190000  0.56520000  0.46706000  1.0 0.0592408112
C  C869  1  0.18480000  0.88190000  0.71706000  1.0 0.0592408112
C  C870  1  0.36810000  0.93480000  0.46706000  1.0 0.0592408112
C  C871  1  0.31520000  0.11810000  0.21706000  1.0 0.0592408112
C  C872  1  0.63190000  0.43480000  0.03294000  1.0 0.0592408112
C  C873  1  0.86810000  0.56520000  0.53294000  1.0 0.0592408112
C  C874  1  0.81520000  0.38190000  0.78294000  1.0 0.0592408112
C  C875  1  0.18480000  0.11810000  0.78294000  1.0 -0.030941723
C  C876  1  0.13190000  0.06520000  0.96706000  1.0 0.0592408112
C  C877  1  0.68480000  0.38190000  0.21706000  1.0 0.0499194568
C  C878  1  0.86810000  0.43480000  0.96706000  1.0 0.0499194568
C  C879  1  0.81520000  0.61810000  0.71706000  1.0 0.0499194568
C  C880  1  0.13190000  0.93480000  0.53294000  1.0 0.0592408112
C  C881  1  0.36810000  0.06520000  0.03294000  1.0 0.0592408112
C  C882  1  0.31520000  0.88190000  0.28294000  1.0 0.0499194568
C  C883  1  0.68480000  0.61810000  0.28294000  1.0 0.0499194568
C  C884  1  0.36810000  0.43480000  0.53294000  1.0 0.0592408112
C  C885  1  0.31520000  0.61810000  0.78294000  1.0 0.0592408112
C  C886  1  0.63190000  0.06520000  0.53294000  1.0 0.0592408112
C  C887  1  0.18480000  0.38190000  0.28294000  1.0 0.0499194568
C  C888  1  0.36810000  0.56520000  0.96706000  1.0 0.0592408112
C  C889  1  0.13190000  0.43480000  0.46706000  1.0 0.0592408112
C  C890  1  0.68480000  0.11810000  0.71706000  1.0 0.0592408112
C  C891  1  0.31520000  0.38190000  0.71706000  1.0 -0.0397310453
C  C892  1  0.86810000  0.93480000  0.03294000  1.0 0.0592408112
C  C893  1  0.31520000  0.11810000  0.78294000  1.0 -0.0093931289
C  C894  1  0.13190000  0.56520000  0.03294000  1.0 0.0592408112
C  C895  1  0.18480000  0.38190000  0.78294000  1.0 -0.1101811951
C  C896  1  0.86810000  0.06520000  0.46706000  1.0 0.0592408112
C  C897  1  0.63190000  0.93480000  0.96706000  1.0 0.0592408112
C  C898  1  0.18480000  0.11810000  0.71706000  1.0 -0.1192279522
C  C899  1  0.62200000  0.59230000  0.44903000  1.0 -0.1192279522
C  C900  1  0.15770000  0.87200000  0.69903000  1.0 -0.1005984017
C  C901  1  0.37800000  0.90770000  0.44903000  1.0 -0.1192279522
C  C902  1  0.34230000  0.12800000  0.19903000  1.0 -0.1101811951
C  C903  1  0.62200000  0.40770000  0.05097000  1.0 -0.1192279522
C  C904  1  0.87800000  0.59230000  0.55097000  1.0 -0.1192279522
C  C905  1  0.84230000  0.37200000  0.80097000  1.0 -0.1005984017
C  C906  1  0.15770000  0.12800000  0.80097000  1.0 -0.2095360177
C  C907  1  0.12200000  0.09230000  0.94903000  1.0 -0.1101811951
C  C908  1  0.65770000  0.37200000  0.19903000  1.0 -0.1101811951
C  C909  1  0.87800000  0.40770000  0.94903000  1.0 -0.1299770603
C  C910  1  0.84230000  0.62800000  0.69903000  1.0 -0.1101811951
C  C911  1  0.12200000  0.90770000  0.55097000  1.0 -0.1192279522
C  C912  1  0.37800000  0.09230000  0.05097000  1.0 -0.1101811951
C  C913  1  0.34230000  0.87200000  0.30097000  1.0 -0.1101811951
C  C914  1  0.65770000  0.62800000  0.30097000  1.0 -0.1101811951
C  C915  1  0.37800000  0.40770000  0.55097000  1.0 -0.1491777561
C  C916  1  0.34230000  0.62800000  0.80097000  1.0 -0.1192279522
C  C917  1  0.62200000  0.09230000  0.55097000  1.0 -0.1192279522
C  C918  1  0.15770000  0.37200000  0.30097000  1.0 -0.1192279522
C  C919  1  0.37800000  0.59230000  0.94903000  1.0 -0.1192279522
C  C920  1  0.12200000  0.40770000  0.44903000  1.0 -0.1101811951
C  C921  1  0.65770000  0.12800000  0.69903000  1.0 -0.1101811951
C  C922  1  0.34230000  0.37200000  0.69903000  1.0 -0.1192279522
C  C923  1  0.87800000  0.90770000  0.05097000  1.0 -0.1192279522
C  C924  1  0.34230000  0.12800000  0.80097000  1.0 -0.1902425891
C  C925  1  0.12200000  0.59230000  0.05097000  1.0 -0.1192279522
C  C926  1  0.15770000  0.37200000  0.80097000  1.0 -0.1491777561
C  C927  1  0.87800000  0.09230000  0.44903000  1.0 -0.1192279522
C  C928  1  0.62200000  0.90770000  0.94903000  1.0 -0.1192279522
C  C929  1  0.15770000  0.12800000  0.69903000  1.0 -0.1299770603
C  C930  1  0.54380000  0.56460000  0.50748000  1.0 -0.4294079164
C  C931  1  0.18540000  0.79380000  0.75748000  1.0 -0.4294079164
C  C932  1  0.45620000  0.93540000  0.50748000  1.0 -0.4294079164
C  C933  1  0.31460000  0.20620000  0.25748000  1.0 -0.4294079164
C  C934  1  0.54380000  0.43540000  0.99252000  1.0 -0.4294079164
C  C935  1  0.95620000  0.56460000  0.49252000  1.0 -0.4294079164
C  C936  1  0.81460000  0.29380000  0.74252000  1.0 -0.4202381655
C  C937  1  0.18540000  0.20620000  0.74252000  1.0 -0.0795118742
C  C938  1  0.04380000  0.06460000  0.00748000  1.0 -0.4294079164
C  C939  1  0.68540000  0.29380000  0.25748000  1.0 -0.4117549535
C  C940  1  0.95620000  0.43540000  0.00748000  1.0 -0.4294079164
C  C941  1  0.81460000  0.70620000  0.75748000  1.0 -0.4117549535
C  C942  1  0.04380000  0.93540000  0.49252000  1.0 -0.4294079164
C  C943  1  0.45620000  0.06460000  0.99252000  1.0 -0.4294079164
C  C944  1  0.31460000  0.79380000  0.24252000  1.0 -0.4117549535
C  C945  1  0.68540000  0.70620000  0.24252000  1.0 -0.4117549535
C  C946  1  0.45620000  0.43540000  0.49252000  1.0 -0.4294079164
C  C947  1  0.31460000  0.70620000  0.74252000  1.0 -0.4294079164
C  C948  1  0.54380000  0.06460000  0.49252000  1.0 -0.4294079164
C  C949  1  0.18540000  0.29380000  0.24252000  1.0 -0.4294079164
C  C950  1  0.45620000  0.56460000  0.00748000  1.0 -0.4294079164
C  C951  1  0.04380000  0.43540000  0.50748000  1.0 -0.4294079164
C  C952  1  0.68540000  0.20620000  0.75748000  1.0 -0.4294079164
C  C953  1  0.31460000  0.29380000  0.75748000  1.0 -0.1005984017
C  C954  1  0.95620000  0.93540000  0.99252000  1.0 -0.4294079164
C  C955  1  0.31460000  0.20620000  0.74252000  1.0 -0.1005984017
C  C956  1  0.04380000  0.56460000  0.99252000  1.0 -0.4294079164
C  C957  1  0.18540000  0.29380000  0.74252000  1.0 -0.0699674866
C  C958  1  0.95620000  0.06460000  0.50748000  1.0 -0.4294079164
C  C959  1  0.54380000  0.93540000  0.00748000  1.0 -0.4294079164
C  C960  1  0.18540000  0.20620000  0.75748000  1.0 -0.0888406341
C  C961  1  0.66460000  0.54730000  0.46626000  1.0 -0.0020969194
C  C962  1  0.20270000  0.91460000  0.71626000  1.0 -0.0213854207
C  C963  1  0.33540000  0.95270000  0.46626000  1.0 0.002215872
C  C964  1  0.29730000  0.08540000  0.21626000  1.0 0.002215872
C  C965  1  0.66460000  0.45270000  0.03374000  1.0 -0.0020969194
C  C966  1  0.83540000  0.54730000  0.53374000  1.0 0.002215872
C  C967  1  0.79730000  0.41460000  0.78374000  1.0 0.0085699419
C  C968  1  0.20270000  0.08540000  0.78374000  1.0 0.0085699419
C  C969  1  0.16460000  0.04730000  0.96626000  1.0 0.002215872
C  C970  1  0.70270000  0.41460000  0.21626000  1.0 0.0085699419
C  C971  1  0.83540000  0.45270000  0.96626000  1.0 -0.0020969194
C  C972  1  0.79730000  0.58540000  0.71626000  1.0 0.0085699419
C  C973  1  0.16460000  0.95270000  0.53374000  1.0 -0.0020969194
C  C974  1  0.33540000  0.04730000  0.03374000  1.0 0.002215872
C  C975  1  0.29730000  0.91460000  0.28374000  1.0 0.0085699419
C  C976  1  0.70270000  0.58540000  0.28374000  1.0 0.0085699419
C  C977  1  0.33540000  0.45270000  0.53374000  1.0 -0.1192279522
C  C978  1  0.29730000  0.58540000  0.78374000  1.0 0.0085699419
C  C979  1  0.66460000  0.04730000  0.53374000  1.0 -0.0020969194
C  C980  1  0.20270000  0.41460000  0.28374000  1.0 0.002215872
C  C981  1  0.33540000  0.54730000  0.96626000  1.0 -0.0020969194
C  C982  1  0.16460000  0.45270000  0.46626000  1.0 0.0085699419
C  C983  1  0.70270000  0.08540000  0.71626000  1.0 0.002215872
C  C984  1  0.29730000  0.41460000  0.71626000  1.0 -0.0795118742
C  C985  1  0.83540000  0.95270000  0.03374000  1.0 0.002215872
C  C986  1  0.29730000  0.08540000  0.78374000  1.0 -0.0397310453
C  C987  1  0.16460000  0.54730000  0.03374000  1.0 -0.0020969194
C  C988  1  0.20270000  0.41460000  0.78374000  1.0 -0.0795118742
C  C989  1  0.83540000  0.04730000  0.46626000  1.0 0.002215872
C  C990  1  0.66460000  0.95270000  0.96626000  1.0 0.002215872
C  C991  1  0.20270000  0.08540000  0.71626000  1.0 -0.1101811951
C  C992  1  0.69690000  0.55930000  0.45216000  1.0 0.0499194568
C  C993  1  0.19070000  0.94690000  0.70216000  1.0 -0.1101811951
C  C994  1  0.30310000  0.94070000  0.45216000  1.0 0.0499194568
C  C995  1  0.30930000  0.05310000  0.20216000  1.0 0.0420178119
C  C996  1  0.69690000  0.44070000  0.04784000  1.0 0.0499194568
C  C997  1  0.80310000  0.55930000  0.54784000  1.0 0.0499194568
C  C998  1  0.80930000  0.44690000  0.79784000  1.0 0.0499194568
C  C999  1  0.19070000  0.05310000  0.79784000  1.0 -0.0594661196
C  C1000  1  0.19690000  0.05930000  0.95216000  1.0 0.0710296364
C  C1001  1  0.69070000  0.44690000  0.20216000  1.0 0.0420178119
C  C1002  1  0.80310000  0.44070000  0.95216000  1.0 0.0592408112
C  C1003  1  0.80930000  0.55310000  0.70216000  1.0 0.0499194568
C  C1004  1  0.19690000  0.94070000  0.54784000  1.0 0.0499194568
C  C1005  1  0.30310000  0.05930000  0.04784000  1.0 0.0499194568
C  C1006  1  0.30930000  0.94690000  0.29784000  1.0 0.0499194568
C  C1007  1  0.69070000  0.55310000  0.29784000  1.0 0.0420178119
C  C1008  1  0.30310000  0.44070000  0.54784000  1.0 0.0710296364
C  C1009  1  0.30930000  0.55310000  0.79784000  1.0 0.0420178119
C  C1010  1  0.69690000  0.05930000  0.54784000  1.0 0.0499194568
C  C1011  1  0.19070000  0.44690000  0.29784000  1.0 0.0499194568
C  C1012  1  0.30310000  0.55930000  0.95216000  1.0 0.0499194568
C  C1013  1  0.19690000  0.44070000  0.45216000  1.0 0.0499194568
C  C1014  1  0.69070000  0.05310000  0.70216000  1.0 0.0499194568
C  C1015  1  0.30930000  0.44690000  0.70216000  1.0 -0.1101811951
C  C1016  1  0.80310000  0.94070000  0.04784000  1.0 0.0499194568
C  C1017  1  0.30930000  0.05310000  0.79784000  1.0 -0.1005984017
C  C1018  1  0.19690000  0.55930000  0.04784000  1.0 0.0499194568
C  C1019  1  0.19070000  0.44690000  0.79784000  1.0 -0.1192279522
C  C1020  1  0.80310000  0.05930000  0.45216000  1.0 0.0499194568
C  C1021  1  0.69690000  0.94070000  0.95216000  1.0 0.0499194568
C  C1022  1  0.19070000  0.05310000  0.70216000  1.0 -0.1299770603
C  C1023  1  0.72010000  0.53280000  0.44120000  1.0 -0.1902425891
C  C1024  1  0.21720000  0.97010000  0.69120000  1.0 -0.0888406341
C  C1025  1  0.27990000  0.96720000  0.44120000  1.0 -0.1801726518
C  C1026  1  0.28280000  0.02990000  0.19120000  1.0 -0.1801726518
C  C1027  1  0.72010000  0.46720000  0.05880000  1.0 -0.1902425891
C  C1028  1  0.77990000  0.53280000  0.55880000  1.0 -0.1801726518
C  C1029  1  0.78280000  0.47010000  0.80880000  1.0 -0.1801726518
C  C1030  1  0.21720000  0.02990000  0.80880000  1.0 -0.2509262748
C  C1031  1  0.22010000  0.03280000  0.94120000  1.0 -0.2613613115
C  C1032  1  0.71720000  0.47010000  0.19120000  1.0 -0.1801726518
C  C1033  1  0.77990000  0.46720000  0.94120000  1.0 -0.1992477047
C  C1034  1  0.78280000  0.52990000  0.69120000  1.0 -0.1801726518
C  C1035  1  0.22010000  0.96720000  0.55880000  1.0 -0.1801726518
C  C1036  1  0.27990000  0.03280000  0.05880000  1.0 -0.1902425891
C  C1037  1  0.28280000  0.97010000  0.30880000  1.0 -0.1801726518
C  C1038  1  0.71720000  0.52990000  0.30880000  1.0 -0.1801726518
C  C1039  1  0.27990000  0.46720000  0.55880000  1.0 0.0085699419
C  C1040  1  0.28280000  0.52990000  0.80880000  1.0 -0.1992477047
C  C1041  1  0.72010000  0.03280000  0.55880000  1.0 -0.1801726518
C  C1042  1  0.21720000  0.47010000  0.30880000  1.0 -0.1708846832
C  C1043  1  0.27990000  0.53280000  0.94120000  1.0 -0.1801726518
C  C1044  1  0.22010000  0.46720000  0.44120000  1.0 -0.1801726518
C  C1045  1  0.71720000  0.02990000  0.69120000  1.0 -0.1708846832
C  C1046  1  0.28280000  0.47010000  0.69120000  1.0 -0.2509262748
C  C1047  1  0.77990000  0.96720000  0.05880000  1.0 -0.1801726518
C  C1048  1  0.28280000  0.02990000  0.80880000  1.0 -0.1005984017
C  C1049  1  0.22010000  0.53280000  0.05880000  1.0 -0.1801726518
C  C1050  1  0.21720000  0.47010000  0.80880000  1.0 -0.2405234429
C  C1051  1  0.77990000  0.03280000  0.44120000  1.0 -0.1801726518
C  C1052  1  0.72010000  0.96720000  0.94120000  1.0 -0.1801726518
C  C1053  1  0.21720000  0.02990000  0.69120000  1.0 -0.1299770603
C  C1054  1  0.75270000  0.54120000  0.42936000  1.0 0.0793711115
C  C1055  1  0.20880000  0.00270000  0.67936000  1.0 0.0793711115
C  C1056  1  0.24730000  0.95880000  0.42936000  1.0 0.0793711115
C  C1057  1  0.29120000  0.99730000  0.17936000  1.0 0.0793711115
C  C1058  1  0.75270000  0.45880000  0.07064000  1.0 0.0793711115
C  C1059  1  0.74730000  0.54120000  0.57064000  1.0 0.0793711115
C  C1060  1  0.79120000  0.50270000  0.82064000  1.0 0.0793711115
C  C1061  1  0.20880000  0.99730000  0.82064000  1.0 -0.0795118742
C  C1062  1  0.25270000  0.04120000  0.92936000  1.0 0.1005048675
C  C1063  1  0.70880000  0.50270000  0.17936000  1.0 0.0793711115
C  C1064  1  0.74730000  0.45880000  0.92936000  1.0 0.0793711115
C  C1065  1  0.79120000  0.49730000  0.67936000  1.0 0.0793711115
C  C1066  1  0.25270000  0.95880000  0.57064000  1.0 0.0793711115
C  C1067  1  0.24730000  0.04120000  0.07064000  1.0 0.0793711115
C  C1068  1  0.29120000  0.00270000  0.32064000  1.0 0.0793711115
C  C1069  1  0.70880000  0.49730000  0.32064000  1.0 0.0793711115
C  C1070  1  0.24730000  0.45880000  0.57064000  1.0 0.1110391165
C  C1071  1  0.29120000  0.49730000  0.82064000  1.0 -0.0699674866
C  C1072  1  0.75270000  0.04120000  0.57064000  1.0 0.0793711115
C  C1073  1  0.20880000  0.50270000  0.32064000  1.0 0.0890307818
C  C1074  1  0.24730000  0.54120000  0.92936000  1.0 0.0890307818
C  C1075  1  0.25270000  0.45880000  0.42936000  1.0 0.0793711115
C  C1076  1  0.70880000  0.99730000  0.67936000  1.0 0.0890307818
C  C1077  1  0.29120000  0.50270000  0.67936000  1.0 0.1005048675
C  C1078  1  0.74730000  0.95880000  0.07064000  1.0 0.0793711115
C  C1079  1  0.29120000  0.99730000  0.82064000  1.0 -0.0397310453
C  C1080  1  0.25270000  0.54120000  0.07064000  1.0 0.0793711115
C  C1081  1  0.20880000  0.50270000  0.82064000  1.0 0.0420178119
C  C1082  1  0.74730000  0.04120000  0.42936000  1.0 0.0793711115
C  C1083  1  0.75270000  0.95880000  0.92936000  1.0 0.0793711115
C  C1084  1  0.20880000  0.99730000  0.67936000  1.0 0.0793711115
C  C1085  1  0.76380000  0.57910000  0.42938000  1.0 0.229076173
C  C1086  1  0.17090000  0.01380000  0.67938000  1.0 0.0890307818
C  C1087  1  0.23620000  0.92090000  0.42938000  1.0 0.229076173
C  C1088  1  0.32910000  0.98620000  0.17938000  1.0 0.229076173
C  C1089  1  0.76380000  0.42090000  0.07062000  1.0 0.229076173
C  C1090  1  0.73620000  0.57910000  0.57062000  1.0 0.229076173
C  C1091  1  0.82910000  0.51380000  0.82062000  1.0 0.229076173
C  C1092  1  0.17090000  0.98620000  0.82062000  1.0 0.229076173
C  C1093  1  0.26380000  0.07910000  0.92938000  1.0 0.1208546254
C  C1094  1  0.67090000  0.51380000  0.17938000  1.0 0.229076173
C  C1095  1  0.73620000  0.42090000  0.92938000  1.0 0.229076173
C  C1096  1  0.82910000  0.48620000  0.67938000  1.0 0.229076173
C  C1097  1  0.26380000  0.92090000  0.57062000  1.0 0.229076173
C  C1098  1  0.23620000  0.07910000  0.07062000  1.0 0.229076173
C  C1099  1  0.32910000  0.01380000  0.32062000  1.0 0.229076173
C  C1100  1  0.67090000  0.48620000  0.32062000  1.0 0.229076173
C  C1101  1  0.23620000  0.42090000  0.57062000  1.0 0.1576197571
C  C1102  1  0.32910000  0.48620000  0.82062000  1.0 0.2185030944
C  C1103  1  0.76380000  0.07910000  0.57062000  1.0 0.229076173
C  C1104  1  0.17090000  0.51380000  0.32062000  1.0 0.229076173
C  C1105  1  0.23620000  0.57910000  0.92938000  1.0 0.229076173
C  C1106  1  0.26380000  0.42090000  0.42938000  1.0 0.229076173
C  C1107  1  0.67090000  0.98620000  0.67938000  1.0 0.229076173
C  C1108  1  0.32910000  0.51380000  0.67938000  1.0 0.2394748895
C  C1109  1  0.73620000  0.92090000  0.07062000  1.0 0.229076173
C  C1110  1  0.32910000  0.98620000  0.82062000  1.0 0.1697321975
C  C1111  1  0.26380000  0.57910000  0.07062000  1.0 0.229076173
C  C1112  1  0.17090000  0.51380000  0.82062000  1.0 0.1308294164
C  C1113  1  0.73620000  0.07910000  0.42938000  1.0 0.229076173
C  C1114  1  0.76380000  0.92090000  0.92938000  1.0 0.229076173
C  C1115  1  0.17090000  0.98620000  0.67938000  1.0 0.1110391165
C  C1116  1  0.74150000  0.60570000  0.44130000  1.0 -0.1491777561
C  C1117  1  0.14430000  0.99150000  0.69130000  1.0 -0.0093931289
C  C1118  1  0.25850000  0.89430000  0.44130000  1.0 -0.1491777561
C  C1119  1  0.35570000  0.00850000  0.19130000  1.0 -0.1491777561
C  C1120  1  0.74150000  0.39430000  0.05870000  1.0 -0.1491777561
C  C1121  1  0.75850000  0.60570000  0.55870000  1.0 -0.1491777561
C  C1122  1  0.85570000  0.49150000  0.80870000  1.0 -0.1299770603
C  C1123  1  0.14430000  0.00850000  0.80870000  1.0 -0.1005984017
C  C1124  1  0.24150000  0.10570000  0.94130000  1.0 -0.0020969194
C  C1125  1  0.64430000  0.49150000  0.19130000  1.0 -0.1401683215
C  C1126  1  0.75850000  0.39430000  0.94130000  1.0 -0.1401683215
C  C1127  1  0.85570000  0.50850000  0.69130000  1.0 -0.1491777561
C  C1128  1  0.24150000  0.89430000  0.55870000  1.0 -0.1491777561
C  C1129  1  0.25850000  0.10570000  0.05870000  1.0 -0.1491777561
C  C1130  1  0.35570000  0.99150000  0.30870000  1.0 -0.1491777561
C  C1131  1  0.64430000  0.50850000  0.30870000  1.0 -0.1401683215
C  C1132  1  0.25850000  0.39430000  0.55870000  1.0 0.0198361888
C  C1133  1  0.35570000  0.50850000  0.80870000  1.0 -0.1299770603
C  C1134  1  0.74150000  0.10570000  0.55870000  1.0 -0.1491777561
C  C1135  1  0.14430000  0.49150000  0.30870000  1.0 -0.1401683215
C  C1136  1  0.25850000  0.60570000  0.94130000  1.0 -0.1491777561
C  C1137  1  0.24150000  0.39430000  0.44130000  1.0 -0.1491777561
C  C1138  1  0.64430000  0.00850000  0.69130000  1.0 -0.1491777561
C  C1139  1  0.35570000  0.49150000  0.69130000  1.0 -0.1299770603
C  C1140  1  0.75850000  0.89430000  0.05870000  1.0 -0.1491777561
C  C1141  1  0.35570000  0.00850000  0.80870000  1.0 0.0198361888
C  C1142  1  0.24150000  0.60570000  0.05870000  1.0 -0.1491777561
C  C1143  1  0.14430000  0.49150000  0.80870000  1.0 -0.0093931289
C  C1144  1  0.75850000  0.10570000  0.44130000  1.0 -0.1491777561
C  C1145  1  0.74150000  0.89430000  0.94130000  1.0 -0.1491777561
C  C1146  1  0.14430000  0.00850000  0.69130000  1.0 0.002215872
C  C1147  1  0.70820000  0.59490000  0.45212000  1.0 -0.1401683215
C  C1148  1  0.15510000  0.95820000  0.70212000  1.0 -0.1192279522
C  C1149  1  0.29180000  0.90510000  0.45212000  1.0 -0.1299770603
C  C1150  1  0.34490000  0.04180000  0.20212000  1.0 -0.1299770603
C  C1151  1  0.70820000  0.40510000  0.04788000  1.0 -0.1401683215
C  C1152  1  0.79180000  0.59490000  0.54788000  1.0 -0.1299770603
C  C1153  1  0.84490000  0.45820000  0.79788000  1.0 -0.1299770603
C  C1154  1  0.15510000  0.04180000  0.79788000  1.0 -0.2095360177
C  C1155  1  0.20820000  0.09490000  0.95212000  1.0 -0.2798334355
C  C1156  1  0.65510000  0.45820000  0.20212000  1.0 -0.1299770603
C  C1157  1  0.79180000  0.40510000  0.95212000  1.0 -0.1401683215
C  C1158  1  0.84490000  0.54180000  0.70212000  1.0 -0.1299770603
C  C1159  1  0.20820000  0.90510000  0.54788000  1.0 -0.1299770603
C  C1160  1  0.29180000  0.09490000  0.04788000  1.0 -0.1401683215
C  C1161  1  0.34490000  0.95820000  0.29788000  1.0 -0.1299770603
C  C1162  1  0.65510000  0.54180000  0.29788000  1.0 -0.1299770603
C  C1163  1  0.29180000  0.40510000  0.54788000  1.0 -0.0888406341
C  C1164  1  0.34490000  0.54180000  0.79788000  1.0 -0.1299770603
C  C1165  1  0.70820000  0.09490000  0.54788000  1.0 -0.1299770603
C  C1166  1  0.15510000  0.45820000  0.29788000  1.0 -0.1192279522
C  C1167  1  0.29180000  0.59490000  0.95212000  1.0 -0.1299770603
C  C1168  1  0.20820000  0.40510000  0.45212000  1.0 -0.1299770603
C  C1169  1  0.65510000  0.04180000  0.70212000  1.0 -0.1299770603
C  C1170  1  0.34490000  0.45820000  0.70212000  1.0 -0.2715497983
C  C1171  1  0.79180000  0.90510000  0.04788000  1.0 -0.1299770603
C  C1172  1  0.34490000  0.04180000  0.79788000  1.0 -0.1708846832
C  C1173  1  0.20820000  0.59490000  0.04788000  1.0 -0.1299770603
C  C1174  1  0.15510000  0.45820000  0.79788000  1.0 -0.3214784698
C  C1175  1  0.79180000  0.09490000  0.45212000  1.0 -0.1299770603
C  C1176  1  0.70820000  0.90510000  0.95212000  1.0 -0.1299770603
C  C1177  1  0.15510000  0.04180000  0.70212000  1.0 -0.2095360177
C  C1178  1  0.77810000  0.51300000  0.41900000  1.0 -0.4294079164
C  C1179  1  0.23700000  0.02810000  0.66900000  1.0 -0.2095360177
C  C1180  1  0.22190000  0.98700000  0.41900000  1.0 -0.4382325583
C  C1181  1  0.26300000  0.97190000  0.16900000  1.0 -0.4202381655
C  C1182  1  0.77810000  0.48700000  0.08100000  1.0 -0.4382325583
C  C1183  1  0.72190000  0.51300000  0.58100000  1.0 -0.4382325583
C  C1184  1  0.76300000  0.52810000  0.83100000  1.0 -0.4202381655
C  C1185  1  0.23700000  0.97190000  0.83100000  1.0 -0.2306746947
C  C1186  1  0.27810000  0.01300000  0.91900000  1.0 -0.3794708432
C  C1187  1  0.73700000  0.52810000  0.16900000  1.0 -0.4202381655
C  C1188  1  0.72190000  0.48700000  0.91900000  1.0 -0.4294079164
C  C1189  1  0.76300000  0.47190000  0.66900000  1.0 -0.4382325583
C  C1190  1  0.27810000  0.98700000  0.58100000  1.0 -0.4508744915
C  C1191  1  0.22190000  0.01300000  0.08100000  1.0 -0.4294079164
C  C1192  1  0.26300000  0.02810000  0.33100000  1.0 -0.4382325583
C  C1193  1  0.73700000  0.47190000  0.33100000  1.0 -0.4202381655
C  C1194  1  0.22190000  0.48700000  0.58100000  1.0 -0.4508744915
C  C1195  1  0.26300000  0.47190000  0.83100000  1.0 -0.361450802
C  C1196  1  0.77810000  0.01300000  0.58100000  1.0 -0.4382325583
C  C1197  1  0.23700000  0.52810000  0.33100000  1.0 -0.4294079164
C  C1198  1  0.22190000  0.51300000  0.91900000  1.0 -0.4294079164
C  C1199  1  0.27810000  0.48700000  0.41900000  1.0 -0.4382325583
C  C1200  1  0.73700000  0.97190000  0.66900000  1.0 -0.4294079164
C  C1201  1  0.26300000  0.52810000  0.66900000  1.0 -0.4294079164
C  C1202  1  0.72190000  0.98700000  0.08100000  1.0 -0.4294079164
C  C1203  1  0.26300000  0.97190000  0.83100000  1.0 -0.2306746947
C  C1204  1  0.27810000  0.51300000  0.08100000  1.0 -0.4382325583
C  C1205  1  0.23700000  0.52810000  0.83100000  1.0 -0.2715497983
C  C1206  1  0.72190000  0.01300000  0.41900000  1.0 -0.4382325583
C  C1207  1  0.77810000  0.98700000  0.91900000  1.0 -0.4294079164
C  C1208  1  0.23700000  0.97190000  0.66900000  1.0 -0.1992477047
C  C1209  1  0.75570000  0.64390000  0.44410000  1.0 0.5718607581
C  C1210  1  0.10610000  0.00570000  0.69410000  1.0 0.3094920201
C  C1211  1  0.24430000  0.85610000  0.44410000  1.0 0.5718607581
C  C1212  1  0.39390000  0.99430000  0.19410000  1.0 0.5809171861
C  C1213  1  0.75570000  0.35610000  0.05590000  1.0 0.5718607581
C  C1214  1  0.74430000  0.64390000  0.55590000  1.0 0.5718607581
C  C1215  1  0.89390000  0.50570000  0.80590000  1.0 0.5192706628
C  C1216  1  0.10610000  0.99430000  0.80590000  1.0 0.5596607211
C  C1217  1  0.25570000  0.14390000  0.94410000  1.0 0.3305050136
C  C1218  1  0.60610000  0.50570000  0.19410000  1.0 0.5809171861
C  C1219  1  0.74430000  0.35610000  0.94410000  1.0 0.5718607581
C  C1220  1  0.89390000  0.49430000  0.69410000  1.0 0.5596607211
C  C1221  1  0.25570000  0.85610000  0.55590000  1.0 0.5718607581
C  C1222  1  0.24430000  0.14390000  0.05590000  1.0 0.5809171861
C  C1223  1  0.39390000  0.00570000  0.30590000  1.0 0.5718607581
C  C1224  1  0.60610000  0.49430000  0.30590000  1.0 0.5809171861
C  C1225  1  0.24430000  0.35610000  0.55590000  1.0 0.3094920201
C  C1226  1  0.39390000  0.49430000  0.80590000  1.0 0.5529406113
C  C1227  1  0.75570000  0.14390000  0.55590000  1.0 0.5718607581
C  C1228  1  0.10610000  0.50570000  0.30590000  1.0 0.5596607211
C  C1229  1  0.24430000  0.64390000  0.94410000  1.0 0.5718607581
C  C1230  1  0.25570000  0.35610000  0.44410000  1.0 0.5809171861
C  C1231  1  0.60610000  0.99430000  0.69410000  1.0 0.5718607581
C  C1232  1  0.39390000  0.50570000  0.69410000  1.0 0.5718607581
C  C1233  1  0.74430000  0.85610000  0.05590000  1.0 0.5718607581
C  C1234  1  0.39390000  0.99430000  0.80590000  1.0 0.2894668721
C  C1235  1  0.25570000  0.64390000  0.05590000  1.0 0.5718607581
C  C1236  1  0.10610000  0.50570000  0.80590000  1.0 0.3903978146
C  C1237  1  0.74430000  0.14390000  0.44410000  1.0 0.5718607581
C  C1238  1  0.75570000  0.85610000  0.94410000  1.0 0.5718607581
C  C1239  1  0.10610000  0.99430000  0.69410000  1.0 0.3094920201
C  C1240  1  0.66940000  0.51230000  0.48070000  1.0 -0.0795118742
C  C1241  1  0.23770000  0.91940000  0.73070000  1.0 -0.0397310453
C  C1242  1  0.33060000  0.98770000  0.48070000  1.0 -0.0888406341
C  C1243  1  0.26230000  0.08060000  0.23070000  1.0 -0.0888406341
C  C1244  1  0.66940000  0.48770000  0.01930000  1.0 -0.0795118742
C  C1245  1  0.83060000  0.51230000  0.51930000  1.0 -0.0888406341
C  C1246  1  0.76230000  0.41940000  0.76930000  1.0 -0.0888406341
C  C1247  1  0.23770000  0.08060000  0.76930000  1.0 0.0198361888
C  C1248  1  0.16940000  0.01230000  0.98070000  1.0 -0.0795118742
C  C1249  1  0.73770000  0.41940000  0.23070000  1.0 -0.0699674866
C  C1250  1  0.83060000  0.48770000  0.98070000  1.0 -0.0795118742
C  C1251  1  0.76230000  0.58060000  0.73070000  1.0 -0.0699674866
C  C1252  1  0.16940000  0.98770000  0.51930000  1.0 -0.0888406341
C  C1253  1  0.33060000  0.01230000  0.01930000  1.0 -0.0795118742
C  C1254  1  0.26230000  0.91940000  0.26930000  1.0 -0.0699674866
C  C1255  1  0.73770000  0.58060000  0.26930000  1.0 -0.0699674866
C  C1256  1  0.33060000  0.48770000  0.51930000  1.0 -0.0699674866
C  C1257  1  0.26230000  0.58060000  0.76930000  1.0 -0.0699674866
C  C1258  1  0.66940000  0.01230000  0.51930000  1.0 -0.0888406341
C  C1259  1  0.23770000  0.41940000  0.26930000  1.0 -0.0699674866
C  C1260  1  0.33060000  0.51230000  0.98070000  1.0 -0.0888406341
C  C1261  1  0.16940000  0.48770000  0.48070000  1.0 -0.0888406341
C  C1262  1  0.73770000  0.08060000  0.73070000  1.0 -0.0795118742
C  C1263  1  0.26230000  0.41940000  0.73070000  1.0 0.002215872
C  C1264  1  0.83060000  0.98770000  0.01930000  1.0 -0.0888406341
C  C1265  1  0.26230000  0.08060000  0.76930000  1.0 0.0198361888
C  C1266  1  0.16940000  0.51230000  0.01930000  1.0 -0.0795118742
C  C1267  1  0.23770000  0.41940000  0.76930000  1.0 -0.0213854207
C  C1268  1  0.83060000  0.01230000  0.48070000  1.0 -0.0888406341
C  C1269  1  0.66940000  0.98770000  0.98070000  1.0 -0.0888406341
C  C1270  1  0.23770000  0.08060000  0.73070000  1.0 -0.0504702194
C  C1271  1  0.69230000  0.51120000  0.50193000  1.0 0.1110391165
C  C1272  1  0.23880000  0.94230000  0.75193000  1.0 -0.0093931289
C  C1273  1  0.30770000  0.98880000  0.50193000  1.0 0.1110391165
C  C1274  1  0.26120000  0.05770000  0.25193000  1.0 0.1110391165
C  C1275  1  0.69230000  0.48880000  0.99807000  1.0 0.1110391165
C  C1276  1  0.80770000  0.51120000  0.49807000  1.0 0.1110391165
C  C1277  1  0.76120000  0.44230000  0.74807000  1.0 0.1110391165
C  C1278  1  0.23880000  0.05770000  0.74807000  1.0 0.0290024236
C  C1279  1  0.19230000  0.01120000  0.00193000  1.0 0.1110391165
C  C1280  1  0.73880000  0.44230000  0.25193000  1.0 0.1110391165
C  C1281  1  0.80770000  0.48880000  0.00193000  1.0 0.1110391165
C  C1282  1  0.76120000  0.55770000  0.75193000  1.0 0.1208546254
C  C1283  1  0.19230000  0.98880000  0.49807000  1.0 0.1110391165
C  C1284  1  0.30770000  0.01120000  0.99807000  1.0 0.0890307818
C  C1285  1  0.26120000  0.94230000  0.24807000  1.0 0.1110391165
C  C1286  1  0.73880000  0.55770000  0.24807000  1.0 0.1110391165
C  C1287  1  0.30770000  0.48880000  0.49807000  1.0 0.1005048675
C  C1288  1  0.26120000  0.55770000  0.74807000  1.0 0.0793711115
C  C1289  1  0.69230000  0.01120000  0.49807000  1.0 0.1110391165
C  C1290  1  0.23880000  0.44230000  0.24807000  1.0 0.1110391165
C  C1291  1  0.30770000  0.51120000  0.00193000  1.0 0.1110391165
C  C1292  1  0.19230000  0.48880000  0.50193000  1.0 0.1005048675
C  C1293  1  0.73880000  0.05770000  0.75193000  1.0 0.1110391165
C  C1294  1  0.26120000  0.44230000  0.75193000  1.0 0.0710296364
C  C1295  1  0.80770000  0.98880000  0.99807000  1.0 0.1110391165
C  C1296  1  0.26120000  0.05770000  0.74807000  1.0 0.0420178119
C  C1297  1  0.19230000  0.51120000  0.99807000  1.0 0.1208546254
C  C1298  1  0.23880000  0.44230000  0.74807000  1.0 0.0710296364
C  C1299  1  0.80770000  0.01120000  0.50193000  1.0 0.1110391165
C  C1300  1  0.69230000  0.98880000  0.00193000  1.0 0.1110391165
C  C1301  1  0.23880000  0.05770000  0.75193000  1.0 0.0420178119
C  C1302  1  0.70250000  0.48050000  0.51400000  1.0 -0.1801726518
C  C1303  1  0.26950000  0.95250000  0.76400000  1.0 -0.312305917
C  C1304  1  0.29750000  0.01950000  0.51400000  1.0 -0.1708846832
C  C1305  1  0.23050000  0.04750000  0.26400000  1.0 -0.1708846832
C  C1306  1  0.70250000  0.51950000  0.98600000  1.0 -0.1801726518
C  C1307  1  0.79750000  0.48050000  0.48600000  1.0 -0.1801726518
C  C1308  1  0.73050000  0.45250000  0.73600000  1.0 -0.1801726518
C  C1309  1  0.26950000  0.04750000  0.73600000  1.0 0.0290024236
C  C1310  1  0.20250000  0.98050000  0.01400000  1.0 -0.1801726518
C  C1311  1  0.76950000  0.45250000  0.26400000  1.0 -0.1708846832
C  C1312  1  0.79750000  0.51950000  0.01400000  1.0 -0.1801726518
C  C1313  1  0.73050000  0.54750000  0.76400000  1.0 -0.1801726518
C  C1314  1  0.20250000  0.01950000  0.48600000  1.0 -0.1708846832
C  C1315  1  0.29750000  0.98050000  0.98600000  1.0 -0.1801726518
C  C1316  1  0.23050000  0.95250000  0.23600000  1.0 -0.1801726518
C  C1317  1  0.76950000  0.54750000  0.23600000  1.0 -0.1708846832
C  C1318  1  0.29750000  0.51950000  0.48600000  1.0 -0.1708846832
C  C1319  1  0.23050000  0.54750000  0.73600000  1.0 -0.2208739476
C  C1320  1  0.70250000  0.98050000  0.48600000  1.0 -0.1708846832
C  C1321  1  0.26950000  0.45250000  0.23600000  1.0 -0.1708846832
C  C1322  1  0.29750000  0.48050000  0.01400000  1.0 -0.1801726518
C  C1323  1  0.20250000  0.51950000  0.51400000  1.0 -0.1801726518
C  C1324  1  0.76950000  0.04750000  0.76400000  1.0 -0.1801726518
C  C1325  1  0.23050000  0.45250000  0.76400000  1.0 -0.0699674866
C  C1326  1  0.79750000  0.01950000  0.98600000  1.0 -0.1708846832
C  C1327  1  0.23050000  0.04750000  0.73600000  1.0 -0.0093931289
C  C1328  1  0.20250000  0.48050000  0.98600000  1.0 -0.1902425891
C  C1329  1  0.26950000  0.45250000  0.73600000  1.0 -0.0594661196
C  C1330  1  0.79750000  0.98050000  0.51400000  1.0 -0.1708846832
C  C1331  1  0.70250000  0.01950000  0.01400000  1.0 -0.1708846832
C  C1332  1  0.26950000  0.04750000  0.76400000  1.0 -0.030941723
C  C1333  1  0.68760000  0.44580000  0.50450000  1.0 -0.0397310453
C  C1334  1  0.30420000  0.93760000  0.75450000  1.0 -0.0504702194
C  C1335  1  0.31240000  0.05420000  0.50450000  1.0 -0.030941723
C  C1336  1  0.19580000  0.06240000  0.25450000  1.0 -0.0213854207
C  C1337  1  0.68760000  0.55420000  0.99550000  1.0 -0.0504702194
C  C1338  1  0.81240000  0.44580000  0.49550000  1.0 -0.0397310453
C  C1339  1  0.69580000  0.43760000  0.74550000  1.0 -0.030941723
C  C1340  1  0.30420000  0.06240000  0.74550000  1.0 0.0290024236
C  C1341  1  0.18760000  0.94580000  0.00450000  1.0 -0.0397310453
C  C1342  1  0.80420000  0.43760000  0.25450000  1.0 -0.0093931289
C  C1343  1  0.81240000  0.55420000  0.00450000  1.0 -0.0504702194
C  C1344  1  0.69580000  0.56240000  0.75450000  1.0 -0.030941723
C  C1345  1  0.18760000  0.05420000  0.49550000  1.0 -0.030941723
C  C1346  1  0.31240000  0.94580000  0.99550000  1.0 -0.0504702194
C  C1347  1  0.19580000  0.93760000  0.24550000  1.0 -0.0213854207
C  C1348  1  0.80420000  0.56240000  0.24550000  1.0 -0.0093931289
C  C1349  1  0.31240000  0.55420000  0.49550000  1.0 -0.0213854207
C  C1350  1  0.19580000  0.56240000  0.74550000  1.0 -0.0504702194
C  C1351  1  0.68760000  0.94580000  0.49550000  1.0 -0.0213854207
C  C1352  1  0.30420000  0.43760000  0.24550000  1.0 -0.0213854207
C  C1353  1  0.31240000  0.44580000  0.00450000  1.0 -0.030941723
C  C1354  1  0.18760000  0.55420000  0.50450000  1.0 -0.030941723
C  C1355  1  0.80420000  0.06240000  0.75450000  1.0 -0.0213854207
C  C1356  1  0.19580000  0.43760000  0.75450000  1.0 0.0890307818
C  C1357  1  0.81240000  0.05420000  0.99550000  1.0 -0.0213854207
C  C1358  1  0.19580000  0.06240000  0.74550000  1.0 0.0890307818
C  C1359  1  0.18760000  0.44580000  0.99550000  1.0 -0.0397310453
C  C1360  1  0.30420000  0.43760000  0.74550000  1.0 0.0793711115
C  C1361  1  0.81240000  0.94580000  0.50450000  1.0 -0.0213854207
C  C1362  1  0.68760000  0.05420000  0.00450000  1.0 -0.0213854207
C  C1363  1  0.30420000  0.06240000  0.75450000  1.0 0.0499194568
C  C1364  1  0.66390000  0.44570000  0.48420000  1.0 -0.1801726518
C  C1365  1  0.30430000  0.91390000  0.73420000  1.0 -0.16000267
C  C1366  1  0.33610000  0.05430000  0.48420000  1.0 -0.1801726518
C  C1367  1  0.19570000  0.08610000  0.23420000  1.0 -0.1801726518
C  C1368  1  0.66390000  0.55430000  0.01580000  1.0 -0.1801726518
C  C1369  1  0.83610000  0.44570000  0.51580000  1.0 -0.1801726518
C  C1370  1  0.69570000  0.41390000  0.76580000  1.0 -0.1902425891
C  C1371  1  0.30430000  0.08610000  0.76580000  1.0 -0.0397310453
C  C1372  1  0.16390000  0.94570000  0.98420000  1.0 -0.1801726518
C  C1373  1  0.80430000  0.41390000  0.23420000  1.0 -0.1708846832
C  C1374  1  0.83610000  0.55430000  0.98420000  1.0 -0.1801726518
C  C1375  1  0.69570000  0.58610000  0.73420000  1.0 -0.1708846832
C  C1376  1  0.16390000  0.05430000  0.51580000  1.0 -0.1801726518
C  C1377  1  0.33610000  0.94570000  0.01580000  1.0 -0.1801726518
C  C1378  1  0.19570000  0.91390000  0.26580000  1.0 -0.1708846832
C  C1379  1  0.80430000  0.58610000  0.26580000  1.0 -0.1708846832
C  C1380  1  0.33610000  0.55430000  0.51580000  1.0 -0.1708846832
C  C1381  1  0.19570000  0.58610000  0.76580000  1.0 -0.2208739476
C  C1382  1  0.66390000  0.94570000  0.51580000  1.0 -0.1801726518
C  C1383  1  0.30430000  0.41390000  0.26580000  1.0 -0.1801726518
C  C1384  1  0.33610000  0.44570000  0.98420000  1.0 -0.1992477047
C  C1385  1  0.16390000  0.55430000  0.48420000  1.0 -0.1801726518
C  C1386  1  0.80430000  0.08610000  0.73420000  1.0 -0.1801726518
C  C1387  1  0.19570000  0.41390000  0.73420000  1.0 -0.1491777561
C  C1388  1  0.83610000  0.05430000  0.01580000  1.0 -0.1801726518
C  C1389  1  0.19570000  0.08610000  0.76580000  1.0 -0.0504702194
C  C1390  1  0.16390000  0.44570000  0.01580000  1.0 -0.1801726518
C  C1391  1  0.30430000  0.41390000  0.76580000  1.0 -0.16000267
C  C1392  1  0.83610000  0.94570000  0.48420000  1.0 -0.1801726518
C  C1393  1  0.66390000  0.05430000  0.98420000  1.0 -0.1801726518
C  C1394  1  0.30430000  0.08610000  0.73420000  1.0 -0.0699674866
C  C1395  1  0.65490000  0.47900000  0.47266000  1.0 0.1110391165
C  C1396  1  0.27100000  0.90490000  0.72266000  1.0 0.1308294164
C  C1397  1  0.34510000  0.02100000  0.47266000  1.0 0.1208546254
C  C1398  1  0.22900000  0.09510000  0.22266000  1.0 0.1208546254
C  C1399  1  0.65490000  0.52100000  0.02734000  1.0 0.1110391165
C  C1400  1  0.84510000  0.47900000  0.52734000  1.0 0.1208546254
C  C1401  1  0.72900000  0.40490000  0.77734000  1.0 0.1208546254
C  C1402  1  0.27100000  0.09510000  0.77734000  1.0 0.0290024236
C  C1403  1  0.15490000  0.97900000  0.97266000  1.0 0.1110391165
C  C1404  1  0.77100000  0.40490000  0.22266000  1.0 0.1208546254
C  C1405  1  0.84510000  0.52100000  0.97266000  1.0 0.1110391165
C  C1406  1  0.72900000  0.59510000  0.72266000  1.0 0.1110391165
C  C1407  1  0.15490000  0.02100000  0.52734000  1.0 0.1208546254
C  C1408  1  0.34510000  0.97900000  0.02734000  1.0 0.1110391165
C  C1409  1  0.22900000  0.90490000  0.27734000  1.0 0.1208546254
C  C1410  1  0.77100000  0.59510000  0.27734000  1.0 0.1208546254
C  C1411  1  0.34510000  0.52100000  0.52734000  1.0 0.1110391165
C  C1412  1  0.22900000  0.59510000  0.77734000  1.0 0.0793711115
C  C1413  1  0.65490000  0.97900000  0.52734000  1.0 0.1208546254
C  C1414  1  0.27100000  0.40490000  0.27734000  1.0 0.1208546254
C  C1415  1  0.34510000  0.47900000  0.97266000  1.0 0.1208546254
C  C1416  1  0.15490000  0.52100000  0.47266000  1.0 0.1208546254
C  C1417  1  0.77100000  0.09510000  0.72266000  1.0 0.1208546254
C  C1418  1  0.22900000  0.40490000  0.72266000  1.0 -0.0888406341
C  C1419  1  0.84510000  0.02100000  0.02734000  1.0 0.1208546254
C  C1420  1  0.22900000  0.09510000  0.77734000  1.0 0.002215872
C  C1421  1  0.15490000  0.47900000  0.02734000  1.0 0.1308294164
C  C1422  1  0.27100000  0.40490000  0.77734000  1.0 -0.0397310453
C  C1423  1  0.84510000  0.97900000  0.47266000  1.0 0.1208546254
C  C1424  1  0.65490000  0.02100000  0.97266000  1.0 0.1208546254
C  C1425  1  0.27100000  0.09510000  0.72266000  1.0 -0.1101811951
C  C1426  1  0.46490000  0.58620000  0.38721000  1.0 0.5809171861
C  C1427  1  0.16380000  0.71490000  0.63721000  1.0 0.5809171861
C  C1428  1  0.53510000  0.91380000  0.38721000  1.0 0.5809171861
C  C1429  1  0.33620000  0.28510000  0.13721000  1.0 0.5809171861
C  C1430  1  0.46490000  0.41380000  0.11279000  1.0 0.5809171861
C  C1431  1  0.03510000  0.58620000  0.61279000  1.0 0.5809171861
C  C1432  1  0.83620000  0.21490000  0.86279000  1.0 0.5809171861
C  C1433  1  0.16380000  0.28510000  0.86279000  1.0 0.0085699419
C  C1434  1  0.96490000  0.08620000  0.88721000  1.0 0.5809171861
C  C1435  1  0.66380000  0.21490000  0.13721000  1.0 0.5809171861
C  C1436  1  0.03510000  0.41380000  0.88721000  1.0 0.5809171861
C  C1437  1  0.83620000  0.78510000  0.63721000  1.0 0.5809171861
C  C1438  1  0.96490000  0.91380000  0.61279000  1.0 0.5879718483
C  C1439  1  0.53510000  0.08620000  0.11279000  1.0 0.5809171861
C  C1440  1  0.33620000  0.71490000  0.36279000  1.0 0.5809171861
C  C1441  1  0.66380000  0.78510000  0.36279000  1.0 0.5809171861
C  C1442  1  0.53510000  0.41380000  0.61279000  1.0 0.6012446857
C  C1443  1  0.33620000  0.78510000  0.86279000  1.0 0.5809171861
C  C1444  1  0.46490000  0.08620000  0.61279000  1.0 0.5809171861
C  C1445  1  0.16380000  0.21490000  0.36279000  1.0 0.5809171861
C  C1446  1  0.53510000  0.58620000  0.88721000  1.0 0.5879718483
C  C1447  1  0.96490000  0.41380000  0.38721000  1.0 0.5879718483
C  C1448  1  0.66380000  0.28510000  0.63721000  1.0 0.5718607581
C  C1449  1  0.33620000  0.21490000  0.63721000  1.0 0.4357803507
C  C1450  1  0.03510000  0.91380000  0.11279000  1.0 0.6012446857
C  C1451  1  0.33620000  0.28510000  0.86279000  1.0 0.0793711115
C  C1452  1  0.96490000  0.58620000  0.11279000  1.0 0.6012446857
C  C1453  1  0.16380000  0.21490000  0.86279000  1.0 0.0198361888
C  C1454  1  0.03510000  0.08620000  0.38721000  1.0 0.5809171861
C  C1455  1  0.46490000  0.91380000  0.88721000  1.0 0.5879718483
C  C1456  1  0.16380000  0.28510000  0.63721000  1.0 0.1576197571
C  C1457  1  0.46580000  0.54870000  0.39876000  1.0 -0.1101811951
C  C1458  1  0.20130000  0.71580000  0.64876000  1.0 -0.1101811951
C  C1459  1  0.53420000  0.95130000  0.39876000  1.0 -0.1101811951
C  C1460  1  0.29870000  0.28420000  0.14876000  1.0 -0.1101811951
C  C1461  1  0.46580000  0.45130000  0.10124000  1.0 -0.1101811951
C  C1462  1  0.03420000  0.54870000  0.60124000  1.0 -0.1101811951
C  C1463  1  0.79870000  0.21580000  0.85124000  1.0 -0.1101811951
C  C1464  1  0.20130000  0.28420000  0.85124000  1.0 -0.1491777561
C  C1465  1  0.96580000  0.04870000  0.89876000  1.0 -0.1192279522
C  C1466  1  0.70130000  0.21580000  0.14876000  1.0 -0.1101811951
C  C1467  1  0.03420000  0.45130000  0.89876000  1.0 -0.1491777561
C  C1468  1  0.79870000  0.78420000  0.64876000  1.0 -0.1101811951
C  C1469  1  0.96580000  0.95130000  0.60124000  1.0 -0.1192279522
C  C1470  1  0.53420000  0.04870000  0.10124000  1.0 -0.1101811951
C  C1471  1  0.29870000  0.71580000  0.35124000  1.0 -0.1101811951
C  C1472  1  0.70130000  0.78420000  0.35124000  1.0 -0.1101811951
C  C1473  1  0.53420000  0.45130000  0.60124000  1.0 -0.1299770603
C  C1474  1  0.29870000  0.78420000  0.85124000  1.0 -0.1101811951
C  C1475  1  0.46580000  0.04870000  0.60124000  1.0 -0.1101811951
C  C1476  1  0.20130000  0.21580000  0.35124000  1.0 -0.1101811951
C  C1477  1  0.53420000  0.54870000  0.89876000  1.0 -0.1192279522
C  C1478  1  0.96580000  0.45130000  0.39876000  1.0 -0.1101811951
C  C1479  1  0.70130000  0.28420000  0.64876000  1.0 -0.1192279522
C  C1480  1  0.29870000  0.21580000  0.64876000  1.0 -0.2798334355
C  C1481  1  0.03420000  0.95130000  0.10124000  1.0 -0.1101811951
C  C1482  1  0.29870000  0.28420000  0.85124000  1.0 -0.1491777561
C  C1483  1  0.96580000  0.54870000  0.10124000  1.0 -0.1101811951
C  C1484  1  0.20130000  0.21580000  0.85124000  1.0 -0.2405234429
C  C1485  1  0.03420000  0.04870000  0.39876000  1.0 -0.1101811951
C  C1486  1  0.46580000  0.95130000  0.89876000  1.0 -0.1299770603
C  C1487  1  0.20130000  0.28420000  0.64876000  1.0 -0.1491777561
C  C1488  1  0.49260000  0.53880000  0.41814000  1.0 0.3305050136
C  C1489  1  0.21120000  0.74260000  0.66814000  1.0 0.3305050136
C  C1490  1  0.50740000  0.96120000  0.41814000  1.0 0.3305050136
C  C1491  1  0.28880000  0.25740000  0.16814000  1.0 0.3305050136
C  C1492  1  0.49260000  0.46120000  0.08186000  1.0 0.3305050136
C  C1493  1  0.00740000  0.53880000  0.58186000  1.0 0.3305050136
C  C1494  1  0.78880000  0.24260000  0.83186000  1.0 0.3305050136
C  C1495  1  0.21120000  0.25740000  0.83186000  1.0 0.1110391165
C  C1496  1  0.99260000  0.03880000  0.91814000  1.0 0.3305050136
C  C1497  1  0.71120000  0.24260000  0.16814000  1.0 0.3207569662
C  C1498  1  0.00740000  0.46120000  0.91814000  1.0 0.3392998376
C  C1499  1  0.78880000  0.75740000  0.66814000  1.0 0.3207569662
C  C1500  1  0.99260000  0.96120000  0.58186000  1.0 0.3392998376
C  C1501  1  0.50740000  0.03880000  0.08186000  1.0 0.3305050136
C  C1502  1  0.28880000  0.74260000  0.33186000  1.0 0.3207569662
C  C1503  1  0.71120000  0.75740000  0.33186000  1.0 0.3207569662
C  C1504  1  0.50740000  0.46120000  0.58186000  1.0 0.3392998376
C  C1505  1  0.28880000  0.75740000  0.83186000  1.0 0.3305050136
C  C1506  1  0.49260000  0.03880000  0.58186000  1.0 0.3305050136
C  C1507  1  0.21120000  0.24260000  0.33186000  1.0 0.3305050136
C  C1508  1  0.50740000  0.53880000  0.91814000  1.0 0.3305050136
C  C1509  1  0.99260000  0.46120000  0.41814000  1.0 0.3305050136
C  C1510  1  0.71120000  0.25740000  0.66814000  1.0 0.3305050136
C  C1511  1  0.28880000  0.24260000  0.66814000  1.0 0.1901884569
C  C1512  1  0.00740000  0.96120000  0.08186000  1.0 0.3305050136
C  C1513  1  0.28880000  0.25740000  0.83186000  1.0 0.0890307818
C  C1514  1  0.99260000  0.53880000  0.08186000  1.0 0.3305050136
C  C1515  1  0.21120000  0.24260000  0.83186000  1.0 0.1576197571
C  C1516  1  0.00740000  0.03880000  0.41814000  1.0 0.3305050136
C  C1517  1  0.49260000  0.96120000  0.91814000  1.0 0.3305050136
C  C1518  1  0.21120000  0.25740000  0.66814000  1.0 0.0710296364
C  C1519  1  0.49100000  0.50150000  0.42743000  1.0 0.0793711115
C  C1520  1  0.24850000  0.74100000  0.67743000  1.0 0.0793711115
C  C1521  1  0.50900000  0.99850000  0.42743000  1.0 0.0793711115
C  C1522  1  0.25150000  0.25900000  0.17743000  1.0 0.0793711115
C  C1523  1  0.49100000  0.49850000  0.07257000  1.0 0.0793711115
C  C1524  1  0.00900000  0.50150000  0.57257000  1.0 0.0793711115
C  C1525  1  0.75150000  0.24100000  0.82257000  1.0 0.0793711115
C  C1526  1  0.24850000  0.25900000  0.82257000  1.0 0.0420178119
C  C1527  1  0.99100000  0.00150000  0.92743000  1.0 0.0710296364
C  C1528  1  0.74850000  0.24100000  0.17743000  1.0 0.0710296364
C  C1529  1  0.00900000  0.49850000  0.92743000  1.0 0.0710296364
C  C1530  1  0.75150000  0.75900000  0.67743000  1.0 0.0710296364
C  C1531  1  0.99100000  0.99850000  0.57257000  1.0 0.0793711115
C  C1532  1  0.50900000  0.00150000  0.07257000  1.0 0.0793711115
C  C1533  1  0.25150000  0.74100000  0.32257000  1.0 0.0710296364
C  C1534  1  0.74850000  0.75900000  0.32257000  1.0 0.0710296364
C  C1535  1  0.50900000  0.49850000  0.57257000  1.0 0.0710296364
C  C1536  1  0.25150000  0.75900000  0.82257000  1.0 0.0793711115
C  C1537  1  0.49100000  0.00150000  0.57257000  1.0 0.0793711115
C  C1538  1  0.24850000  0.24100000  0.32257000  1.0 0.0793711115
C  C1539  1  0.50900000  0.50150000  0.92743000  1.0 0.0793711115
C  C1540  1  0.99100000  0.49850000  0.42743000  1.0 0.0793711115
C  C1541  1  0.74850000  0.25900000  0.67743000  1.0 0.0793711115
C  C1542  1  0.25150000  0.24100000  0.67743000  1.0 0.0420178119
C  C1543  1  0.00900000  0.99850000  0.07257000  1.0 0.0793711115
C  C1544  1  0.25150000  0.25900000  0.82257000  1.0 0.0420178119
C  C1545  1  0.99100000  0.50150000  0.07257000  1.0 0.0793711115
C  C1546  1  0.24850000  0.24100000  0.82257000  1.0 0.0420178119
C  C1547  1  0.00900000  0.00150000  0.42743000  1.0 0.0793711115
C  C1548  1  0.49100000  0.99850000  0.92743000  1.0 0.0793711115
C  C1549  1  0.24850000  0.25900000  0.67743000  1.0 0.0420178119
C  C1550  1  0.46480000  0.47860000  0.41984000  1.0 -0.1801726518
C  C1551  1  0.27140000  0.71480000  0.66984000  1.0 -0.1902425891
C  C1552  1  0.53520000  0.02140000  0.41984000  1.0 -0.1801726518
C  C1553  1  0.22860000  0.28520000  0.16984000  1.0 -0.1801726518
C  C1554  1  0.46480000  0.52140000  0.08016000  1.0 -0.1801726518
C  C1555  1  0.03520000  0.47860000  0.58016000  1.0 -0.1902425891
C  C1556  1  0.72860000  0.21480000  0.83016000  1.0 -0.1801726518
C  C1557  1  0.27140000  0.28520000  0.83016000  1.0 -0.0397310453
C  C1558  1  0.96480000  0.97860000  0.91984000  1.0 -0.1801726518
C  C1559  1  0.77140000  0.21480000  0.16984000  1.0 -0.1708846832
C  C1560  1  0.03520000  0.52140000  0.91984000  1.0 -0.1902425891
C  C1561  1  0.72860000  0.78520000  0.66984000  1.0 -0.1708846832
C  C1562  1  0.96480000  0.02140000  0.58016000  1.0 -0.1708846832
C  C1563  1  0.53520000  0.97860000  0.08016000  1.0 -0.1801726518
C  C1564  1  0.22860000  0.71480000  0.33016000  1.0 -0.1708846832
C  C1565  1  0.77140000  0.78520000  0.33016000  1.0 -0.1708846832
C  C1566  1  0.53520000  0.52140000  0.58016000  1.0 -0.1801726518
C  C1567  1  0.22860000  0.78520000  0.83016000  1.0 -0.1902425891
C  C1568  1  0.46480000  0.97860000  0.58016000  1.0 -0.1801726518
C  C1569  1  0.27140000  0.21480000  0.33016000  1.0 -0.1801726518
C  C1570  1  0.53520000  0.47860000  0.91984000  1.0 -0.1902425891
C  C1571  1  0.96480000  0.52140000  0.41984000  1.0 -0.1801726518
C  C1572  1  0.77140000  0.28520000  0.66984000  1.0 -0.1902425891
C  C1573  1  0.22860000  0.21480000  0.66984000  1.0 -0.0594661196
C  C1574  1  0.03520000  0.02140000  0.08016000  1.0 -0.1801726518
C  C1575  1  0.22860000  0.28520000  0.83016000  1.0 -0.030941723
C  C1576  1  0.96480000  0.47860000  0.08016000  1.0 -0.1801726518
C  C1577  1  0.27140000  0.21480000  0.83016000  1.0 -0.030941723
C  C1578  1  0.03520000  0.97860000  0.41984000  1.0 -0.1801726518
C  C1579  1  0.46480000  0.02140000  0.91984000  1.0 -0.1801726518
C  C1580  1  0.27140000  0.28520000  0.66984000  1.0 -0.0397310453
C  C1581  1  0.43860000  0.48740000  0.40083000  1.0 0.0592408112
C  C1582  1  0.26260000  0.68860000  0.65083000  1.0 0.0592408112
C  C1583  1  0.56140000  0.01260000  0.40083000  1.0 0.0592408112
C  C1584  1  0.23740000  0.31140000  0.15083000  1.0 0.0592408112
C  C1585  1  0.43860000  0.51260000  0.09917000  1.0 0.0592408112
C  C1586  1  0.06140000  0.48740000  0.59917000  1.0 0.0592408112
C  C1587  1  0.73740000  0.18860000  0.84917000  1.0 0.0592408112
C  C1588  1  0.26260000  0.31140000  0.84917000  1.0 0.0198361888
C  C1589  1  0.93860000  0.98740000  0.90083000  1.0 0.0592408112
C  C1590  1  0.76260000  0.18860000  0.15083000  1.0 0.0592408112
C  C1591  1  0.06140000  0.51260000  0.90083000  1.0 0.0499194568
C  C1592  1  0.73740000  0.81140000  0.65083000  1.0 0.0592408112
C  C1593  1  0.93860000  0.01260000  0.59917000  1.0 0.0592408112
C  C1594  1  0.56140000  0.98740000  0.09917000  1.0 0.0592408112
C  C1595  1  0.23740000  0.68860000  0.34917000  1.0 0.0592408112
C  C1596  1  0.76260000  0.81140000  0.34917000  1.0 0.0592408112
C  C1597  1  0.56140000  0.51260000  0.59917000  1.0 0.0592408112
C  C1598  1  0.23740000  0.81140000  0.84917000  1.0 0.0592408112
C  C1599  1  0.43860000  0.98740000  0.59917000  1.0 0.0592408112
C  C1600  1  0.26260000  0.18860000  0.34917000  1.0 0.0592408112
C  C1601  1  0.56140000  0.48740000  0.90083000  1.0 0.0592408112
C  C1602  1  0.93860000  0.51260000  0.40083000  1.0 0.0592408112
C  C1603  1  0.76260000  0.31140000  0.65083000  1.0 0.0592408112
C  C1604  1  0.23740000  0.18860000  0.65083000  1.0 -0.1005984017
C  C1605  1  0.06140000  0.01260000  0.09917000  1.0 0.0592408112
C  C1606  1  0.23740000  0.31140000  0.84917000  1.0 -0.0093931289
C  C1607  1  0.93860000  0.48740000  0.09917000  1.0 0.0592408112
C  C1608  1  0.26260000  0.18860000  0.84917000  1.0 -0.1708846832
C  C1609  1  0.06140000  0.98740000  0.40083000  1.0 0.0592408112
C  C1610  1  0.43860000  0.01260000  0.90083000  1.0 0.0592408112
C  C1611  1  0.26260000  0.31140000  0.65083000  1.0 -0.1192279522
C  C1612  1  0.44120000  0.52470000  0.39044000  1.0 -0.1192279522
C  C1613  1  0.22530000  0.69120000  0.64044000  1.0 -0.1192279522
C  C1614  1  0.55880000  0.97530000  0.39044000  1.0 -0.1192279522
C  C1615  1  0.27470000  0.30880000  0.14044000  1.0 -0.1192279522
C  C1616  1  0.44120000  0.47530000  0.10956000  1.0 -0.1192279522
C  C1617  1  0.05880000  0.52470000  0.60956000  1.0 -0.1192279522
C  C1618  1  0.77470000  0.19120000  0.85956000  1.0 -0.1192279522
C  C1619  1  0.22530000  0.30880000  0.85956000  1.0 0.0085699419
C  C1620  1  0.94120000  0.02470000  0.89044000  1.0 -0.1192279522
C  C1621  1  0.72530000  0.19120000  0.14044000  1.0 -0.1101811951
C  C1622  1  0.05880000  0.47530000  0.89044000  1.0 -0.1192279522
C  C1623  1  0.77470000  0.80880000  0.64044000  1.0 -0.1101811951
C  C1624  1  0.94120000  0.97530000  0.60956000  1.0 -0.1299770603
C  C1625  1  0.55880000  0.02470000  0.10956000  1.0 -0.1192279522
C  C1626  1  0.27470000  0.69120000  0.35956000  1.0 -0.1101811951
C  C1627  1  0.72530000  0.80880000  0.35956000  1.0 -0.1101811951
C  C1628  1  0.55880000  0.47530000  0.60956000  1.0 -0.1192279522
C  C1629  1  0.27470000  0.80880000  0.85956000  1.0 -0.1192279522
C  C1630  1  0.44120000  0.02470000  0.60956000  1.0 -0.1192279522
C  C1631  1  0.22530000  0.19120000  0.35956000  1.0 -0.1192279522
C  C1632  1  0.55880000  0.52470000  0.89044000  1.0 -0.1192279522
C  C1633  1  0.94120000  0.47530000  0.39044000  1.0 -0.1192279522
C  C1634  1  0.72530000  0.30880000  0.64044000  1.0 -0.1192279522
C  C1635  1  0.27470000  0.19120000  0.64044000  1.0 -0.1992477047
C  C1636  1  0.05880000  0.97530000  0.10956000  1.0 -0.1101811951
C  C1637  1  0.27470000  0.30880000  0.85956000  1.0 -0.0397310453
C  C1638  1  0.94120000  0.52470000  0.10956000  1.0 -0.1192279522
C  C1639  1  0.22530000  0.19120000  0.85956000  1.0 -0.0888406341
C  C1640  1  0.05880000  0.02470000  0.39044000  1.0 -0.1192279522
C  C1641  1  0.44120000  0.97530000  0.89044000  1.0 -0.1101811951
C  C1642  1  0.22530000  0.30880000  0.64044000  1.0 -0.2208739476
C  C1643  1  0.52060000  0.49030000  0.44650000  1.0 -0.4202381655
C  C1644  1  0.25970000  0.77060000  0.69650000  1.0 -0.4202381655
C  C1645  1  0.47940000  0.00970000  0.44650000  1.0 -0.4202381655
C  C1646  1  0.24030000  0.22940000  0.19650000  1.0 -0.4202381655
C  C1647  1  0.52060000  0.50970000  0.05350000  1.0 -0.4202381655
C  C1648  1  0.97940000  0.49030000  0.55350000  1.0 -0.4202381655
C  C1649  1  0.74030000  0.27060000  0.80350000  1.0 -0.4202381655
C  C1650  1  0.25970000  0.22940000  0.80350000  1.0 -0.1005984017
C  C1651  1  0.02060000  0.99030000  0.94650000  1.0 -0.4202381655
C  C1652  1  0.75970000  0.27060000  0.19650000  1.0 -0.4010052265
C  C1653  1  0.97940000  0.50970000  0.94650000  1.0 -0.4294079164
C  C1654  1  0.74030000  0.72940000  0.69650000  1.0 -0.4010052265
C  C1655  1  0.02060000  0.00970000  0.55350000  1.0 -0.4202381655
C  C1656  1  0.47940000  0.99030000  0.05350000  1.0 -0.4202381655
C  C1657  1  0.24030000  0.77060000  0.30350000  1.0 -0.4010052265
C  C1658  1  0.75970000  0.72940000  0.30350000  1.0 -0.4117549535
C  C1659  1  0.47940000  0.50970000  0.55350000  1.0 -0.4294079164
C  C1660  1  0.24030000  0.72940000  0.80350000  1.0 -0.4202381655
C  C1661  1  0.52060000  0.99030000  0.55350000  1.0 -0.4202381655
C  C1662  1  0.25970000  0.27060000  0.30350000  1.0 -0.4202381655
C  C1663  1  0.47940000  0.49030000  0.94650000  1.0 -0.4202381655
C  C1664  1  0.02060000  0.50970000  0.44650000  1.0 -0.4202381655
C  C1665  1  0.75970000  0.22940000  0.69650000  1.0 -0.4202381655
C  C1666  1  0.24030000  0.27060000  0.69650000  1.0 -0.1902425891
C  C1667  1  0.97940000  0.00970000  0.05350000  1.0 -0.4202381655
C  C1668  1  0.24030000  0.22940000  0.80350000  1.0 -0.1192279522
C  C1669  1  0.02060000  0.49030000  0.05350000  1.0 -0.4202381655
C  C1670  1  0.25970000  0.27060000  0.80350000  1.0 -0.0795118742
C  C1671  1  0.97940000  0.99030000  0.44650000  1.0 -0.4202381655
C  C1672  1  0.52060000  0.00970000  0.94650000  1.0 -0.4202381655
C  C1673  1  0.25970000  0.22940000  0.69650000  1.0 -0.16000267
C  C1674  1  0.41050000  0.46430000  0.39452000  1.0 -0.0020969194
C  C1675  1  0.28570000  0.66050000  0.64452000  1.0 -0.0020969194
C  C1676  1  0.58950000  0.03570000  0.39452000  1.0 0.002215872
C  C1677  1  0.21430000  0.33950000  0.14452000  1.0 -0.0093931289
C  C1678  1  0.41050000  0.53570000  0.10548000  1.0 0.002215872
C  C1679  1  0.08950000  0.46430000  0.60548000  1.0 -0.0093931289
C  C1680  1  0.71430000  0.16050000  0.85548000  1.0 -0.0093931289
C  C1681  1  0.28570000  0.33950000  0.85548000  1.0 -0.0888406341
C  C1682  1  0.91050000  0.96430000  0.89452000  1.0 -0.0020969194
C  C1683  1  0.78570000  0.16050000  0.14452000  1.0 0.002215872
C  C1684  1  0.08950000  0.53570000  0.89452000  1.0 0.0085699419
C  C1685  1  0.71430000  0.83950000  0.64452000  1.0 0.0085699419
C  C1686  1  0.91050000  0.03570000  0.60548000  1.0 0.002215872
C  C1687  1  0.58950000  0.96430000  0.10548000  1.0 0.002215872
C  C1688  1  0.21430000  0.66050000  0.35548000  1.0 0.0085699419
C  C1689  1  0.78570000  0.83950000  0.35548000  1.0 0.002215872
C  C1690  1  0.58950000  0.53570000  0.60548000  1.0 -0.0093931289
C  C1691  1  0.21430000  0.83950000  0.85548000  1.0 0.002215872
C  C1692  1  0.41050000  0.96430000  0.60548000  1.0 -0.0093931289
C  C1693  1  0.28570000  0.16050000  0.35548000  1.0 -0.0020969194
C  C1694  1  0.58950000  0.46430000  0.89452000  1.0 -0.0020969194
C  C1695  1  0.91050000  0.53570000  0.39452000  1.0 -0.0020969194
C  C1696  1  0.78570000  0.33950000  0.64452000  1.0 -0.0093931289
C  C1697  1  0.21430000  0.16050000  0.64452000  1.0 -0.0093931289
C  C1698  1  0.08950000  0.03570000  0.10548000  1.0 -0.0020969194
C  C1699  1  0.21430000  0.33950000  0.85548000  1.0 -0.0699674866
C  C1700  1  0.91050000  0.46430000  0.10548000  1.0 -0.0020969194
C  C1701  1  0.28570000  0.16050000  0.85548000  1.0 -0.0397310453
C  C1702  1  0.08950000  0.96430000  0.39452000  1.0 -0.0020969194
C  C1703  1  0.41050000  0.03570000  0.89452000  1.0 0.0085699419
C  C1704  1  0.28570000  0.33950000  0.64452000  1.0 -0.0093931289
C  C1705  1  0.38710000  0.46890000  0.37270000  1.0 0.0592408112
C  C1706  1  0.28110000  0.63710000  0.62270000  1.0 0.0592408112
C  C1707  1  0.61290000  0.03110000  0.37270000  1.0 0.0499194568
C  C1708  1  0.21890000  0.36290000  0.12270000  1.0 0.0592408112
C  C1709  1  0.38710000  0.53110000  0.12730000  1.0 0.0499194568
C  C1710  1  0.11290000  0.46890000  0.62730000  1.0 0.0592408112
C  C1711  1  0.71890000  0.13710000  0.87730000  1.0 0.0499194568
C  C1712  1  0.28110000  0.36290000  0.87730000  1.0 -0.1101811951
C  C1713  1  0.88710000  0.96890000  0.87270000  1.0 0.0499194568
C  C1714  1  0.78110000  0.13710000  0.12270000  1.0 0.0499194568
C  C1715  1  0.11290000  0.53110000  0.87270000  1.0 0.0499194568
C  C1716  1  0.71890000  0.86290000  0.62270000  1.0 0.0499194568
C  C1717  1  0.88710000  0.03110000  0.62730000  1.0 0.0793711115
C  C1718  1  0.61290000  0.96890000  0.12730000  1.0 0.0499194568
C  C1719  1  0.21890000  0.63710000  0.37730000  1.0 0.0592408112
C  C1720  1  0.78110000  0.86290000  0.37730000  1.0 0.0592408112
C  C1721  1  0.61290000  0.53110000  0.62730000  1.0 0.0592408112
C  C1722  1  0.21890000  0.86290000  0.87730000  1.0 0.0592408112
C  C1723  1  0.38710000  0.96890000  0.62730000  1.0 0.0592408112
C  C1724  1  0.28110000  0.13710000  0.37730000  1.0 0.0592408112
C  C1725  1  0.61290000  0.46890000  0.87270000  1.0 0.0592408112
C  C1726  1  0.88710000  0.53110000  0.37270000  1.0 0.0592408112
C  C1727  1  0.78110000  0.36290000  0.62270000  1.0 0.0592408112
C  C1728  1  0.21890000  0.13710000  0.62270000  1.0 0.0592408112
C  C1729  1  0.11290000  0.03110000  0.12730000  1.0 0.0592408112
C  C1730  1  0.21890000  0.36290000  0.87730000  1.0 0.0290024236
C  C1731  1  0.88710000  0.46890000  0.12730000  1.0 0.0592408112
C  C1732  1  0.28110000  0.13710000  0.87730000  1.0 0.0499194568
C  C1733  1  0.11290000  0.96890000  0.37270000  1.0 0.0499194568
C  C1734  1  0.38710000  0.03110000  0.87270000  1.0 0.0198361888
C  C1735  1  0.28110000  0.36290000  0.62270000  1.0 0.0710296364
C  C1736  1  0.34930000  0.45750000  0.37406000  1.0 -0.1902425891
C  C1737  1  0.29250000  0.59930000  0.62406000  1.0 -0.1902425891
C  C1738  1  0.65070000  0.04250000  0.37406000  1.0 -0.1902425891
C  C1739  1  0.20750000  0.40070000  0.12406000  1.0 -0.1992477047
C  C1740  1  0.34930000  0.54250000  0.12594000  1.0 -0.1902425891
C  C1741  1  0.15070000  0.45750000  0.62594000  1.0 -0.1801726518
C  C1742  1  0.70750000  0.09930000  0.87594000  1.0 -0.1902425891
C  C1743  1  0.29250000  0.40070000  0.87594000  1.0 -0.2715497983
C  C1744  1  0.84930000  0.95750000  0.87406000  1.0 -0.1902425891
C  C1745  1  0.79250000  0.09930000  0.12406000  1.0 -0.1902425891
C  C1746  1  0.15070000  0.54250000  0.87406000  1.0 -0.2798334355
C  C1747  1  0.70750000  0.90070000  0.62406000  1.0 -0.1902425891
C  C1748  1  0.84930000  0.04250000  0.62594000  1.0 -0.1801726518
C  C1749  1  0.65070000  0.95750000  0.12594000  1.0 -0.1902425891
C  C1750  1  0.20750000  0.59930000  0.37594000  1.0 -0.1902425891
C  C1751  1  0.79250000  0.90070000  0.37594000  1.0 -0.1902425891
C  C1752  1  0.65070000  0.54250000  0.62594000  1.0 -0.1801726518
C  C1753  1  0.20750000  0.90070000  0.87594000  1.0 -0.1992477047
C  C1754  1  0.34930000  0.95750000  0.62594000  1.0 -0.1902425891
C  C1755  1  0.29250000  0.09930000  0.37594000  1.0 -0.1902425891
C  C1756  1  0.65070000  0.45750000  0.87406000  1.0 -0.1902425891
C  C1757  1  0.84930000  0.54250000  0.37406000  1.0 -0.1902425891
C  C1758  1  0.79250000  0.40070000  0.62406000  1.0 -0.1902425891
C  C1759  1  0.20750000  0.09930000  0.62406000  1.0 -0.0795118742
C  C1760  1  0.15070000  0.04250000  0.12594000  1.0 -0.1902425891
C  C1761  1  0.20750000  0.40070000  0.87594000  1.0 -0.1005984017
C  C1762  1  0.84930000  0.45750000  0.12594000  1.0 -0.1902425891
C  C1763  1  0.29250000  0.09930000  0.87594000  1.0 -0.1491777561
C  C1764  1  0.15070000  0.95750000  0.37406000  1.0 -0.1902425891
C  C1765  1  0.34930000  0.04250000  0.87406000  1.0 -0.1992477047
C  C1766  1  0.29250000  0.40070000  0.62406000  1.0 -0.1005984017
C  C1767  1  0.32560000  0.45990000  0.35406000  1.0 0.0793711115
C  C1768  1  0.29010000  0.57560000  0.60406000  1.0 0.0793711115
C  C1769  1  0.67440000  0.04010000  0.35406000  1.0 0.0793711115
C  C1770  1  0.20990000  0.42440000  0.10406000  1.0 0.0793711115
C  C1771  1  0.32560000  0.54010000  0.14594000  1.0 0.0710296364
C  C1772  1  0.17440000  0.45990000  0.64594000  1.0 0.0793711115
C  C1773  1  0.70990000  0.07560000  0.89594000  1.0 0.0710296364
C  C1774  1  0.29010000  0.42440000  0.89594000  1.0 0.0085699419
C  C1775  1  0.82560000  0.95990000  0.85406000  1.0 0.0710296364
C  C1776  1  0.79010000  0.07560000  0.10406000  1.0 0.0793711115
C  C1777  1  0.17440000  0.54010000  0.85406000  1.0 0.1208546254
C  C1778  1  0.70990000  0.92440000  0.60406000  1.0 0.0793711115
C  C1779  1  0.82560000  0.04010000  0.64594000  1.0 0.0793711115
C  C1780  1  0.67440000  0.95990000  0.14594000  1.0 0.0793711115
C  C1781  1  0.20990000  0.57560000  0.39594000  1.0 0.0793711115
C  C1782  1  0.79010000  0.92440000  0.39594000  1.0 0.0793711115
C  C1783  1  0.67440000  0.54010000  0.64594000  1.0 0.0793711115
C  C1784  1  0.20990000  0.92440000  0.89594000  1.0 0.0710296364
C  C1785  1  0.32560000  0.95990000  0.64594000  1.0 0.0793711115
C  C1786  1  0.29010000  0.07560000  0.39594000  1.0 0.0793711115
C  C1787  1  0.67440000  0.45990000  0.85406000  1.0 0.0710296364
C  C1788  1  0.82560000  0.54010000  0.35406000  1.0 0.0793711115
C  C1789  1  0.79010000  0.42440000  0.60406000  1.0 0.0793711115
C  C1790  1  0.20990000  0.07560000  0.60406000  1.0 -0.1005984017
C  C1791  1  0.17440000  0.04010000  0.14594000  1.0 0.0793711115
C  C1792  1  0.20990000  0.42440000  0.89594000  1.0 -0.0699674866
C  C1793  1  0.82560000  0.45990000  0.14594000  1.0 0.0793711115
C  C1794  1  0.29010000  0.07560000  0.89594000  1.0 -0.0397310453
C  C1795  1  0.17440000  0.95990000  0.35406000  1.0 0.0793711115
C  C1796  1  0.32560000  0.04010000  0.85406000  1.0 -0.0699674866
C  C1797  1  0.29010000  0.42440000  0.60406000  1.0 -0.1005984017
C  C1798  1  0.33920000  0.47290000  0.33084000  1.0 0.2115324739
C  C1799  1  0.27710000  0.58920000  0.58084000  1.0 0.2185030944
C  C1800  1  0.66080000  0.02710000  0.33084000  1.0 0.2185030944
C  C1801  1  0.22290000  0.41080000  0.08084000  1.0 0.2115324739
C  C1802  1  0.33920000  0.52710000  0.16916000  1.0 0.2185030944
C  C1803  1  0.16080000  0.47290000  0.66916000  1.0 0.2394748895
C  C1804  1  0.72290000  0.08920000  0.91916000  1.0 0.2115324739
C  C1805  1  0.27710000  0.41080000  0.91916000  1.0 0.0420178119
C  C1806  1  0.83920000  0.97290000  0.83084000  1.0 0.2185030944
C  C1807  1  0.77710000  0.08920000  0.08084000  1.0 0.2115324739
C  C1808  1  0.16080000  0.52710000  0.83084000  1.0 0.1208546254
C  C1809  1  0.72290000  0.91080000  0.58084000  1.0 0.2115324739
C  C1810  1  0.83920000  0.02710000  0.66916000  1.0 0.229076173
C  C1811  1  0.66080000  0.97290000  0.16916000  1.0 0.2185030944
C  C1812  1  0.22290000  0.58920000  0.41916000  1.0 0.2115324739
C  C1813  1  0.77710000  0.91080000  0.41916000  1.0 0.2115324739
C  C1814  1  0.66080000  0.52710000  0.66916000  1.0 0.229076173
C  C1815  1  0.22290000  0.91080000  0.91916000  1.0 0.2115324739
C  C1816  1  0.33920000  0.97290000  0.66916000  1.0 0.2115324739
C  C1817  1  0.27710000  0.08920000  0.41916000  1.0 0.2115324739
C  C1818  1  0.66080000  0.47290000  0.83084000  1.0 0.2115324739
C  C1819  1  0.83920000  0.52710000  0.33084000  1.0 0.2185030944
C  C1820  1  0.77710000  0.41080000  0.58084000  1.0 0.2115324739
C  C1821  1  0.22290000  0.08920000  0.58084000  1.0 0.2185030944
C  C1822  1  0.16080000  0.02710000  0.16916000  1.0 0.2115324739
C  C1823  1  0.22290000  0.41080000  0.91916000  1.0 0.0290024236
C  C1824  1  0.83920000  0.47290000  0.16916000  1.0 0.2185030944
C  C1825  1  0.27710000  0.08920000  0.91916000  1.0 0.1208546254
C  C1826  1  0.16080000  0.97290000  0.33084000  1.0 0.2185030944
C  C1827  1  0.33920000  0.02710000  0.83084000  1.0 0.0890307818
C  C1828  1  0.27710000  0.41080000  0.58084000  1.0 0.1005048675
C  C1829  1  0.37590000  0.48320000  0.32831000  1.0 -0.16000267
C  C1830  1  0.26680000  0.62590000  0.57831000  1.0 -0.16000267
C  C1831  1  0.62410000  0.01680000  0.32831000  1.0 -0.1401683215
C  C1832  1  0.23320000  0.37410000  0.07831000  1.0 -0.16000267
C  C1833  1  0.37590000  0.51680000  0.17169000  1.0 -0.1491777561
C  C1834  1  0.12410000  0.48320000  0.67169000  1.0 -0.1708846832
C  C1835  1  0.73320000  0.12590000  0.92169000  1.0 -0.16000267
C  C1836  1  0.26680000  0.37410000  0.92169000  1.0 -0.0594661196
C  C1837  1  0.87590000  0.98320000  0.82831000  1.0 -0.1491777561
C  C1838  1  0.76680000  0.12590000  0.07831000  1.0 -0.16000267
C  C1839  1  0.12410000  0.51680000  0.82831000  1.0 -0.0213854207
C  C1840  1  0.73320000  0.87410000  0.57831000  1.0 -0.16000267
C  C1841  1  0.87590000  0.01680000  0.67169000  1.0 -0.1491777561
C  C1842  1  0.62410000  0.98320000  0.17169000  1.0 -0.1401683215
C  C1843  1  0.23320000  0.62590000  0.42169000  1.0 -0.16000267
C  C1844  1  0.76680000  0.87410000  0.42169000  1.0 -0.16000267
C  C1845  1  0.62410000  0.51680000  0.67169000  1.0 -0.16000267
C  C1846  1  0.23320000  0.87410000  0.92169000  1.0 -0.16000267
C  C1847  1  0.37590000  0.98320000  0.67169000  1.0 -0.1491777561
C  C1848  1  0.26680000  0.12590000  0.42169000  1.0 -0.16000267
C  C1849  1  0.62410000  0.48320000  0.82831000  1.0 -0.1491777561
C  C1850  1  0.87590000  0.51680000  0.32831000  1.0 -0.1401683215
C  C1851  1  0.76680000  0.37410000  0.57831000  1.0 -0.16000267
C  C1852  1  0.23320000  0.12590000  0.57831000  1.0 -0.3400373813
C  C1853  1  0.12410000  0.01680000  0.17169000  1.0 -0.1491777561
C  C1854  1  0.23320000  0.37410000  0.92169000  1.0 -0.0888406341
C  C1855  1  0.87590000  0.48320000  0.17169000  1.0 -0.1401683215
C  C1856  1  0.26680000  0.12590000  0.92169000  1.0 -0.0594661196
C  C1857  1  0.12410000  0.98320000  0.32831000  1.0 -0.1491777561
C  C1858  1  0.37590000  0.01680000  0.82831000  1.0 -0.0888406341
C  C1859  1  0.26680000  0.37410000  0.57831000  1.0 -0.1902425891
C  C1860  1  0.39960000  0.48120000  0.34915000  1.0 -0.1401683215
C  C1861  1  0.26880000  0.64960000  0.59915000  1.0 -0.1299770603
C  C1862  1  0.60040000  0.01880000  0.34915000  1.0 -0.1299770603
C  C1863  1  0.23120000  0.35040000  0.09915000  1.0 -0.1401683215
C  C1864  1  0.39960000  0.51880000  0.15085000  1.0 -0.1299770603
C  C1865  1  0.10040000  0.48120000  0.65085000  1.0 -0.1299770603
C  C1866  1  0.73120000  0.14960000  0.90085000  1.0 -0.1401683215
C  C1867  1  0.26880000  0.35040000  0.90085000  1.0 -0.1192279522
C  C1868  1  0.89960000  0.98120000  0.84915000  1.0 -0.1401683215
C  C1869  1  0.76880000  0.14960000  0.09915000  1.0 -0.1299770603
C  C1870  1  0.10040000  0.51880000  0.84915000  1.0 -0.2613613115
C  C1871  1  0.73120000  0.85040000  0.59915000  1.0 -0.1401683215
C  C1872  1  0.89960000  0.01880000  0.65085000  1.0 -0.1708846832
C  C1873  1  0.60040000  0.98120000  0.15085000  1.0 -0.1299770603
C  C1874  1  0.23120000  0.64960000  0.40085000  1.0 -0.1299770603
C  C1875  1  0.76880000  0.85040000  0.40085000  1.0 -0.1299770603
C  C1876  1  0.60040000  0.51880000  0.65085000  1.0 -0.16000267
C  C1877  1  0.23120000  0.85040000  0.90085000  1.0 -0.1401683215
C  C1878  1  0.39960000  0.98120000  0.65085000  1.0 -0.1491777561
C  C1879  1  0.26880000  0.14960000  0.40085000  1.0 -0.1401683215
C  C1880  1  0.60040000  0.48120000  0.84915000  1.0 -0.1401683215
C  C1881  1  0.89960000  0.51880000  0.34915000  1.0 -0.1299770603
C  C1882  1  0.76880000  0.35040000  0.59915000  1.0 -0.1401683215
C  C1883  1  0.23120000  0.14960000  0.59915000  1.0 0.0710296364
C  C1884  1  0.10040000  0.01880000  0.15085000  1.0 -0.1299770603
C  C1885  1  0.23120000  0.35040000  0.90085000  1.0 0.0085699419
C  C1886  1  0.89960000  0.48120000  0.15085000  1.0 -0.1299770603
C  C1887  1  0.26880000  0.14960000  0.90085000  1.0 -0.0888406341
C  C1888  1  0.10040000  0.98120000  0.34915000  1.0 -0.1299770603
C  C1889  1  0.39960000  0.01880000  0.84915000  1.0 -0.2208739476
C  C1890  1  0.26880000  0.35040000  0.59915000  1.0 -0.030941723
C  C1891  1  0.28710000  0.44560000  0.35550000  1.0 -0.4294079164
C  C1892  1  0.30440000  0.53710000  0.60550000  1.0 -0.4382325583
C  C1893  1  0.71290000  0.05440000  0.35550000  1.0 -0.4117549535
C  C1894  1  0.19560000  0.46290000  0.10550000  1.0 -0.4294079164
C  C1895  1  0.28710000  0.55440000  0.14450000  1.0 -0.4117549535
C  C1896  1  0.21290000  0.44560000  0.64450000  1.0 -0.4382325583
C  C1897  1  0.69560000  0.03710000  0.89450000  1.0 -0.4294079164
C  C1898  1  0.30440000  0.46290000  0.89450000  1.0 -0.4010052265
C  C1899  1  0.78710000  0.94560000  0.85550000  1.0 -0.4117549535
C  C1900  1  0.80440000  0.03710000  0.10550000  1.0 -0.4294079164
C  C1901  1  0.21290000  0.55440000  0.85550000  1.0 -0.3794708432
C  C1902  1  0.69560000  0.96290000  0.60550000  1.0 -0.4294079164
C  C1903  1  0.78710000  0.05440000  0.64450000  1.0 -0.4294079164
C  C1904  1  0.71290000  0.94560000  0.14450000  1.0 -0.4117549535
C  C1905  1  0.19560000  0.53710000  0.39450000  1.0 -0.4294079164
C  C1906  1  0.80440000  0.96290000  0.39450000  1.0 -0.4294079164
C  C1907  1  0.71290000  0.55440000  0.64450000  1.0 -0.4294079164
C  C1908  1  0.19560000  0.96290000  0.89450000  1.0 -0.4382325583
C  C1909  1  0.28710000  0.94560000  0.64450000  1.0 -0.4382325583
C  C1910  1  0.30440000  0.03710000  0.39450000  1.0 -0.4294079164
C  C1911  1  0.71290000  0.44560000  0.85550000  1.0 -0.4294079164
C  C1912  1  0.78710000  0.55440000  0.35550000  1.0 -0.4294079164
C  C1913  1  0.80440000  0.46290000  0.60550000  1.0 -0.4294079164
C  C1914  1  0.19560000  0.03710000  0.60550000  1.0 -0.4202381655
C  C1915  1  0.21290000  0.05440000  0.14450000  1.0 -0.4294079164
C  C1916  1  0.19560000  0.46290000  0.89450000  1.0 -0.3895054246
C  C1917  1  0.78710000  0.44560000  0.14450000  1.0 -0.4294079164
C  C1918  1  0.30440000  0.03710000  0.89450000  1.0 -0.2405234429
C  C1919  1  0.21290000  0.94560000  0.35550000  1.0 -0.4294079164
C  C1920  1  0.28710000  0.05440000  0.85550000  1.0 -0.3304959969
C  C1921  1  0.30440000  0.46290000  0.60550000  1.0 -0.4294079164
C  C1922  1  0.39070000  0.49330000  0.30310000  1.0 0.5529406113
C  C1923  1  0.25670000  0.64070000  0.55310000  1.0 0.5596607211
C  C1924  1  0.60930000  0.00670000  0.30310000  1.0 0.5596607211
C  C1925  1  0.24330000  0.35930000  0.05310000  1.0 0.5529406113
C  C1926  1  0.39070000  0.50670000  0.19690000  1.0 0.5529406113
C  C1927  1  0.10930000  0.49330000  0.69690000  1.0 0.5596607211
C  C1928  1  0.74330000  0.14070000  0.94690000  1.0 0.5529406113
C  C1929  1  0.25670000  0.35930000  0.94690000  1.0 0.3094920201
C  C1930  1  0.89070000  0.99330000  0.80310000  1.0 0.5596607211
C  C1931  1  0.75670000  0.14070000  0.05310000  1.0 0.5529406113
C  C1932  1  0.10930000  0.50670000  0.80310000  1.0 0.3999003612
C  C1933  1  0.74330000  0.85930000  0.55310000  1.0 0.5529406113
C  C1934  1  0.89070000  0.00670000  0.69690000  1.0 0.5307502492
C  C1935  1  0.60930000  0.99330000  0.19690000  1.0 0.5596607211
C  C1936  1  0.24330000  0.64070000  0.44690000  1.0 0.5529406113
C  C1937  1  0.75670000  0.85930000  0.44690000  1.0 0.5529406113
C  C1938  1  0.60930000  0.50670000  0.69690000  1.0 0.5386006279
C  C1939  1  0.24330000  0.85930000  0.94690000  1.0 0.5596607211
C  C1940  1  0.39070000  0.99330000  0.69690000  1.0 0.5596607211
C  C1941  1  0.25670000  0.14070000  0.44690000  1.0 0.5529406113
C  C1942  1  0.60930000  0.49330000  0.80310000  1.0 0.5529406113
C  C1943  1  0.89070000  0.50670000  0.30310000  1.0 0.5596607211
C  C1944  1  0.75670000  0.35930000  0.55310000  1.0 0.5596607211
C  C1945  1  0.24330000  0.14070000  0.55310000  1.0 0.5386006279
C  C1946  1  0.10930000  0.00670000  0.19690000  1.0 0.5596607211
C  C1947  1  0.24330000  0.35930000  0.94690000  1.0 0.3094920201
C  C1948  1  0.89070000  0.49330000  0.19690000  1.0 0.5596607211
C  C1949  1  0.25670000  0.14070000  0.94690000  1.0 0.3392998376
C  C1950  1  0.10930000  0.99330000  0.30310000  1.0 0.5529406113
C  C1951  1  0.39070000  0.00670000  0.80310000  1.0 0.258312021
C  C1952  1  0.25670000  0.35930000  0.55310000  1.0 0.2726090494
C  C1953  1  0.40240000  0.43170000  0.41044000  1.0 -0.0795118742
C  C1954  1  0.31830000  0.65240000  0.66044000  1.0 -0.0699674866
C  C1955  1  0.59760000  0.06830000  0.41044000  1.0 -0.0795118742
C  C1956  1  0.18170000  0.34760000  0.16044000  1.0 -0.0699674866
C  C1957  1  0.40240000  0.56830000  0.08956000  1.0 -0.0795118742
C  C1958  1  0.09760000  0.43170000  0.58956000  1.0 -0.0699674866
C  C1959  1  0.68170000  0.15240000  0.83956000  1.0 -0.0699674866
C  C1960  1  0.31830000  0.34760000  0.83956000  1.0 -0.16000267
C  C1961  1  0.90240000  0.93170000  0.91044000  1.0 -0.0795118742
C  C1962  1  0.81830000  0.15240000  0.16044000  1.0 -0.0594661196
C  C1963  1  0.09760000  0.56830000  0.91044000  1.0 -0.0699674866
C  C1964  1  0.68170000  0.84760000  0.66044000  1.0 -0.0594661196
C  C1965  1  0.90240000  0.06830000  0.58956000  1.0 -0.0699674866
C  C1966  1  0.59760000  0.93170000  0.08956000  1.0 -0.0795118742
C  C1967  1  0.18170000  0.65240000  0.33956000  1.0 -0.0594661196
C  C1968  1  0.81830000  0.84760000  0.33956000  1.0 -0.0504702194
C  C1969  1  0.59760000  0.56830000  0.58956000  1.0 -0.0795118742
C  C1970  1  0.18170000  0.84760000  0.83956000  1.0 -0.0795118742
C  C1971  1  0.40240000  0.93170000  0.58956000  1.0 -0.0795118742
C  C1972  1  0.31830000  0.15240000  0.33956000  1.0 -0.0795118742
C  C1973  1  0.59760000  0.43170000  0.91044000  1.0 -0.0795118742
C  C1974  1  0.90240000  0.56830000  0.41044000  1.0 -0.0699674866
C  C1975  1  0.81830000  0.34760000  0.66044000  1.0 -0.0795118742
C  C1976  1  0.18170000  0.15240000  0.66044000  1.0 -0.1401683215
C  C1977  1  0.09760000  0.06830000  0.08956000  1.0 -0.0795118742
C  C1978  1  0.18170000  0.34760000  0.83956000  1.0 -0.1801726518
C  C1979  1  0.90240000  0.43170000  0.08956000  1.0 -0.0699674866
C  C1980  1  0.31830000  0.15240000  0.83956000  1.0 -0.16000267
C  C1981  1  0.09760000  0.93170000  0.41044000  1.0 -0.0699674866
C  C1982  1  0.40240000  0.06830000  0.91044000  1.0 -0.030941723
C  C1983  1  0.31830000  0.34760000  0.66044000  1.0 -0.1491777561
C  C1984  1  0.38600000  0.43510000  0.43389000  1.0 0.1208546254
C  C1985  1  0.31490000  0.63600000  0.68389000  1.0 0.1110391165
C  C1986  1  0.61400000  0.06490000  0.43389000  1.0 0.1110391165
C  C1987  1  0.18510000  0.36400000  0.18389000  1.0 0.1110391165
C  C1988  1  0.38600000  0.56490000  0.06611000  1.0 0.1110391165
C  C1989  1  0.11400000  0.43510000  0.56611000  1.0 0.1208546254
C  C1990  1  0.68510000  0.13600000  0.81611000  1.0 0.1110391165
C  C1991  1  0.31490000  0.36400000  0.81611000  1.0 -0.030941723
C  C1992  1  0.88600000  0.93510000  0.93389000  1.0 0.1110391165
C  C1993  1  0.81490000  0.13600000  0.18389000  1.0 0.1005048675
C  C1994  1  0.11400000  0.56490000  0.93389000  1.0 0.1110391165
C  C1995  1  0.68510000  0.86400000  0.68389000  1.0 0.1110391165
C  C1996  1  0.88600000  0.06490000  0.56611000  1.0 0.1208546254
C  C1997  1  0.61400000  0.93510000  0.06611000  1.0 0.1110391165
C  C1998  1  0.18510000  0.63600000  0.31611000  1.0 0.1110391165
C  C1999  1  0.81490000  0.86400000  0.31611000  1.0 0.1005048675
C  C2000  1  0.61400000  0.56490000  0.56611000  1.0 0.1110391165
C  C2001  1  0.18510000  0.86400000  0.81611000  1.0 0.1110391165
C  C2002  1  0.38600000  0.93510000  0.56611000  1.0 0.1110391165
C  C2003  1  0.31490000  0.13600000  0.31611000  1.0 0.1110391165
C  C2004  1  0.61400000  0.43510000  0.93389000  1.0 0.1208546254
C  C2005  1  0.88600000  0.56490000  0.43389000  1.0 0.1110391165
C  C2006  1  0.81490000  0.36400000  0.68389000  1.0 0.1208546254
C  C2007  1  0.18510000  0.13600000  0.68389000  1.0 -0.1005984017
C  C2008  1  0.11400000  0.06490000  0.06611000  1.0 0.1208546254
C  C2009  1  0.18510000  0.36400000  0.81611000  1.0 -0.1192279522
C  C2010  1  0.88600000  0.43510000  0.06611000  1.0 0.1110391165
C  C2011  1  0.31490000  0.13600000  0.81611000  1.0 -0.0795118742
C  C2012  1  0.11400000  0.93510000  0.43389000  1.0 0.1110391165
C  C2013  1  0.38600000  0.06490000  0.93389000  1.0 0.0890307818
C  C2014  1  0.31490000  0.36400000  0.68389000  1.0 -0.1005984017
C  C2015  1  0.37490000  0.40520000  0.44812000  1.0 -0.1708846832
C  C2016  1  0.34480000  0.62490000  0.69812000  1.0 -0.16000267
C  C2017  1  0.62510000  0.09480000  0.44812000  1.0 -0.1708846832
C  C2018  1  0.15520000  0.37510000  0.19812000  1.0 -0.1708846832
C  C2019  1  0.37490000  0.59480000  0.05188000  1.0 -0.1708846832
C  C2020  1  0.12510000  0.40520000  0.55188000  1.0 -0.1708846832
C  C2021  1  0.65520000  0.12490000  0.80188000  1.0 -0.1708846832
C  C2022  1  0.34480000  0.37510000  0.80188000  1.0 -0.1708846832
C  C2023  1  0.87490000  0.90520000  0.94812000  1.0 -0.1708846832
C  C2024  1  0.84480000  0.12490000  0.19812000  1.0 -0.1491777561
C  C2025  1  0.12510000  0.59480000  0.94812000  1.0 -0.1708846832
C  C2026  1  0.65520000  0.87510000  0.69812000  1.0 -0.1491777561
C  C2027  1  0.87490000  0.09480000  0.55188000  1.0 -0.16000267
C  C2028  1  0.62510000  0.90520000  0.05188000  1.0 -0.1708846832
C  C2029  1  0.15520000  0.62490000  0.30188000  1.0 -0.16000267
C  C2030  1  0.84480000  0.87510000  0.30188000  1.0 -0.1491777561
C  C2031  1  0.62510000  0.59480000  0.55188000  1.0 -0.1708846832
C  C2032  1  0.15520000  0.87510000  0.80188000  1.0 -0.16000267
C  C2033  1  0.37490000  0.90520000  0.55188000  1.0 -0.1708846832
C  C2034  1  0.34480000  0.12490000  0.30188000  1.0 -0.1708846832
C  C2035  1  0.62510000  0.40520000  0.94812000  1.0 -0.1708846832
C  C2036  1  0.87490000  0.59480000  0.44812000  1.0 -0.1708846832
C  C2037  1  0.84480000  0.37510000  0.69812000  1.0 -0.1491777561
C  C2038  1  0.15520000  0.12490000  0.69812000  1.0 -0.1005984017
C  C2039  1  0.12510000  0.09480000  0.05188000  1.0 -0.1708846832
C  C2040  1  0.15520000  0.37510000  0.80188000  1.0 -0.1299770603
C  C2041  1  0.87490000  0.40520000  0.05188000  1.0 -0.1708846832
C  C2042  1  0.34480000  0.12490000  0.80188000  1.0 -0.16000267
C  C2043  1  0.12510000  0.90520000  0.44812000  1.0 -0.1708846832
C  C2044  1  0.37490000  0.09480000  0.94812000  1.0 -0.1902425891
C  C2045  1  0.34480000  0.37510000  0.69812000  1.0 -0.1101811951
C  C2046  1  0.38050000  0.37010000  0.43820000  1.0 -0.0397310453
C  C2047  1  0.37990000  0.63050000  0.68820000  1.0 -0.0504702194
C  C2048  1  0.61950000  0.12990000  0.43820000  1.0 -0.0397310453
C  C2049  1  0.12010000  0.36950000  0.18820000  1.0 -0.0504702194
C  C2050  1  0.38050000  0.62990000  0.06180000  1.0 -0.0397310453
C  C2051  1  0.11950000  0.37010000  0.56180000  1.0 -0.0504702194
C  C2052  1  0.62010000  0.13050000  0.81180000  1.0 -0.0397310453
C  C2053  1  0.37990000  0.36950000  0.81180000  1.0 -0.0020969194
C  C2054  1  0.88050000  0.87010000  0.93820000  1.0 -0.0397310453
C  C2055  1  0.87990000  0.13050000  0.18820000  1.0 -0.0397310453
C  C2056  1  0.11950000  0.62990000  0.93820000  1.0 -0.0397310453
C  C2057  1  0.62010000  0.86950000  0.68820000  1.0 -0.030941723
C  C2058  1  0.88050000  0.12990000  0.56180000  1.0 -0.0397310453
C  C2059  1  0.61950000  0.87010000  0.06180000  1.0 -0.0397310453
C  C2060  1  0.12010000  0.63050000  0.31180000  1.0 -0.0397310453
C  C2061  1  0.87990000  0.86950000  0.31180000  1.0 -0.0594661196
C  C2062  1  0.61950000  0.62990000  0.56180000  1.0 -0.0397310453
C  C2063  1  0.12010000  0.86950000  0.81180000  1.0 -0.0397310453
C  C2064  1  0.38050000  0.87010000  0.56180000  1.0 -0.030941723
C  C2065  1  0.37990000  0.13050000  0.31180000  1.0 -0.030941723
C  C2066  1  0.61950000  0.37010000  0.93820000  1.0 -0.0397310453
C  C2067  1  0.88050000  0.62990000  0.43820000  1.0 -0.0397310453
C  C2068  1  0.87990000  0.36950000  0.68820000  1.0 -0.0213854207
C  C2069  1  0.12010000  0.13050000  0.68820000  1.0 0.0710296364
C  C2070  1  0.11950000  0.12990000  0.06180000  1.0 -0.0397310453
C  C2071  1  0.12010000  0.36950000  0.81180000  1.0 0.0710296364
C  C2072  1  0.88050000  0.37010000  0.06180000  1.0 -0.0397310453
C  C2073  1  0.37990000  0.13050000  0.81180000  1.0 0.0592408112
C  C2074  1  0.11950000  0.87010000  0.43820000  1.0 -0.0397310453
C  C2075  1  0.38050000  0.12990000  0.93820000  1.0 -0.0594661196
C  C2076  1  0.37990000  0.36950000  0.68820000  1.0 0.0710296364
C  C2077  1  0.39710000  0.36610000  0.41510000  1.0 -0.1708846832
C  C2078  1  0.38390000  0.64710000  0.66510000  1.0 -0.16000267
C  C2079  1  0.60290000  0.13390000  0.41510000  1.0 -0.1801726518
C  C2080  1  0.11610000  0.35290000  0.16510000  1.0 -0.1801726518
C  C2081  1  0.39710000  0.63390000  0.08490000  1.0 -0.1708846832
C  C2082  1  0.10290000  0.36610000  0.58490000  1.0 -0.1708846832
C  C2083  1  0.61610000  0.14710000  0.83490000  1.0 -0.1801726518
C  C2084  1  0.38390000  0.35290000  0.83490000  1.0 -0.1192279522
C  C2085  1  0.89710000  0.86610000  0.91510000  1.0 -0.1801726518
C  C2086  1  0.88390000  0.14710000  0.16510000  1.0 -0.1801726518
C  C2087  1  0.10290000  0.63390000  0.91510000  1.0 -0.1708846832
C  C2088  1  0.61610000  0.85290000  0.66510000  1.0 -0.1708846832
C  C2089  1  0.89710000  0.13390000  0.58490000  1.0 -0.1708846832
C  C2090  1  0.60290000  0.86610000  0.08490000  1.0 -0.1708846832
C  C2091  1  0.11610000  0.64710000  0.33490000  1.0 -0.1708846832
C  C2092  1  0.88390000  0.85290000  0.33490000  1.0 -0.1708846832
C  C2093  1  0.60290000  0.63390000  0.58490000  1.0 -0.16000267
C  C2094  1  0.11610000  0.85290000  0.83490000  1.0 -0.1708846832
C  C2095  1  0.39710000  0.86610000  0.58490000  1.0 -0.1708846832
C  C2096  1  0.38390000  0.14710000  0.33490000  1.0 -0.1708846832
C  C2097  1  0.60290000  0.36610000  0.91510000  1.0 -0.1708846832
C  C2098  1  0.89710000  0.63390000  0.41510000  1.0 -0.16000267
C  C2099  1  0.88390000  0.35290000  0.66510000  1.0 -0.1801726518
C  C2100  1  0.11610000  0.14710000  0.66510000  1.0 0.0592408112
C  C2101  1  0.10290000  0.13390000  0.08490000  1.0 -0.1708846832
C  C2102  1  0.11610000  0.35290000  0.83490000  1.0 0.0710296364
C  C2103  1  0.89710000  0.36610000  0.08490000  1.0 -0.16000267
C  C2104  1  0.38390000  0.14710000  0.83490000  1.0 0.0499194568
C  C2105  1  0.10290000  0.86610000  0.41510000  1.0 -0.16000267
C  C2106  1  0.39710000  0.13390000  0.91510000  1.0 -0.2798334355
C  C2107  1  0.38390000  0.35290000  0.66510000  1.0 0.0499194568
C  C2108  1  0.40760000  0.39660000  0.40188000  1.0 0.1208546254
C  C2109  1  0.35340000  0.65760000  0.65188000  1.0 0.1005048675
C  C2110  1  0.59240000  0.10340000  0.40188000  1.0 0.1208546254
C  C2111  1  0.14660000  0.34240000  0.15188000  1.0 0.1110391165
C  C2112  1  0.40760000  0.60340000  0.09812000  1.0 0.1208546254
C  C2113  1  0.09240000  0.39660000  0.59812000  1.0 0.1208546254
C  C2114  1  0.64660000  0.15760000  0.84812000  1.0 0.1110391165
C  C2115  1  0.35340000  0.34240000  0.84812000  1.0 -0.0699674866
C  C2116  1  0.90760000  0.89660000  0.90188000  1.0 0.1208546254
C  C2117  1  0.85340000  0.15760000  0.15188000  1.0 0.1208546254
C  C2118  1  0.09240000  0.60340000  0.90188000  1.0 0.1208546254
C  C2119  1  0.64660000  0.84240000  0.65188000  1.0 0.1208546254
C  C2120  1  0.90760000  0.10340000  0.59812000  1.0 0.1005048675
C  C2121  1  0.59240000  0.89660000  0.09812000  1.0 0.1208546254
C  C2122  1  0.14660000  0.65760000  0.34812000  1.0 0.1208546254
C  C2123  1  0.85340000  0.84240000  0.34812000  1.0 0.1110391165
C  C2124  1  0.59240000  0.60340000  0.59812000  1.0 0.1110391165
C  C2125  1  0.14660000  0.84240000  0.84812000  1.0 0.1110391165
C  C2126  1  0.40760000  0.89660000  0.59812000  1.0 0.1110391165
C  C2127  1  0.35340000  0.15760000  0.34812000  1.0 0.1110391165
C  C2128  1  0.59240000  0.39660000  0.90188000  1.0 0.1110391165
C  C2129  1  0.90760000  0.60340000  0.40188000  1.0 0.1110391165
C  C2130  1  0.85340000  0.34240000  0.65188000  1.0 0.1110391165
C  C2131  1  0.14660000  0.15760000  0.65188000  1.0 -0.0397310453
C  C2132  1  0.09240000  0.10340000  0.09812000  1.0 0.1208546254
C  C2133  1  0.14660000  0.34240000  0.84812000  1.0 -0.0795118742
C  C2134  1  0.90760000  0.39660000  0.09812000  1.0 0.1110391165
C  C2135  1  0.35340000  0.15760000  0.84812000  1.0 -0.0213854207
C  C2136  1  0.09240000  0.89660000  0.40188000  1.0 0.1110391165
C  C2137  1  0.40760000  0.10340000  0.90188000  1.0 0.0085699419
C  C2138  1  0.35340000  0.34240000  0.65188000  1.0 -0.0397310453
C  C2139  1  0.19040000  0.18200000  0.88550000  1.0 0.0085699419
C  C2140  1  0.93200000  0.44040000  0.86450000  1.0 -0.0020969194
C  C2141  1  0.43200000  0.44040000  0.63550000  1.0 -0.0093931289
C  C2142  1  0.30960000  0.31800000  0.61450000  1.0 -0.0795118742
C  C2143  1  0.30960000  0.18200000  0.88550000  1.0 -0.1299770603
C  C2144  1  0.19040000  0.31800000  0.88550000  1.0 -0.0397310453
C  C2145  1  0.19040000  0.18200000  0.61450000  1.0 -0.0795118742
C  C2146  1  0.17760000  0.14120000  0.87880000  1.0 -0.2405234429
C  C2147  1  0.89120000  0.42760000  0.87120000  1.0 -0.1491777561
C  C2148  1  0.39120000  0.42760000  0.62880000  1.0 -0.2902438519
C  C2149  1  0.32240000  0.35880000  0.62120000  1.0 -0.0888406341
C  C2150  1  0.32240000  0.14120000  0.87880000  1.0 -0.1101811951
C  C2151  1  0.17760000  0.35880000  0.87880000  1.0 -0.1192279522
C  C2152  1  0.17760000  0.14120000  0.62120000  1.0 -0.0888406341
C  C2153  1  0.20930000  0.12480000  0.86690000  1.0 -0.2306746947
C  C2154  1  0.87480000  0.45930000  0.88310000  1.0 -0.1801726518
C  C2155  1  0.37480000  0.45930000  0.61690000  1.0 -0.1801726518
C  C2156  1  0.29070000  0.37520000  0.63310000  1.0 -0.0795118742
C  C2157  1  0.29070000  0.12480000  0.86690000  1.0 -0.1005984017
C  C2158  1  0.20930000  0.37520000  0.86690000  1.0 -0.0888406341
C  C2159  1  0.20930000  0.12480000  0.63310000  1.0 -0.0888406341
C  C2160  1  0.24060000  0.14890000  0.87050000  1.0 -0.0213854207
C  C2161  1  0.89890000  0.49060000  0.87950000  1.0 -0.0213854207
C  C2162  1  0.39890000  0.49060000  0.62050000  1.0 0.002215872
C  C2163  1  0.25940000  0.35110000  0.62950000  1.0 0.0085699419
C  C2164  1  0.25940000  0.14890000  0.87050000  1.0 -0.0093931289
C  C2165  1  0.24060000  0.35110000  0.87050000  1.0 0.0085699419
C  C2166  1  0.24060000  0.14890000  0.62950000  1.0 0.0085699419
Cl  Cl1  1  0.50583000  0.62437000  0.56975000  1.0 -0.0594661196
Cl  Cl2  1  0.12563000  0.75583000  0.81975000  1.0 -0.0594661196
Cl  Cl3  1  0.49417000  0.87563000  0.56975000  1.0 -0.0594661196
Cl  Cl4  1  0.37437000  0.24417000  0.31975000  1.0 -0.0504702194
Cl  Cl5  1  0.50583000  0.37563000  0.93025000  1.0 -0.0594661196
Cl  Cl6  1  0.99417000  0.62437000  0.43025000  1.0 -0.0594661196
Cl  Cl7  1  0.87437000  0.25583000  0.68025000  1.0 -0.0504702194
Cl  Cl8  1  0.12563000  0.24417000  0.68025000  1.0 0.2894668721
Cl  Cl9  1  0.00583000  0.12437000  0.06975000  1.0 -0.0594661196
Cl  Cl10  1  0.62563000  0.25583000  0.31975000  1.0 -0.0795118742
Cl  Cl11  1  0.99417000  0.37563000  0.06975000  1.0 -0.0594661196
Cl  Cl12  1  0.87437000  0.74417000  0.81975000  1.0 -0.0795118742
Cl  Cl13  1  0.00583000  0.87563000  0.43025000  1.0 -0.0594661196
Cl  Cl14  1  0.49417000  0.12437000  0.93025000  1.0 -0.0504702194
Cl  Cl15  1  0.37437000  0.75583000  0.18025000  1.0 -0.0795118742
Cl  Cl16  1  0.62563000  0.74417000  0.18025000  1.0 -0.0795118742
Cl  Cl17  1  0.49417000  0.37563000  0.43025000  1.0 -0.0594661196
Cl  Cl18  1  0.37437000  0.74417000  0.68025000  1.0 -0.0504702194
Cl  Cl19  1  0.50583000  0.12437000  0.43025000  1.0 -0.0504702194
Cl  Cl20  1  0.12563000  0.25583000  0.18025000  1.0 -0.0504702194
Cl  Cl21  1  0.49417000  0.62437000  0.06975000  1.0 -0.0504702194
Cl  Cl22  1  0.00583000  0.37563000  0.56975000  1.0 -0.0504702194
Cl  Cl23  1  0.62563000  0.24417000  0.81975000  1.0 -0.0594661196
Cl  Cl24  1  0.37437000  0.25583000  0.81975000  1.0 0.4945074065
Cl  Cl25  1  0.99417000  0.87563000  0.93025000  1.0 -0.0504702194
Cl  Cl26  1  0.37437000  0.24417000  0.68025000  1.0 0.5307502492
Cl  Cl27  1  0.00583000  0.62437000  0.93025000  1.0 -0.0504702194
Cl  Cl28  1  0.12563000  0.25583000  0.68025000  1.0 0.3392998376
Cl  Cl29  1  0.99417000  0.12437000  0.56975000  1.0 -0.0594661196
Cl  Cl30  1  0.50583000  0.87563000  0.06975000  1.0 -0.0504702194
Cl  Cl31  1  0.12563000  0.24417000  0.81975000  1.0 0.5003223761
Cl  Cl32  1  0.35865000  0.61971000  0.57088000  1.0 -0.0594661196
Cl  Cl33  1  0.13029000  0.60865000  0.82088000  1.0 -0.1101811951
Cl  Cl34  1  0.64135000  0.88029000  0.57088000  1.0 -0.0594661196
Cl  Cl35  1  0.36971000  0.39135000  0.32088000  1.0 -0.0594661196
Cl  Cl36  1  0.35865000  0.38029000  0.92912000  1.0 -0.0795118742
Cl  Cl37  1  0.14135000  0.61971000  0.42912000  1.0 -0.0594661196
Cl  Cl38  1  0.86971000  0.10865000  0.67912000  1.0 -0.0594661196
Cl  Cl39  1  0.13029000  0.39135000  0.67912000  1.0 -0.0397310453
Cl  Cl40  1  0.85865000  0.11971000  0.07088000  1.0 -0.0594661196
Cl  Cl41  1  0.63029000  0.10865000  0.32088000  1.0 -0.0594661196
Cl  Cl42  1  0.14135000  0.38029000  0.07088000  1.0 -0.0594661196
Cl  Cl43  1  0.86971000  0.89135000  0.82088000  1.0 -0.0594661196
Cl  Cl44  1  0.85865000  0.88029000  0.42912000  1.0 -0.0594661196
Cl  Cl45  1  0.64135000  0.11971000  0.92912000  1.0 -0.0594661196
Cl  Cl46  1  0.36971000  0.60865000  0.17912000  1.0 -0.0594661196
Cl  Cl47  1  0.63029000  0.89135000  0.17912000  1.0 -0.0594661196
Cl  Cl48  1  0.64135000  0.38029000  0.42912000  1.0 -0.0699674866
Cl  Cl49  1  0.36971000  0.89135000  0.67912000  1.0 -0.0504702194
Cl  Cl50  1  0.35865000  0.11971000  0.42912000  1.0 -0.0594661196
Cl  Cl51  1  0.13029000  0.10865000  0.17912000  1.0 -0.0594661196
Cl  Cl52  1  0.64135000  0.61971000  0.07088000  1.0 -0.0795118742
Cl  Cl53  1  0.85865000  0.38029000  0.57088000  1.0 -0.0594661196
Cl  Cl54  1  0.63029000  0.39135000  0.82088000  1.0 -0.0594661196
Cl  Cl55  1  0.36971000  0.10865000  0.82088000  1.0 0.0085699419
Cl  Cl56  1  0.14135000  0.88029000  0.92912000  1.0 -0.0504702194
Cl  Cl57  1  0.36971000  0.39135000  0.67912000  1.0 0.0198361888
Cl  Cl58  1  0.85865000  0.61971000  0.92912000  1.0 -0.0594661196
Cl  Cl59  1  0.13029000  0.10865000  0.67912000  1.0 0.0420178119
Cl  Cl60  1  0.14135000  0.11971000  0.57088000  1.0 -0.0699674866
Cl  Cl61  1  0.35865000  0.88029000  0.07088000  1.0 -0.0699674866
Cl  Cl62  1  0.13029000  0.39135000  0.82088000  1.0 0.0290024236
Cl  Cl63  1  0.70745000  0.55283000  0.51403000  1.0 -0.0504702194
Cl  Cl64  1  0.19717000  0.95745000  0.76403000  1.0 -0.2405234429
Cl  Cl65  1  0.29255000  0.94717000  0.51403000  1.0 -0.0504702194
Cl  Cl66  1  0.30283000  0.04255000  0.26403000  1.0 -0.0504702194
Cl  Cl67  1  0.70745000  0.44717000  0.98597000  1.0 -0.0504702194
Cl  Cl68  1  0.79255000  0.55283000  0.48597000  1.0 -0.0504702194
Cl  Cl69  1  0.80283000  0.45745000  0.73597000  1.0 -0.0397310453
Cl  Cl70  1  0.19717000  0.04255000  0.73597000  1.0 0.0290024236
Cl  Cl71  1  0.20745000  0.05283000  0.01403000  1.0 -0.0504702194
Cl  Cl72  1  0.69717000  0.45745000  0.26403000  1.0 -0.0594661196
Cl  Cl73  1  0.79255000  0.44717000  0.01403000  1.0 -0.0504702194
Cl  Cl74  1  0.80283000  0.54255000  0.76403000  1.0 -0.0504702194
Cl  Cl75  1  0.20745000  0.94717000  0.48597000  1.0 -0.0504702194
Cl  Cl76  1  0.29255000  0.05283000  0.98597000  1.0 -0.0699674866
Cl  Cl77  1  0.30283000  0.95745000  0.23597000  1.0 -0.0594661196
Cl  Cl78  1  0.69717000  0.54255000  0.23597000  1.0 -0.0594661196
Cl  Cl79  1  0.29255000  0.44717000  0.48597000  1.0 -0.0594661196
Cl  Cl80  1  0.30283000  0.54255000  0.73597000  1.0 -0.0504702194
Cl  Cl81  1  0.70745000  0.05283000  0.48597000  1.0 -0.0504702194
Cl  Cl82  1  0.19717000  0.45745000  0.23597000  1.0 -0.0795118742
Cl  Cl83  1  0.29255000  0.55283000  0.01403000  1.0 -0.0504702194
Cl  Cl84  1  0.20745000  0.44717000  0.51403000  1.0 -0.0795118742
Cl  Cl85  1  0.69717000  0.04255000  0.76403000  1.0 -0.0699674866
Cl  Cl86  1  0.30283000  0.45745000  0.76403000  1.0 0.0198361888
Cl  Cl87  1  0.79255000  0.94717000  0.98597000  1.0 -0.0504702194
Cl  Cl88  1  0.30283000  0.04255000  0.73597000  1.0 -0.030941723
Cl  Cl89  1  0.20745000  0.55283000  0.98597000  1.0 -0.0504702194
Cl  Cl90  1  0.19717000  0.45745000  0.73597000  1.0 0.0499194568
Cl  Cl91  1  0.79255000  0.05283000  0.51403000  1.0 -0.0504702194
Cl  Cl92  1  0.70745000  0.94717000  0.01403000  1.0 -0.0504702194
Cl  Cl93  1  0.19717000  0.04255000  0.76403000  1.0 0.0793711115
Cl  Cl94  1  0.62550000  0.47816000  0.44702000  1.0 -0.0504702194
Cl  Cl95  1  0.27184000  0.87550000  0.69702000  1.0 -0.0397310453
Cl  Cl96  1  0.37450000  0.02184000  0.44702000  1.0 -0.0397310453
Cl  Cl97  1  0.22816000  0.12450000  0.19702000  1.0 -0.0397310453
Cl  Cl98  1  0.62550000  0.52184000  0.05298000  1.0 -0.0504702194
Cl  Cl99  1  0.87450000  0.47816000  0.55298000  1.0 -0.0397310453
Cl  Cl100  1  0.72816000  0.37550000  0.80298000  1.0 -0.0504702194
Cl  Cl101  1  0.27184000  0.12450000  0.80298000  1.0 -0.0213854207
Cl  Cl102  1  0.12550000  0.97816000  0.94702000  1.0 -0.0397310453
Cl  Cl103  1  0.77184000  0.37550000  0.19702000  1.0 -0.0699674866
Cl  Cl104  1  0.87450000  0.52184000  0.94702000  1.0 -0.0699674866
Cl  Cl105  1  0.72816000  0.62450000  0.69702000  1.0 -0.0699674866
Cl  Cl106  1  0.12550000  0.02184000  0.55298000  1.0 -0.0213854207
Cl  Cl107  1  0.37450000  0.97816000  0.05298000  1.0 -0.0504702194
Cl  Cl108  1  0.22816000  0.87550000  0.30298000  1.0 -0.0699674866
Cl  Cl109  1  0.77184000  0.62450000  0.30298000  1.0 -0.0699674866
Cl  Cl110  1  0.37450000  0.52184000  0.55298000  1.0 -0.0397310453
Cl  Cl111  1  0.22816000  0.62450000  0.80298000  1.0 -0.0699674866
Cl  Cl112  1  0.62550000  0.97816000  0.55298000  1.0 -0.0397310453
Cl  Cl113  1  0.27184000  0.37550000  0.30298000  1.0 -0.0504702194
Cl  Cl114  1  0.37450000  0.47816000  0.94702000  1.0 -0.030941723
Cl  Cl115  1  0.12550000  0.52184000  0.44702000  1.0 -0.0504702194
Cl  Cl116  1  0.77184000  0.12450000  0.69702000  1.0 -0.0504702194
Cl  Cl117  1  0.22816000  0.37550000  0.69702000  1.0 -0.0504702194
Cl  Cl118  1  0.87450000  0.02184000  0.05298000  1.0 -0.0504702194
Cl  Cl119  1  0.22816000  0.12450000  0.80298000  1.0 0.002215872
Cl  Cl120  1  0.12550000  0.47816000  0.05298000  1.0 -0.0504702194
Cl  Cl121  1  0.27184000  0.37550000  0.80298000  1.0 0.0290024236
Cl  Cl122  1  0.87450000  0.97816000  0.44702000  1.0 -0.0504702194
Cl  Cl123  1  0.62550000  0.02184000  0.94702000  1.0 -0.0504702194
Cl  Cl124  1  0.27184000  0.12450000  0.69702000  1.0 -0.1299770603
Cl  Cl125  1  0.37728000  0.47843000  0.44647000  1.0 -0.0397310453
Cl  Cl126  1  0.27157000  0.62728000  0.69647000  1.0 -0.0504702194
Cl  Cl127  1  0.62272000  0.02157000  0.44647000  1.0 -0.0504702194
Cl  Cl128  1  0.22843000  0.37272000  0.19647000  1.0 -0.0504702194
Cl  Cl129  1  0.37728000  0.52157000  0.05353000  1.0 -0.0504702194
Cl  Cl130  1  0.12272000  0.47843000  0.55353000  1.0 -0.030941723
Cl  Cl131  1  0.72843000  0.12728000  0.80353000  1.0 -0.0504702194
Cl  Cl132  1  0.27157000  0.37272000  0.80353000  1.0 0.0198361888
Cl  Cl133  1  0.87728000  0.97843000  0.94647000  1.0 -0.0504702194
Cl  Cl134  1  0.77157000  0.12728000  0.19647000  1.0 -0.0795118742
Cl  Cl135  1  0.12272000  0.52157000  0.94647000  1.0 -0.030941723
Cl  Cl136  1  0.72843000  0.87272000  0.69647000  1.0 -0.0699674866
Cl  Cl137  1  0.87728000  0.02157000  0.55353000  1.0 -0.0504702194
Cl  Cl138  1  0.62272000  0.97843000  0.05353000  1.0 -0.0397310453
Cl  Cl139  1  0.22843000  0.62728000  0.30353000  1.0 -0.0795118742
Cl  Cl140  1  0.77157000  0.87272000  0.30353000  1.0 -0.1005984017
Cl  Cl141  1  0.62272000  0.52157000  0.55353000  1.0 -0.0504702194
Cl  Cl142  1  0.22843000  0.87272000  0.80353000  1.0 -0.0504702194
Cl  Cl143  1  0.37728000  0.97843000  0.55353000  1.0 -0.0504702194
Cl  Cl144  1  0.27157000  0.12728000  0.30353000  1.0 -0.0504702194
Cl  Cl145  1  0.62272000  0.47843000  0.94647000  1.0 -0.0504702194
Cl  Cl146  1  0.87728000  0.52157000  0.44647000  1.0 -0.0504702194
Cl  Cl147  1  0.77157000  0.37272000  0.69647000  1.0 -0.0397310453
Cl  Cl148  1  0.22843000  0.12728000  0.69647000  1.0 0.0198361888
Cl  Cl149  1  0.12272000  0.02157000  0.05353000  1.0 -0.0504702194
Cl  Cl150  1  0.22843000  0.37272000  0.80353000  1.0 0.0592408112
Cl  Cl151  1  0.87728000  0.47843000  0.05353000  1.0 -0.0504702194
Cl  Cl152  1  0.27157000  0.12728000  0.80353000  1.0 -0.0213854207
Cl  Cl153  1  0.12272000  0.97843000  0.44647000  1.0 -0.0504702194
Cl  Cl154  1  0.37728000  0.02157000  0.94647000  1.0 -0.0504702194
Cl  Cl155  1  0.27157000  0.37272000  0.69647000  1.0 0.0499194568
Cl  Cl156  1  0.43123000  0.38961000  0.37351000  1.0 -0.0594661196
Cl  Cl157  1  0.36039000  0.68123000  0.62351000  1.0 -0.0594661196
Cl  Cl158  1  0.56877000  0.11039000  0.37351000  1.0 -0.0594661196
Cl  Cl159  1  0.13961000  0.31877000  0.12351000  1.0 -0.0699674866
Cl  Cl160  1  0.43123000  0.61039000  0.12649000  1.0 -0.0594661196
Cl  Cl161  1  0.06877000  0.38961000  0.62649000  1.0 -0.0397310453
Cl  Cl162  1  0.63961000  0.18123000  0.87649000  1.0 -0.0594661196
Cl  Cl163  1  0.36039000  0.31877000  0.87649000  1.0 0.4456265612
Cl  Cl164  1  0.93123000  0.88961000  0.87351000  1.0 -0.0594661196
Cl  Cl165  1  0.86039000  0.18123000  0.12351000  1.0 -0.0888406341
Cl  Cl166  1  0.06877000  0.61039000  0.87351000  1.0 -0.0699674866
Cl  Cl167  1  0.63961000  0.81877000  0.62351000  1.0 -0.0699674866
Cl  Cl168  1  0.93123000  0.11039000  0.62649000  1.0 -0.0888406341
Cl  Cl169  1  0.56877000  0.88961000  0.12649000  1.0 -0.0594661196
Cl  Cl170  1  0.13961000  0.68123000  0.37649000  1.0 -0.0888406341
Cl  Cl171  1  0.86039000  0.81877000  0.37649000  1.0 -0.1192279522
Cl  Cl172  1  0.56877000  0.61039000  0.62649000  1.0 -0.0795118742
Cl  Cl173  1  0.13961000  0.81877000  0.87649000  1.0 -0.0594661196
Cl  Cl174  1  0.43123000  0.88961000  0.62649000  1.0 -0.0594661196
Cl  Cl175  1  0.36039000  0.18123000  0.37649000  1.0 -0.0594661196
Cl  Cl176  1  0.56877000  0.38961000  0.87351000  1.0 -0.0594661196
Cl  Cl177  1  0.93123000  0.61039000  0.37351000  1.0 -0.0699674866
Cl  Cl178  1  0.86039000  0.31877000  0.62351000  1.0 -0.0594661196
Cl  Cl179  1  0.13961000  0.18123000  0.62351000  1.0 -0.0093931289
Cl  Cl180  1  0.06877000  0.11039000  0.12649000  1.0 -0.0594661196
Cl  Cl181  1  0.13961000  0.31877000  0.87649000  1.0 0.1110391165
Cl  Cl182  1  0.93123000  0.38961000  0.12649000  1.0 -0.0699674866
Cl  Cl183  1  0.36039000  0.18123000  0.87649000  1.0 0.0890307818
Cl  Cl184  1  0.06877000  0.88961000  0.37351000  1.0 -0.0699674866
Cl  Cl185  1  0.43123000  0.11039000  0.87351000  1.0 -0.1992477047
Cl  Cl186  1  0.36039000  0.31877000  0.62351000  1.0 0.0710296364
O  O1  1  0.25960000  0.77350000  0.58200000  1.0 -0.2306746947
O  O2  1  0.97650000  0.50960000  0.83200000  1.0 0.0420178119
O  O3  1  0.74040000  0.72650000  0.58200000  1.0 -0.1902425891
O  O4  1  0.52350000  0.49040000  0.33200000  1.0 -0.1902425891
O  O5  1  0.25960000  0.22650000  0.91800000  1.0 -0.3400373813
O  O6  1  0.24040000  0.77350000  0.41800000  1.0 -0.1902425891
O  O7  1  0.02350000  0.00960000  0.66800000  1.0 -0.4294079164
O  O8  1  0.97650000  0.49040000  0.66800000  1.0 -0.2306746947
O  O9  1  0.75960000  0.27350000  0.08200000  1.0 -0.1902425891
O  O10  1  0.47650000  0.00960000  0.33200000  1.0 -0.2405234429
O  O11  1  0.24040000  0.22650000  0.08200000  1.0 -0.2509262748
O  O12  1  0.02350000  0.99040000  0.83200000  1.0 -0.1299770603
O  O13  1  0.75960000  0.72650000  0.41800000  1.0 -0.1992477047
O  O14  1  0.74040000  0.27350000  0.91800000  1.0 -0.2306746947
O  O15  1  0.52350000  0.50960000  0.16800000  1.0 -0.1902425891
O  O16  1  0.47650000  0.99040000  0.16800000  1.0 -0.1902425891
O  O17  1  0.74040000  0.22650000  0.41800000  1.0 -0.4010052265
O  O18  1  0.52350000  0.99040000  0.66800000  1.0 -0.2509262748
O  O19  1  0.25960000  0.27350000  0.41800000  1.0 -0.2405234429
O  O20  1  0.97650000  0.00960000  0.16800000  1.0 -0.5400351392
O  O21  1  0.74040000  0.77350000  0.08200000  1.0 -0.4010052265
O  O22  1  0.75960000  0.22650000  0.58200000  1.0 -0.2306746947
O  O23  1  0.47650000  0.49040000  0.83200000  1.0 -0.1192279522
O  O24  1  0.52350000  0.00960000  0.83200000  1.0 -0.6334006743
O  O25  1  0.24040000  0.72650000  0.91800000  1.0 -0.2208739476
O  O26  1  0.52350000  0.49040000  0.66800000  1.0 -0.0504702194
O  O27  1  0.75960000  0.77350000  0.91800000  1.0 -0.4010052265
O  O28  1  0.97650000  0.00960000  0.66800000  1.0 -0.1491777561
O  O29  1  0.24040000  0.27350000  0.58200000  1.0 -0.1299770603
O  O30  1  0.25960000  0.72650000  0.08200000  1.0 -0.4010052265
O  O31  1  0.97650000  0.49040000  0.83200000  1.0 -0.0699674866
O  O32  1  0.29210000  0.80550000  0.50480000  1.0 -0.7525456281
O  O33  1  0.94450000  0.54210000  0.75480000  1.0 -0.6986636178
O  O34  1  0.70790000  0.69450000  0.50480000  1.0 -0.7525456281
O  O35  1  0.55550000  0.45790000  0.25480000  1.0 -0.7584535436
O  O36  1  0.29210000  0.19450000  0.99520000  1.0 -0.732931401
O  O37  1  0.20790000  0.80550000  0.49520000  1.0 -0.7525456281
O  O38  1  0.05550000  0.04210000  0.74520000  1.0 -0.312305917
O  O39  1  0.94450000  0.45790000  0.74520000  1.0 -0.3304959969
O  O40  1  0.79210000  0.30550000  0.00480000  1.0 -0.7525456281
O  O41  1  0.44450000  0.04210000  0.25480000  1.0 -0.7525456281
O  O42  1  0.20790000  0.19450000  0.00480000  1.0 -0.7378747718
O  O43  1  0.05550000  0.95790000  0.75480000  1.0 -0.6986636178
O  O44  1  0.79210000  0.69450000  0.49520000  1.0 -0.7525456281
O  O45  1  0.70790000  0.30550000  0.99520000  1.0 -0.7525456281
O  O46  1  0.55550000  0.54210000  0.24520000  1.0 -0.7525456281
O  O47  1  0.44450000  0.95790000  0.24520000  1.0 -0.7525456281
O  O48  1  0.70790000  0.19450000  0.49520000  1.0 -0.7525456281
O  O49  1  0.55550000  0.95790000  0.74520000  1.0 -0.7584535436
O  O50  1  0.29210000  0.30550000  0.49520000  1.0 -0.7378747718
O  O51  1  0.94450000  0.04210000  0.24520000  1.0 -0.8812770204
O  O52  1  0.70790000  0.80550000  0.00480000  1.0 -0.7525456281
O  O53  1  0.79210000  0.19450000  0.50480000  1.0 -0.7525456281
O  O54  1  0.44450000  0.45790000  0.75480000  1.0 -0.3895054246
O  O55  1  0.55550000  0.04210000  0.75480000  1.0 -0.7584535436
O  O56  1  0.20790000  0.69450000  0.99520000  1.0 -0.7525456281
O  O57  1  0.55550000  0.45790000  0.74520000  1.0 -0.4010052265
O  O58  1  0.79210000  0.80550000  0.99520000  1.0 -0.7525456281
O  O59  1  0.94450000  0.04210000  0.74520000  1.0 -0.2902438519
O  O60  1  0.20790000  0.30550000  0.50480000  1.0 -0.7525456281
O  O61  1  0.29210000  0.69450000  0.00480000  1.0 -0.7525456281
O  O62  1  0.94450000  0.45790000  0.75480000  1.0 -0.3304959969
O  O63  1  0.32460000  0.75080000  0.46350000  1.0 -0.2613613115
O  O64  1  0.99920000  0.57460000  0.71350000  1.0 -0.1192279522
O  O65  1  0.67540000  0.74920000  0.46350000  1.0 -0.2715497983
O  O66  1  0.50080000  0.42540000  0.21350000  1.0 -0.2509262748
O  O67  1  0.32460000  0.24920000  0.03650000  1.0 -0.3021247344
O  O68  1  0.17540000  0.75080000  0.53650000  1.0 -0.2509262748
O  O69  1  0.00080000  0.07460000  0.78650000  1.0 -0.3715265748
O  O70  1  0.99920000  0.42540000  0.78650000  1.0 0.0890307818
O  O71  1  0.82460000  0.25080000  0.96350000  1.0 -0.2613613115
O  O72  1  0.49920000  0.07460000  0.21350000  1.0 -0.2613613115
O  O73  1  0.17540000  0.24920000  0.96350000  1.0 -0.4010052265
O  O74  1  0.00080000  0.92540000  0.71350000  1.0 -0.4801619473
O  O75  1  0.82460000  0.74920000  0.53650000  1.0 -0.2613613115
O  O76  1  0.67540000  0.25080000  0.03650000  1.0 -0.2613613115
O  O77  1  0.50080000  0.57460000  0.28650000  1.0 -0.2613613115
O  O78  1  0.49920000  0.92540000  0.28650000  1.0 -0.2613613115
O  O79  1  0.67540000  0.24920000  0.53650000  1.0 -0.2405234429
O  O80  1  0.50080000  0.92540000  0.78650000  1.0 -0.5006486054
O  O81  1  0.32460000  0.25080000  0.53650000  1.0 -0.4010052265
O  O82  1  0.99920000  0.07460000  0.28650000  1.0 -0.361450802
O  O83  1  0.67540000  0.75080000  0.96350000  1.0 -0.3715265748
O  O84  1  0.82460000  0.24920000  0.46350000  1.0 -0.3895054246
O  O85  1  0.49920000  0.42540000  0.71350000  1.0 0.1384575202
O  O86  1  0.50080000  0.07460000  0.71350000  1.0 -0.2715497983
O  O87  1  0.17540000  0.74920000  0.03650000  1.0 -0.3794708432
O  O88  1  0.50080000  0.42540000  0.78650000  1.0 0.1576197571
O  O89  1  0.82460000  0.75080000  0.03650000  1.0 -0.3715265748
O  O90  1  0.99920000  0.07460000  0.78650000  1.0 -0.361450802
O  O91  1  0.17540000  0.25080000  0.46350000  1.0 -0.312305917
O  O92  1  0.32460000  0.74920000  0.96350000  1.0 -0.2405234429
O  O93  1  0.99920000  0.42540000  0.71350000  1.0 0.1110391165
O  O94  1  0.29060000  0.68390000  0.49320000  1.0 0.0890307818
O  O95  1  0.06610000  0.54060000  0.74320000  1.0 -0.1299770603
O  O96  1  0.70940000  0.81610000  0.49320000  1.0 0.0793711115
O  O97  1  0.43390000  0.45940000  0.24320000  1.0 0.0890307818
O  O98  1  0.29060000  0.31610000  0.00680000  1.0 0.0592408112
O  O99  1  0.20940000  0.68390000  0.50680000  1.0 0.0793711115
O  O100  1  0.93390000  0.04060000  0.75680000  1.0 -0.1801726518
O  O101  1  0.06610000  0.45940000  0.75680000  1.0 -0.0795118742
O  O102  1  0.79060000  0.18390000  0.99320000  1.0 0.0793711115
O  O103  1  0.56610000  0.04060000  0.24320000  1.0 0.1005048675
O  O104  1  0.20940000  0.31610000  0.99320000  1.0 0.0890307818
O  O105  1  0.93390000  0.95940000  0.74320000  1.0 -0.0504702194
O  O106  1  0.79060000  0.81610000  0.50680000  1.0 0.0793711115
O  O107  1  0.70940000  0.18390000  0.00680000  1.0 0.0890307818
O  O108  1  0.43390000  0.54060000  0.25680000  1.0 0.1110391165
O  O109  1  0.56610000  0.95940000  0.25680000  1.0 0.1005048675
O  O110  1  0.70940000  0.31610000  0.50680000  1.0 -0.1005984017
O  O111  1  0.43390000  0.95940000  0.75680000  1.0 -0.1005984017
O  O112  1  0.29060000  0.18390000  0.50680000  1.0 0.0499194568
O  O113  1  0.06610000  0.04060000  0.25680000  1.0 0.2486579834
O  O114  1  0.70940000  0.68390000  0.99320000  1.0 -0.4202381655
O  O115  1  0.79060000  0.31610000  0.49320000  1.0 -0.2509262748
O  O116  1  0.56610000  0.45940000  0.74320000  1.0 -0.3794708432
O  O117  1  0.43390000  0.04060000  0.74320000  1.0 -0.2095360177
O  O118  1  0.20940000  0.81610000  0.00680000  1.0 -0.2509262748
O  O119  1  0.43390000  0.45940000  0.75680000  1.0 -0.3895054246
O  O120  1  0.79060000  0.68390000  0.00680000  1.0 -0.4202381655
O  O121  1  0.06610000  0.04060000  0.75680000  1.0 -0.1992477047
O  O122  1  0.20940000  0.18390000  0.49320000  1.0 -0.0093931289
O  O123  1  0.29060000  0.81610000  0.99320000  1.0 -0.1101811951
O  O124  1  0.06610000  0.45940000  0.74320000  1.0 0.0592408112
O  O125  1  0.24550000  0.74710000  0.47403000  1.0 -0.8374221133
O  O126  1  0.00290000  0.49550000  0.72403000  1.0 -0.6334006743
O  O127  1  0.75450000  0.75290000  0.47403000  1.0 -0.8374221133
O  O128  1  0.49710000  0.50450000  0.22403000  1.0 -0.8322565296
O  O129  1  0.24550000  0.25290000  0.02597000  1.0 -0.8322565296
O  O130  1  0.25450000  0.74710000  0.52597000  1.0 -0.8374221133
O  O131  1  0.99710000  0.99550000  0.77597000  1.0 -0.7148343282
O  O132  1  0.00290000  0.50450000  0.77597000  1.0 -0.7584535436
O  O133  1  0.74550000  0.24710000  0.97403000  1.0 -0.8374221133
O  O134  1  0.50290000  0.99550000  0.22403000  1.0 -0.8322565296
O  O135  1  0.25450000  0.25290000  0.97403000  1.0 -0.8088204818
O  O136  1  0.99710000  0.00450000  0.72403000  1.0 -0.732931401
O  O137  1  0.74550000  0.75290000  0.52597000  1.0 -0.8374221133
O  O138  1  0.75450000  0.24710000  0.02597000  1.0 -0.8374221133
O  O139  1  0.49710000  0.49550000  0.27597000  1.0 -0.8322565296
O  O140  1  0.50290000  0.00450000  0.27597000  1.0 -0.8322565296
O  O141  1  0.75450000  0.25290000  0.52597000  1.0 -0.8322565296
O  O142  1  0.49710000  0.00450000  0.77597000  1.0 -0.8497538524
O  O143  1  0.24550000  0.24710000  0.52597000  1.0 -0.8374221133
O  O144  1  0.00290000  0.99550000  0.27597000  1.0 -0.8736252742
O  O145  1  0.75450000  0.74710000  0.97403000  1.0 -0.8322565296
O  O146  1  0.74550000  0.25290000  0.47403000  1.0 -0.8322565296
O  O147  1  0.50290000  0.50450000  0.72403000  1.0 -0.6334006743
O  O148  1  0.49710000  0.99550000  0.72403000  1.0 -0.8235481934
O  O149  1  0.25450000  0.75290000  0.02597000  1.0 -0.8322565296
O  O150  1  0.49710000  0.50450000  0.77597000  1.0 -0.6207951562
O  O151  1  0.74550000  0.74710000  0.02597000  1.0 -0.8322565296
O  O152  1  0.00290000  0.99550000  0.77597000  1.0 -0.7164934831
O  O153  1  0.25450000  0.24710000  0.47403000  1.0 -0.8374221133
O  O154  1  0.24550000  0.75290000  0.97403000  1.0 -0.8322565296
O  O155  1  0.00290000  0.50450000  0.72403000  1.0 -0.6207951562
O  O156  1  0.47840000  0.66520000  0.44278000  1.0 -0.5096397575
O  O157  1  0.08480000  0.72840000  0.69278000  1.0 -0.5096397575
O  O158  1  0.52160000  0.83480000  0.44278000  1.0 -0.5096397575
O  O159  1  0.41520000  0.27160000  0.19278000  1.0 -0.5006486054
O  O160  1  0.47840000  0.33480000  0.05722000  1.0 -0.5096397575
O  O161  1  0.02160000  0.66520000  0.55722000  1.0 -0.5006486054
O  O162  1  0.91520000  0.22840000  0.80722000  1.0 -0.5209116984
O  O163  1  0.08480000  0.27160000  0.80722000  1.0 -0.2715497983
O  O164  1  0.97840000  0.16520000  0.94278000  1.0 -0.5209116984
O  O165  1  0.58480000  0.22840000  0.19278000  1.0 -0.5006486054
O  O166  1  0.02160000  0.33480000  0.94278000  1.0 -0.5096397575
O  O167  1  0.91520000  0.77160000  0.69278000  1.0 -0.5006486054
O  O168  1  0.97840000  0.83480000  0.55722000  1.0 -0.5096397575
O  O169  1  0.52160000  0.16520000  0.05722000  1.0 -0.5096397575
O  O170  1  0.41520000  0.72840000  0.30722000  1.0 -0.5006486054
O  O171  1  0.58480000  0.77160000  0.30722000  1.0 -0.5006486054
O  O172  1  0.52160000  0.33480000  0.55722000  1.0 -0.529642733
O  O173  1  0.41520000  0.77160000  0.80722000  1.0 -0.5006486054
O  O174  1  0.47840000  0.16520000  0.55722000  1.0 -0.5006486054
O  O175  1  0.08480000  0.22840000  0.30722000  1.0 -0.5096397575
O  O176  1  0.52160000  0.66520000  0.94278000  1.0 -0.48937506
O  O177  1  0.97840000  0.33480000  0.44278000  1.0 -0.48937506
O  O178  1  0.58480000  0.27160000  0.69278000  1.0 -0.529642733
O  O179  1  0.41520000  0.22840000  0.69278000  1.0 -0.3895054246
O  O180  1  0.02160000  0.83480000  0.05722000  1.0 -0.5006486054
O  O181  1  0.41520000  0.27160000  0.80722000  1.0 -0.3494447844
O  O182  1  0.97840000  0.66520000  0.05722000  1.0 -0.5006486054
O  O183  1  0.08480000  0.22840000  0.80722000  1.0 -0.1992477047
O  O184  1  0.02160000  0.16520000  0.44278000  1.0 -0.5096397575
O  O185  1  0.47840000  0.83480000  0.94278000  1.0 -0.5096397575
O  O186  1  0.08480000  0.27160000  0.69278000  1.0 -0.2902438519
O  O187  1  0.44900000  0.70570000  0.46580000  1.0 -0.4508744915
O  O188  1  0.04430000  0.69900000  0.71580000  1.0 -0.4588614838
O  O189  1  0.55100000  0.79430000  0.46580000  1.0 -0.4508744915
O  O190  1  0.45570000  0.30100000  0.21580000  1.0 -0.4508744915
O  O191  1  0.44900000  0.29430000  0.03420000  1.0 -0.4508744915
O  O192  1  0.05100000  0.70570000  0.53420000  1.0 -0.4508744915
O  O193  1  0.95570000  0.19900000  0.78420000  1.0 -0.4801619473
O  O194  1  0.04430000  0.30100000  0.78420000  1.0 -0.2902438519
O  O195  1  0.94900000  0.20570000  0.96580000  1.0 -0.4508744915
O  O196  1  0.54430000  0.19900000  0.21580000  1.0 -0.4588614838
O  O197  1  0.05100000  0.29430000  0.96580000  1.0 -0.4508744915
O  O198  1  0.95570000  0.80100000  0.71580000  1.0 -0.4508744915
O  O199  1  0.94900000  0.79430000  0.53420000  1.0 -0.4508744915
O  O200  1  0.55100000  0.20570000  0.03420000  1.0 -0.4508744915
O  O201  1  0.45570000  0.69900000  0.28420000  1.0 -0.4588614838
O  O202  1  0.54430000  0.80100000  0.28420000  1.0 -0.4588614838
O  O203  1  0.55100000  0.29430000  0.53420000  1.0 -0.4588614838
O  O204  1  0.45570000  0.80100000  0.78420000  1.0 -0.4588614838
O  O205  1  0.44900000  0.20570000  0.53420000  1.0 -0.4382325583
O  O206  1  0.04430000  0.19900000  0.28420000  1.0 -0.4588614838
O  O207  1  0.55100000  0.70570000  0.96580000  1.0 -0.4202381655
O  O208  1  0.94900000  0.29430000  0.46580000  1.0 -0.4117549535
O  O209  1  0.54430000  0.30100000  0.71580000  1.0 -0.5006486054
O  O210  1  0.45570000  0.19900000  0.71580000  1.0 -0.3794708432
O  O211  1  0.05100000  0.79430000  0.03420000  1.0 -0.4202381655
O  O212  1  0.45570000  0.30100000  0.78420000  1.0 -0.3895054246
O  O213  1  0.94900000  0.70570000  0.03420000  1.0 -0.4202381655
O  O214  1  0.04430000  0.19900000  0.78420000  1.0 -0.3214784698
O  O215  1  0.05100000  0.20570000  0.46580000  1.0 -0.4588614838
O  O216  1  0.44900000  0.79430000  0.96580000  1.0 -0.4508744915
O  O217  1  0.04430000  0.30100000  0.71580000  1.0 -0.2798334355
O  O218  1  0.45740000  0.59320000  0.45531000  1.0 -0.4508744915
O  O219  1  0.15680000  0.70740000  0.70531000  1.0 -0.4508744915
O  O220  1  0.54260000  0.90680000  0.45531000  1.0 -0.4508744915
O  O221  1  0.34320000  0.29260000  0.20531000  1.0 -0.4508744915
O  O222  1  0.45740000  0.40680000  0.04469000  1.0 -0.4508744915
O  O223  1  0.04260000  0.59320000  0.54469000  1.0 -0.4508744915
O  O224  1  0.84320000  0.20740000  0.79469000  1.0 -0.4508744915
O  O225  1  0.15680000  0.29260000  0.79469000  1.0 -0.1401683215
O  O226  1  0.95740000  0.09320000  0.95531000  1.0 -0.4508744915
O  O227  1  0.65680000  0.20740000  0.20531000  1.0 -0.4382325583
O  O228  1  0.04260000  0.40680000  0.95531000  1.0 -0.4508744915
O  O229  1  0.84320000  0.79260000  0.70531000  1.0 -0.4382325583
O  O230  1  0.95740000  0.90680000  0.54469000  1.0 -0.4508744915
O  O231  1  0.54260000  0.09320000  0.04469000  1.0 -0.4508744915
O  O232  1  0.34320000  0.70740000  0.29469000  1.0 -0.4382325583
O  O233  1  0.65680000  0.79260000  0.29469000  1.0 -0.4382325583
O  O234  1  0.54260000  0.40680000  0.54469000  1.0 -0.4508744915
O  O235  1  0.34320000  0.79260000  0.79469000  1.0 -0.4508744915
O  O236  1  0.45740000  0.09320000  0.54469000  1.0 -0.4508744915
O  O237  1  0.15680000  0.20740000  0.29469000  1.0 -0.4508744915
O  O238  1  0.54260000  0.59320000  0.95531000  1.0 -0.4508744915
O  O239  1  0.95740000  0.40680000  0.45531000  1.0 -0.4508744915
O  O240  1  0.65680000  0.29260000  0.70531000  1.0 -0.4508744915
O  O241  1  0.34320000  0.20740000  0.70531000  1.0 -0.4294079164
O  O242  1  0.04260000  0.90680000  0.04469000  1.0 -0.4508744915
O  O243  1  0.34320000  0.29260000  0.79469000  1.0 -0.4588614838
O  O244  1  0.95740000  0.59320000  0.04469000  1.0 -0.4508744915
O  O245  1  0.15680000  0.20740000  0.79469000  1.0 -0.1401683215
O  O246  1  0.04260000  0.09320000  0.45531000  1.0 -0.4508744915
O  O247  1  0.45740000  0.90680000  0.95531000  1.0 -0.4508744915
O  O248  1  0.15680000  0.29260000  0.70531000  1.0 -0.2613613115
O  O249  1  0.33630000  0.73610000  0.51759000  1.0 -0.5209116984
O  O250  1  0.01390000  0.58630000  0.76759000  1.0 -0.5096397575
O  O251  1  0.66370000  0.76390000  0.51759000  1.0 -0.5209116984
O  O252  1  0.48610000  0.41370000  0.26759000  1.0 -0.529642733
O  O253  1  0.33630000  0.26390000  0.98241000  1.0 -0.529642733
O  O254  1  0.16370000  0.73610000  0.48241000  1.0 -0.5209116984
O  O255  1  0.98610000  0.08630000  0.73241000  1.0 -0.1992477047
O  O256  1  0.01390000  0.41370000  0.73241000  1.0 -0.2208739476
O  O257  1  0.83630000  0.23610000  0.01759000  1.0 -0.5209116984
O  O258  1  0.51390000  0.08630000  0.26759000  1.0 -0.5209116984
O  O259  1  0.16370000  0.26390000  0.01759000  1.0 -0.5096397575
O  O260  1  0.98610000  0.91370000  0.76759000  1.0 -0.4801619473
O  O261  1  0.83630000  0.76390000  0.48241000  1.0 -0.5209116984
O  O262  1  0.66370000  0.23610000  0.98241000  1.0 -0.5209116984
O  O263  1  0.48610000  0.58630000  0.23241000  1.0 -0.529642733
O  O264  1  0.51390000  0.91370000  0.23241000  1.0 -0.529642733
O  O265  1  0.66370000  0.26390000  0.48241000  1.0 -0.529642733
O  O266  1  0.48610000  0.91370000  0.73241000  1.0 -0.5096397575
O  O267  1  0.33630000  0.23610000  0.48241000  1.0 -0.5209116984
O  O268  1  0.01390000  0.08630000  0.23241000  1.0 -0.580708857
O  O269  1  0.66370000  0.73610000  0.01759000  1.0 -0.5209116984
O  O270  1  0.83630000  0.26390000  0.51759000  1.0 -0.5096397575
O  O271  1  0.51390000  0.41370000  0.76759000  1.0 -0.2208739476
O  O272  1  0.48610000  0.08630000  0.76759000  1.0 -0.48937506
O  O273  1  0.16370000  0.76390000  0.98241000  1.0 -0.5096397575
O  O274  1  0.48610000  0.41370000  0.73241000  1.0 -0.2306746947
O  O275  1  0.83630000  0.73610000  0.98241000  1.0 -0.5209116984
O  O276  1  0.01390000  0.08630000  0.73241000  1.0 -0.1992477047
O  O277  1  0.16370000  0.23610000  0.51759000  1.0 -0.5006486054
O  O278  1  0.33630000  0.76390000  0.01759000  1.0 -0.529642733
O  O279  1  0.01390000  0.41370000  0.76759000  1.0 -0.2306746947
O  O280  1  0.32660000  0.77500000  0.54952000  1.0 -0.529642733
O  O281  1  0.97500000  0.57660000  0.79952000  1.0 -0.5096397575
O  O282  1  0.67340000  0.72500000  0.54952000  1.0 -0.529642733
O  O283  1  0.52500000  0.42340000  0.29952000  1.0 -0.5400351392
O  O284  1  0.32660000  0.22500000  0.95048000  1.0 -0.5209116984
O  O285  1  0.17340000  0.77500000  0.45048000  1.0 -0.529642733
O  O286  1  0.02500000  0.07660000  0.70048000  1.0 -0.2715497983
O  O287  1  0.97500000  0.42340000  0.70048000  1.0 -0.2405234429
O  O288  1  0.82660000  0.27500000  0.04952000  1.0 -0.529642733
O  O289  1  0.47500000  0.07660000  0.29952000  1.0 -0.529642733
O  O290  1  0.17340000  0.22500000  0.04952000  1.0 -0.529642733
O  O291  1  0.02500000  0.92340000  0.79952000  1.0 -0.5006486054
O  O292  1  0.82660000  0.72500000  0.45048000  1.0 -0.529642733
O  O293  1  0.67340000  0.27500000  0.95048000  1.0 -0.529642733
O  O294  1  0.52500000  0.57660000  0.20048000  1.0 -0.529642733
O  O295  1  0.47500000  0.92340000  0.20048000  1.0 -0.529642733
O  O296  1  0.67340000  0.22500000  0.45048000  1.0 -0.529642733
O  O297  1  0.52500000  0.92340000  0.70048000  1.0 -0.5209116984
O  O298  1  0.32660000  0.27500000  0.45048000  1.0 -0.529642733
O  O299  1  0.97500000  0.07660000  0.20048000  1.0 -0.5400351392
O  O300  1  0.67340000  0.77500000  0.04952000  1.0 -0.529642733
O  O301  1  0.82660000  0.22500000  0.54952000  1.0 -0.529642733
O  O302  1  0.47500000  0.42340000  0.79952000  1.0 -0.2509262748
O  O303  1  0.52500000  0.07660000  0.79952000  1.0 -0.5400351392
O  O304  1  0.17340000  0.72500000  0.95048000  1.0 -0.529642733
O  O305  1  0.52500000  0.42340000  0.70048000  1.0 -0.2208739476
O  O306  1  0.82660000  0.77500000  0.95048000  1.0 -0.529642733
O  O307  1  0.97500000  0.07660000  0.70048000  1.0 -0.2613613115
O  O308  1  0.17340000  0.27500000  0.54952000  1.0 -0.4382325583
O  O309  1  0.32660000  0.72500000  0.04952000  1.0 -0.529642733
O  O310  1  0.97500000  0.42340000  0.79952000  1.0 -0.2306746947
O  O311  1  0.37670000  0.78100000  0.58307000  1.0 -0.4294079164
O  O312  1  0.96900000  0.62670000  0.83307000  1.0 -0.4382325583
O  O313  1  0.62330000  0.71900000  0.58307000  1.0 -0.4294079164
O  O314  1  0.53100000  0.37330000  0.33307000  1.0 -0.4202381655
O  O315  1  0.37670000  0.21900000  0.91693000  1.0 -0.469390739
O  O316  1  0.12330000  0.78100000  0.41693000  1.0 -0.4202381655
O  O317  1  0.03100000  0.12670000  0.66693000  1.0 -0.2902438519
O  O318  1  0.96900000  0.37330000  0.66693000  1.0 -0.4202381655
O  O319  1  0.87670000  0.28100000  0.08307000  1.0 -0.4294079164
O  O320  1  0.46900000  0.12670000  0.33307000  1.0 -0.4294079164
O  O321  1  0.12330000  0.21900000  0.08307000  1.0 -0.4294079164
O  O322  1  0.03100000  0.87330000  0.83307000  1.0 -0.4382325583
O  O323  1  0.87670000  0.71900000  0.41693000  1.0 -0.4202381655
O  O324  1  0.62330000  0.28100000  0.91693000  1.0 -0.4294079164
O  O325  1  0.53100000  0.62670000  0.16693000  1.0 -0.4202381655
O  O326  1  0.46900000  0.87330000  0.16693000  1.0 -0.4202381655
O  O327  1  0.62330000  0.21900000  0.41693000  1.0 -0.4294079164
O  O328  1  0.53100000  0.87330000  0.66693000  1.0 -0.4294079164
O  O329  1  0.37670000  0.28100000  0.41693000  1.0 -0.4294079164
O  O330  1  0.96900000  0.12670000  0.16693000  1.0 -0.4202381655
O  O331  1  0.62330000  0.78100000  0.08307000  1.0 -0.4294079164
O  O332  1  0.87670000  0.21900000  0.58307000  1.0 -0.4382325583
O  O333  1  0.46900000  0.37330000  0.83307000  1.0 -0.4202381655
O  O334  1  0.53100000  0.12670000  0.83307000  1.0 -0.4294079164
O  O335  1  0.12330000  0.71900000  0.91693000  1.0 -0.4294079164
O  O336  1  0.53100000  0.37330000  0.66693000  1.0 -0.1992477047
O  O337  1  0.87670000  0.78100000  0.91693000  1.0 -0.4294079164
O  O338  1  0.96900000  0.12670000  0.66693000  1.0 -0.2405234429
O  O339  1  0.12330000  0.28100000  0.58307000  1.0 -0.2715497983
O  O340  1  0.37670000  0.71900000  0.08307000  1.0 -0.4294079164
O  O341  1  0.96900000  0.37330000  0.83307000  1.0 -0.3715265748
O  O342  1  0.54800000  0.63720000  0.41912000  1.0 -0.5006486054
O  O343  1  0.11280000  0.79800000  0.66912000  1.0 -0.5096397575
O  O344  1  0.45200000  0.86280000  0.41912000  1.0 -0.5006486054
O  O345  1  0.38720000  0.20200000  0.16912000  1.0 -0.5006486054
O  O346  1  0.54800000  0.36280000  0.08088000  1.0 -0.5006486054
O  O347  1  0.95200000  0.63720000  0.58088000  1.0 -0.5006486054
O  O348  1  0.88720000  0.29800000  0.83088000  1.0 -0.5006486054
O  O349  1  0.11280000  0.20200000  0.83088000  1.0 -0.2095360177
O  O350  1  0.04800000  0.13720000  0.91912000  1.0 -0.5096397575
O  O351  1  0.61280000  0.29800000  0.16912000  1.0 -0.48937506
O  O352  1  0.95200000  0.36280000  0.91912000  1.0 -0.529642733
O  O353  1  0.88720000  0.70200000  0.66912000  1.0 -0.48937506
O  O354  1  0.04800000  0.86280000  0.58088000  1.0 -0.5096397575
O  O355  1  0.45200000  0.13720000  0.08088000  1.0 -0.5006486054
O  O356  1  0.38720000  0.79800000  0.33088000  1.0 -0.48937506
O  O357  1  0.61280000  0.70200000  0.33088000  1.0 -0.48937506
O  O358  1  0.45200000  0.36280000  0.58088000  1.0 -0.529642733
O  O359  1  0.38720000  0.70200000  0.83088000  1.0 -0.5006486054
O  O360  1  0.54800000  0.13720000  0.58088000  1.0 -0.5096397575
O  O361  1  0.11280000  0.29800000  0.33088000  1.0 -0.5006486054
O  O362  1  0.45200000  0.63720000  0.91912000  1.0 -0.5096397575
O  O363  1  0.04800000  0.36280000  0.41912000  1.0 -0.5096397575
O  O364  1  0.61280000  0.20200000  0.66912000  1.0 -0.5096397575
O  O365  1  0.38720000  0.29800000  0.66912000  1.0 -0.1101811951
O  O366  1  0.95200000  0.86280000  0.08088000  1.0 -0.5006486054
O  O367  1  0.38720000  0.20200000  0.83088000  1.0 -0.0888406341
O  O368  1  0.04800000  0.63720000  0.08088000  1.0 -0.5006486054
O  O369  1  0.11280000  0.29800000  0.83088000  1.0 -0.0888406341
O  O370  1  0.95200000  0.13720000  0.41912000  1.0 -0.48937506
O  O371  1  0.54800000  0.86280000  0.91912000  1.0 -0.5006486054
O  O372  1  0.11280000  0.20200000  0.66912000  1.0 -0.0888406341
O  O373  1  0.60590000  0.65180000  0.41797000  1.0 -0.4294079164
O  O374  1  0.09820000  0.85590000  0.66797000  1.0 -0.469390739
O  O375  1  0.39410000  0.84820000  0.41797000  1.0 -0.4294079164
O  O376  1  0.40180000  0.14410000  0.16797000  1.0 -0.4294079164
O  O377  1  0.60590000  0.34820000  0.08203000  1.0 -0.4294079164
O  O378  1  0.89410000  0.65180000  0.58203000  1.0 -0.4294079164
O  O379  1  0.90180000  0.35590000  0.83203000  1.0 -0.4801619473
O  O380  1  0.09820000  0.14410000  0.83203000  1.0 -0.3304959969
O  O381  1  0.10590000  0.15180000  0.91797000  1.0 -0.5209116984
O  O382  1  0.59820000  0.35590000  0.16797000  1.0 -0.4382325583
O  O383  1  0.89410000  0.34820000  0.91797000  1.0 -0.469390739
O  O384  1  0.90180000  0.64410000  0.66797000  1.0 -0.4382325583
O  O385  1  0.10590000  0.84820000  0.58203000  1.0 -0.4382325583
O  O386  1  0.39410000  0.15180000  0.08203000  1.0 -0.4294079164
O  O387  1  0.40180000  0.85590000  0.33203000  1.0 -0.4382325583
O  O388  1  0.59820000  0.64410000  0.33203000  1.0 -0.4382325583
O  O389  1  0.39410000  0.34820000  0.58203000  1.0 -0.5400351392
O  O390  1  0.40180000  0.64410000  0.83203000  1.0 -0.4294079164
O  O391  1  0.60590000  0.15180000  0.58203000  1.0 -0.4294079164
O  O392  1  0.09820000  0.35590000  0.33203000  1.0 -0.4202381655
O  O393  1  0.39410000  0.65180000  0.91797000  1.0 -0.4294079164
O  O394  1  0.10590000  0.34820000  0.41797000  1.0 -0.4294079164
O  O395  1  0.59820000  0.14410000  0.66797000  1.0 -0.4382325583
O  O396  1  0.40180000  0.35590000  0.66797000  1.0 -0.0699674866
O  O397  1  0.89410000  0.84820000  0.08203000  1.0 -0.4117549535
O  O398  1  0.40180000  0.14410000  0.83203000  1.0 -0.0795118742
O  O399  1  0.10590000  0.65180000  0.08203000  1.0 -0.4117549535
O  O400  1  0.09820000  0.35590000  0.83203000  1.0 -0.0795118742
O  O401  1  0.89410000  0.15180000  0.41797000  1.0 -0.4117549535
O  O402  1  0.60590000  0.84820000  0.91797000  1.0 -0.4117549535
O  O403  1  0.09820000  0.14410000  0.66797000  1.0 -0.0888406341
O  O404  1  0.53030000  0.61140000  0.46811000  1.0 -0.4117549535
O  O405  1  0.13860000  0.78030000  0.71811000  1.0 -0.4117549535
O  O406  1  0.46970000  0.88860000  0.46811000  1.0 -0.4117549535
O  O407  1  0.36140000  0.21970000  0.21811000  1.0 -0.4117549535
O  O408  1  0.53030000  0.38860000  0.03189000  1.0 -0.4117549535
O  O409  1  0.96970000  0.61140000  0.53189000  1.0 -0.4117549535
O  O410  1  0.86140000  0.28030000  0.78189000  1.0 -0.4010052265
O  O411  1  0.13860000  0.21970000  0.78189000  1.0 -0.1192279522
O  O412  1  0.03030000  0.11140000  0.96811000  1.0 -0.4117549535
O  O413  1  0.63860000  0.28030000  0.21811000  1.0 -0.4117549535
O  O414  1  0.96970000  0.38860000  0.96811000  1.0 -0.4117549535
O  O415  1  0.86140000  0.71970000  0.71811000  1.0 -0.4117549535
O  O416  1  0.03030000  0.88860000  0.53189000  1.0 -0.4117549535
O  O417  1  0.46970000  0.11140000  0.03189000  1.0 -0.4117549535
O  O418  1  0.36140000  0.78030000  0.28189000  1.0 -0.4117549535
O  O419  1  0.63860000  0.71970000  0.28189000  1.0 -0.4117549535
O  O420  1  0.46970000  0.38860000  0.53189000  1.0 -0.4202381655
O  O421  1  0.36140000  0.71970000  0.78189000  1.0 -0.4117549535
O  O422  1  0.53030000  0.11140000  0.53189000  1.0 -0.4117549535
O  O423  1  0.13860000  0.28030000  0.28189000  1.0 -0.4117549535
O  O424  1  0.46970000  0.61140000  0.96811000  1.0 -0.4117549535
O  O425  1  0.03030000  0.38860000  0.46811000  1.0 -0.4117549535
O  O426  1  0.63860000  0.21970000  0.71811000  1.0 -0.4117549535
O  O427  1  0.36140000  0.28030000  0.71811000  1.0 -0.2509262748
O  O428  1  0.96970000  0.88860000  0.03189000  1.0 -0.4202381655
O  O429  1  0.36140000  0.21970000  0.78189000  1.0 -0.2715497983
O  O430  1  0.03030000  0.61140000  0.03189000  1.0 -0.4202381655
O  O431  1  0.13860000  0.28030000  0.78189000  1.0 -0.1005984017
O  O432  1  0.96970000  0.11140000  0.46811000  1.0 -0.4202381655
O  O433  1  0.53030000  0.88860000  0.96811000  1.0 -0.4202381655
O  O434  1  0.13860000  0.21970000  0.71811000  1.0 -0.3021247344
O  O435  1  0.73700000  0.66666667  0.45590000  1.0 -0.5209116984
O  O436  1  0.08330000  0.98700000  0.70590000  1.0 -0.030941723
O  O437  1  0.26300000  0.83330000  0.45590000  1.0 -0.5209116984
O  O438  1  0.41670000  0.01300000  0.20590000  1.0 -0.5209116984
O  O439  1  0.73700000  0.33333333  0.04410000  1.0 -0.5209116984
O  O440  1  0.76300000  0.66666667  0.54410000  1.0 -0.5209116984
O  O441  1  0.91670000  0.48700000  0.79410000  1.0 -0.4294079164
O  O442  1  0.08330000  0.01300000  0.79410000  1.0 -0.4801619473
O  O443  1  0.23700000  0.16670000  0.95590000  1.0 -0.1005984017
O  O444  1  0.58330000  0.48700000  0.20590000  1.0 -0.5209116984
O  O445  1  0.76300000  0.33333333  0.95590000  1.0 -0.5096397575
O  O446  1  0.91670000  0.51300000  0.70590000  1.0 -0.5096397575
O  O447  1  0.23700000  0.83330000  0.54410000  1.0 -0.5096397575
O  O448  1  0.26300000  0.16670000  0.04410000  1.0 -0.5096397575
O  O449  1  0.41670000  0.98700000  0.29410000  1.0 -0.5096397575
O  O450  1  0.58330000  0.51300000  0.29410000  1.0 -0.5209116984
O  O451  1  0.26300000  0.33333333  0.54410000  1.0 -0.1101811951
O  O452  1  0.41670000  0.51300000  0.79410000  1.0 -0.469390739
O  O453  1  0.73700000  0.16670000  0.54410000  1.0 -0.5096397575
O  O454  1  0.08330000  0.48700000  0.29410000  1.0 -0.4010052265
O  O455  1  0.26300000  0.66666667  0.95590000  1.0 -0.5096397575
O  O456  1  0.23700000  0.33333333  0.45590000  1.0 -0.5096397575
O  O457  1  0.58330000  0.01300000  0.70590000  1.0 -0.5209116984
O  O458  1  0.41670000  0.48700000  0.70590000  1.0 -0.5006486054
O  O459  1  0.76300000  0.83330000  0.04410000  1.0 -0.5096397575
O  O460  1  0.41670000  0.01300000  0.79410000  1.0 -0.0888406341
O  O461  1  0.23700000  0.66666667  0.04410000  1.0 -0.5096397575
O  O462  1  0.08330000  0.48700000  0.79410000  1.0 -0.16000267
O  O463  1  0.76300000  0.16670000  0.45590000  1.0 -0.5096397575
O  O464  1  0.73700000  0.83330000  0.95590000  1.0 -0.5096397575
O  O465  1  0.08330000  0.01300000  0.70590000  1.0 -0.0020969194
O  O466  1  0.78660000  0.65260000  0.43504000  1.0 -0.5209116984
O  O467  1  0.09740000  0.03660000  0.68504000  1.0 -0.312305917
O  O468  1  0.21340000  0.84740000  0.43504000  1.0 -0.5209116984
O  O469  1  0.40260000  0.96340000  0.18504000  1.0 -0.529642733
O  O470  1  0.78660000  0.34740000  0.06496000  1.0 -0.5209116984
O  O471  1  0.71340000  0.65260000  0.56496000  1.0 -0.5209116984
O  O472  1  0.90260000  0.53660000  0.81496000  1.0 -0.4801619473
O  O473  1  0.09740000  0.96340000  0.81496000  1.0 -0.5209116984
O  O474  1  0.28660000  0.15260000  0.93504000  1.0 -0.1992477047
O  O475  1  0.59740000  0.53660000  0.18504000  1.0 -0.529642733
O  O476  1  0.71340000  0.34740000  0.93504000  1.0 -0.529642733
O  O477  1  0.90260000  0.46340000  0.68504000  1.0 -0.5096397575
O  O478  1  0.28660000  0.84740000  0.56496000  1.0 -0.529642733
O  O479  1  0.21340000  0.15260000  0.06496000  1.0 -0.529642733
O  O480  1  0.40260000  0.03660000  0.31496000  1.0 -0.529642733
O  O481  1  0.59740000  0.46340000  0.31496000  1.0 -0.529642733
O  O482  1  0.21340000  0.34740000  0.56496000  1.0 -0.361450802
O  O483  1  0.40260000  0.46340000  0.81496000  1.0 -0.5400351392
O  O484  1  0.78660000  0.15260000  0.56496000  1.0 -0.529642733
O  O485  1  0.09740000  0.53660000  0.31496000  1.0 -0.529642733
O  O486  1  0.21340000  0.65260000  0.93504000  1.0 -0.529642733
O  O487  1  0.28660000  0.34740000  0.43504000  1.0 -0.5209116984
O  O488  1  0.59740000  0.96340000  0.68504000  1.0 -0.529642733
O  O489  1  0.40260000  0.53660000  0.68504000  1.0 -0.5400351392
O  O490  1  0.71340000  0.84740000  0.06496000  1.0 -0.529642733
O  O491  1  0.40260000  0.96340000  0.81496000  1.0 -0.2306746947
O  O492  1  0.28660000  0.65260000  0.06496000  1.0 -0.529642733
O  O493  1  0.09740000  0.53660000  0.81496000  1.0 -0.16000267
O  O494  1  0.71340000  0.15260000  0.43504000  1.0 -0.529642733
O  O495  1  0.78660000  0.84740000  0.93504000  1.0 -0.529642733
O  O496  1  0.09740000  0.96340000  0.68504000  1.0 -0.1491777561
O  O497  1  0.79620000  0.58700000  0.41908000  1.0 -0.4117549535
O  O498  1  0.16300000  0.04620000  0.66908000  1.0 -0.3304959969
O  O499  1  0.20380000  0.91300000  0.41908000  1.0 -0.4117549535
O  O500  1  0.33700000  0.95380000  0.16908000  1.0 -0.4294079164
O  O501  1  0.79620000  0.41300000  0.08092000  1.0 -0.4117549535
O  O502  1  0.70380000  0.58700000  0.58092000  1.0 -0.4202381655
O  O503  1  0.83700000  0.54620000  0.83092000  1.0 -0.4294079164
O  O504  1  0.16300000  0.95380000  0.83092000  1.0 -0.4117549535
O  O505  1  0.29620000  0.08700000  0.91908000  1.0 -0.0795118742
O  O506  1  0.66300000  0.54620000  0.16908000  1.0 -0.4294079164
O  O507  1  0.70380000  0.41300000  0.91908000  1.0 -0.4117549535
O  O508  1  0.83700000  0.45380000  0.66908000  1.0 -0.4117549535
O  O509  1  0.29620000  0.91300000  0.58092000  1.0 -0.4117549535
O  O510  1  0.20380000  0.08700000  0.08092000  1.0 -0.4117549535
O  O511  1  0.33700000  0.04620000  0.33092000  1.0 -0.4117549535
O  O512  1  0.66300000  0.45380000  0.33092000  1.0 -0.4294079164
O  O513  1  0.20380000  0.41300000  0.58092000  1.0 -0.48937506
O  O514  1  0.33700000  0.45380000  0.83092000  1.0 -0.4294079164
O  O515  1  0.79620000  0.08700000  0.58092000  1.0 -0.4202381655
O  O516  1  0.16300000  0.54620000  0.33092000  1.0 -0.4117549535
O  O517  1  0.20380000  0.58700000  0.91908000  1.0 -0.4294079164
O  O518  1  0.29620000  0.41300000  0.41908000  1.0 -0.4117549535
O  O519  1  0.66300000  0.95380000  0.66908000  1.0 -0.4202381655
O  O520  1  0.33700000  0.54620000  0.66908000  1.0 -0.4010052265
O  O521  1  0.70380000  0.91300000  0.08092000  1.0 -0.4202381655
O  O522  1  0.33700000  0.95380000  0.83092000  1.0 -0.4588614838
O  O523  1  0.29620000  0.58700000  0.08092000  1.0 -0.4202381655
O  O524  1  0.16300000  0.54620000  0.83092000  1.0 -0.0795118742
O  O525  1  0.70380000  0.08700000  0.41908000  1.0 -0.4202381655
O  O526  1  0.79620000  0.91300000  0.91908000  1.0 -0.4202381655
O  O527  1  0.16300000  0.95380000  0.66908000  1.0 -0.2306746947
O  O528  1  0.47550000  0.61410000  0.39983000  1.0 -0.5603976369
O  O529  1  0.13590000  0.72550000  0.64983000  1.0 -0.5603976369
O  O530  1  0.52450000  0.88590000  0.39983000  1.0 -0.5603976369
O  O531  1  0.36410000  0.27450000  0.14983000  1.0 -0.5603976369
O  O532  1  0.47550000  0.38590000  0.10017000  1.0 -0.5603976369
O  O533  1  0.02450000  0.61410000  0.60017000  1.0 -0.5603976369
O  O534  1  0.86410000  0.22550000  0.85017000  1.0 -0.5461134942
O  O535  1  0.13590000  0.27450000  0.85017000  1.0 -0.1005984017
O  O536  1  0.97550000  0.11410000  0.89983000  1.0 -0.5461134942
O  O537  1  0.63590000  0.22550000  0.14983000  1.0 -0.5461134942
O  O538  1  0.02450000  0.38590000  0.89983000  1.0 -0.5006486054
O  O539  1  0.86410000  0.77450000  0.64983000  1.0 -0.5461134942
O  O540  1  0.97550000  0.88590000  0.60017000  1.0 -0.5603976369
O  O541  1  0.52450000  0.11410000  0.10017000  1.0 -0.5603976369
O  O542  1  0.36410000  0.72550000  0.35017000  1.0 -0.5461134942
O  O543  1  0.63590000  0.77450000  0.35017000  1.0 -0.5400351392
O  O544  1  0.52450000  0.38590000  0.60017000  1.0 -0.529642733
O  O545  1  0.36410000  0.77450000  0.85017000  1.0 -0.5603976369
O  O546  1  0.47550000  0.11410000  0.60017000  1.0 -0.5461134942
O  O547  1  0.13590000  0.22550000  0.35017000  1.0 -0.5603976369
O  O548  1  0.52450000  0.61410000  0.89983000  1.0 -0.580708857
O  O549  1  0.97550000  0.38590000  0.39983000  1.0 -0.580708857
O  O550  1  0.63590000  0.27450000  0.64983000  1.0 -0.529642733
O  O551  1  0.36410000  0.22550000  0.64983000  1.0 -0.3715265748
O  O552  1  0.02450000  0.88590000  0.10017000  1.0 -0.5971865313
O  O553  1  0.36410000  0.27450000  0.85017000  1.0 -0.3494447844
O  O554  1  0.97550000  0.61410000  0.10017000  1.0 -0.5971865313
O  O555  1  0.13590000  0.22550000  0.85017000  1.0 -0.2509262748
O  O556  1  0.02450000  0.11410000  0.39983000  1.0 -0.5712690112
O  O557  1  0.47550000  0.88590000  0.89983000  1.0 -0.5603976369
O  O558  1  0.13590000  0.27450000  0.64983000  1.0 -0.0795118742
O  O559  1  0.45230000  0.58920000  0.36532000  1.0 -0.529642733
O  O560  1  0.16080000  0.70230000  0.61532000  1.0 -0.5209116984
O  O561  1  0.54770000  0.91080000  0.36532000  1.0 -0.529642733
O  O562  1  0.33920000  0.29770000  0.11532000  1.0 -0.5209116984
O  O563  1  0.45230000  0.41080000  0.13468000  1.0 -0.529642733
O  O564  1  0.04770000  0.58920000  0.63468000  1.0 -0.5461134942
O  O565  1  0.83920000  0.20230000  0.88468000  1.0 -0.5096397575
O  O566  1  0.16080000  0.29770000  0.88468000  1.0 -0.0888406341
O  O567  1  0.95230000  0.08920000  0.86532000  1.0 -0.529642733
O  O568  1  0.66080000  0.20230000  0.11532000  1.0 -0.5209116984
O  O569  1  0.04770000  0.41080000  0.86532000  1.0 -0.5096397575
O  O570  1  0.83920000  0.79770000  0.61532000  1.0 -0.529642733
O  O571  1  0.95230000  0.91080000  0.63468000  1.0 -0.5712690112
O  O572  1  0.54770000  0.08920000  0.13468000  1.0 -0.529642733
O  O573  1  0.33920000  0.70230000  0.38468000  1.0 -0.5209116984
O  O574  1  0.66080000  0.79770000  0.38468000  1.0 -0.5209116984
O  O575  1  0.54770000  0.41080000  0.63468000  1.0 -0.4588614838
O  O576  1  0.33920000  0.79770000  0.88468000  1.0 -0.529642733
O  O577  1  0.45230000  0.08920000  0.63468000  1.0 -0.5209116984
O  O578  1  0.16080000  0.20230000  0.38468000  1.0 -0.5209116984
O  O579  1  0.54770000  0.58920000  0.86532000  1.0 -0.5461134942
O  O580  1  0.95230000  0.41080000  0.36532000  1.0 -0.5209116984
O  O581  1  0.66080000  0.29770000  0.61532000  1.0 -0.5006486054
O  O582  1  0.33920000  0.20230000  0.61532000  1.0 -0.4117549535
O  O583  1  0.04770000  0.91080000  0.13468000  1.0 -0.529642733
O  O584  1  0.33920000  0.29770000  0.88468000  1.0 -0.1192279522
O  O585  1  0.95230000  0.58920000  0.13468000  1.0 -0.529642733
O  O586  1  0.16080000  0.20230000  0.88468000  1.0 -0.2902438519
O  O587  1  0.04770000  0.08920000  0.36532000  1.0 -0.529642733
O  O588  1  0.45230000  0.91080000  0.86532000  1.0 -0.5712690112
O  O589  1  0.16080000  0.29770000  0.61532000  1.0 -0.1101811951
O  O590  1  0.51502000  0.56105000  0.42709000  1.0 -0.4294079164
O  O591  1  0.18895000  0.76502000  0.67709000  1.0 -0.4294079164
O  O592  1  0.48498000  0.93895000  0.42709000  1.0 -0.4294079164
O  O593  1  0.31105000  0.23498000  0.17709000  1.0 -0.4294079164
O  O594  1  0.51502000  0.43895000  0.07291000  1.0 -0.4294079164
O  O595  1  0.98498000  0.56105000  0.57291000  1.0 -0.4294079164
O  O596  1  0.81105000  0.26502000  0.82291000  1.0 -0.4294079164
O  O597  1  0.18895000  0.23498000  0.82291000  1.0 -0.1902425891
O  O598  1  0.01502000  0.06105000  0.92709000  1.0 -0.4382325583
O  O599  1  0.68895000  0.26502000  0.17709000  1.0 -0.4294079164
O  O600  1  0.98498000  0.43895000  0.92709000  1.0 -0.4382325583
O  O601  1  0.81105000  0.73498000  0.67709000  1.0 -0.4294079164
O  O602  1  0.01502000  0.93895000  0.57291000  1.0 -0.4294079164
O  O603  1  0.48498000  0.06105000  0.07291000  1.0 -0.4294079164
O  O604  1  0.31105000  0.76502000  0.32291000  1.0 -0.4294079164
O  O605  1  0.68895000  0.73498000  0.32291000  1.0 -0.4294079164
O  O606  1  0.48498000  0.43895000  0.57291000  1.0 -0.4508744915
O  O607  1  0.31105000  0.73498000  0.82291000  1.0 -0.4382325583
O  O608  1  0.51502000  0.06105000  0.57291000  1.0 -0.4294079164
O  O609  1  0.18895000  0.26502000  0.32291000  1.0 -0.4294079164
O  O610  1  0.48498000  0.56105000  0.92709000  1.0 -0.4294079164
O  O611  1  0.01502000  0.43895000  0.42709000  1.0 -0.4294079164
O  O612  1  0.68895000  0.23498000  0.67709000  1.0 -0.4294079164
O  O613  1  0.31105000  0.26502000  0.67709000  1.0 -0.361450802
O  O614  1  0.98498000  0.93895000  0.07291000  1.0 -0.4294079164
O  O615  1  0.31105000  0.23498000  0.82291000  1.0 -0.3494447844
O  O616  1  0.01502000  0.56105000  0.07291000  1.0 -0.4294079164
O  O617  1  0.18895000  0.26502000  0.82291000  1.0 -0.1299770603
O  O618  1  0.98498000  0.06105000  0.42709000  1.0 -0.4294079164
O  O619  1  0.51502000  0.93895000  0.92709000  1.0 -0.4294079164
O  O620  1  0.18895000  0.23498000  0.67709000  1.0 -0.361450802
O  O621  1  0.42370000  0.50310000  0.30134000  1.0 -0.48937506
O  O622  1  0.24690000  0.67370000  0.55134000  1.0 -0.4801619473
O  O623  1  0.57630000  0.99690000  0.30134000  1.0 -0.4801619473
O  O624  1  0.25310000  0.32630000  0.05134000  1.0 -0.4801619473
O  O625  1  0.42370000  0.49690000  0.19866000  1.0 -0.48937506
O  O626  1  0.07630000  0.50310000  0.69866000  1.0 -0.5096397575
O  O627  1  0.75310000  0.17370000  0.94866000  1.0 -0.4801619473
O  O628  1  0.24690000  0.32630000  0.94866000  1.0 -0.4010052265
O  O629  1  0.92370000  0.00310000  0.80134000  1.0 -0.5096397575
O  O630  1  0.74690000  0.17370000  0.05134000  1.0 -0.4801619473
O  O631  1  0.07630000  0.49690000  0.80134000  1.0 -0.0397310453
O  O632  1  0.75310000  0.82630000  0.55134000  1.0 -0.48937506
O  O633  1  0.92370000  0.99690000  0.69866000  1.0 -0.4382325583
O  O634  1  0.57630000  0.00310000  0.19866000  1.0 -0.4801619473
O  O635  1  0.25310000  0.67370000  0.44866000  1.0 -0.48937506
O  O636  1  0.74690000  0.82630000  0.44866000  1.0 -0.48937506
O  O637  1  0.57630000  0.49690000  0.69866000  1.0 -0.4010052265
O  O638  1  0.25310000  0.82630000  0.94866000  1.0 -0.469390739
O  O639  1  0.42370000  0.00310000  0.69866000  1.0 -0.4588614838
O  O640  1  0.24690000  0.17370000  0.44866000  1.0 -0.4801619473
O  O641  1  0.57630000  0.50310000  0.80134000  1.0 -0.5006486054
O  O642  1  0.92370000  0.49690000  0.30134000  1.0 -0.4117549535
O  O643  1  0.74690000  0.32630000  0.55134000  1.0 -0.469390739
O  O644  1  0.25310000  0.17370000  0.55134000  1.0 -0.5006486054
O  O645  1  0.07630000  0.99690000  0.19866000  1.0 -0.4588614838
O  O646  1  0.25310000  0.32630000  0.94866000  1.0 -0.4010052265
O  O647  1  0.92370000  0.50310000  0.19866000  1.0 -0.4010052265
O  O648  1  0.24690000  0.17370000  0.94866000  1.0 -0.0397310453
O  O649  1  0.07630000  0.00310000  0.30134000  1.0 -0.4801619473
O  O650  1  0.42370000  0.99690000  0.80134000  1.0 0.0085699419
O  O651  1  0.24690000  0.32630000  0.55134000  1.0 -0.0093931289
O  O652  1  0.37060000  0.49150000  0.28466000  1.0 -0.4801619473
O  O653  1  0.25850000  0.62060000  0.53466000  1.0 -0.5006486054
O  O654  1  0.62940000  0.00850000  0.28466000  1.0 -0.469390739
O  O655  1  0.24150000  0.37940000  0.03466000  1.0 -0.5209116984
O  O656  1  0.37060000  0.50850000  0.21534000  1.0 -0.4801619473
O  O657  1  0.12940000  0.49150000  0.71534000  1.0 -0.529642733
O  O658  1  0.74150000  0.12060000  0.96534000  1.0 -0.48937506
O  O659  1  0.25850000  0.37940000  0.96534000  1.0 -0.0699674866
O  O660  1  0.87060000  0.99150000  0.78466000  1.0 -0.4801619473
O  O661  1  0.75850000  0.12060000  0.03466000  1.0 -0.48937506
O  O662  1  0.12940000  0.50850000  0.78466000  1.0 -0.1902425891
O  O663  1  0.74150000  0.87940000  0.53466000  1.0 -0.48937506
O  O664  1  0.87060000  0.00850000  0.71534000  1.0 -0.4294079164
O  O665  1  0.62940000  0.99150000  0.21534000  1.0 -0.469390739
O  O666  1  0.24150000  0.62060000  0.46534000  1.0 -0.48937506
O  O667  1  0.75850000  0.87940000  0.46534000  1.0 -0.48937506
O  O668  1  0.62940000  0.50850000  0.71534000  1.0 -0.469390739
O  O669  1  0.24150000  0.87940000  0.96534000  1.0 -0.48937506
O  O670  1  0.37060000  0.99150000  0.71534000  1.0 -0.529642733
O  O671  1  0.25850000  0.12060000  0.46534000  1.0 -0.5006486054
O  O672  1  0.62940000  0.49150000  0.78466000  1.0 -0.5006486054
O  O673  1  0.87060000  0.50850000  0.28466000  1.0 -0.4588614838
O  O674  1  0.75850000  0.37940000  0.53466000  1.0 -0.48937506
O  O675  1  0.24150000  0.12060000  0.53466000  1.0 -0.4382325583
O  O676  1  0.12940000  0.00850000  0.21534000  1.0 -0.48937506
O  O677  1  0.24150000  0.37940000  0.96534000  1.0 -0.0699674866
O  O678  1  0.87060000  0.49150000  0.21534000  1.0 -0.4588614838
O  O679  1  0.25850000  0.12060000  0.96534000  1.0 -0.16000267
O  O680  1  0.12940000  0.99150000  0.28466000  1.0 -0.5006486054
O  O681  1  0.37060000  0.00850000  0.78466000  1.0 -0.1192279522
O  O682  1  0.25850000  0.37940000  0.53466000  1.0 -0.0888406341
O  O683  1  0.31630000  0.47430000  0.31141000  1.0 -0.4202381655
O  O684  1  0.27570000  0.56630000  0.56141000  1.0 -0.4202381655
O  O685  1  0.68370000  0.02570000  0.31141000  1.0 -0.4382325583
O  O686  1  0.22430000  0.43370000  0.06141000  1.0 -0.4202381655
O  O687  1  0.31630000  0.52570000  0.18859000  1.0 -0.4202381655
O  O688  1  0.18370000  0.47430000  0.68859000  1.0 -0.4382325583
O  O689  1  0.72430000  0.06630000  0.93859000  1.0 -0.4202381655
O  O690  1  0.27570000  0.43370000  0.93859000  1.0 -0.2613613115
O  O691  1  0.81630000  0.97430000  0.81141000  1.0 -0.4202381655
O  O692  1  0.77570000  0.06630000  0.06141000  1.0 -0.4202381655
O  O693  1  0.18370000  0.52570000  0.81141000  1.0 -0.0795118742
O  O694  1  0.72430000  0.93370000  0.56141000  1.0 -0.4202381655
O  O695  1  0.81630000  0.02570000  0.68859000  1.0 -0.4117549535
O  O696  1  0.68370000  0.97430000  0.18859000  1.0 -0.4382325583
O  O697  1  0.22430000  0.56630000  0.43859000  1.0 -0.4202381655
O  O698  1  0.77570000  0.93370000  0.43859000  1.0 -0.4202381655
O  O699  1  0.68370000  0.52570000  0.68859000  1.0 -0.4202381655
O  O700  1  0.22430000  0.93370000  0.93859000  1.0 -0.4202381655
O  O701  1  0.31630000  0.97430000  0.68859000  1.0 -0.4801619473
O  O702  1  0.27570000  0.06630000  0.43859000  1.0 -0.4202381655
O  O703  1  0.68370000  0.47430000  0.81141000  1.0 -0.4202381655
O  O704  1  0.81630000  0.52570000  0.31141000  1.0 -0.4117549535
O  O705  1  0.77570000  0.43370000  0.56141000  1.0 -0.4202381655
O  O706  1  0.22430000  0.06630000  0.56141000  1.0 -0.3895054246
O  O707  1  0.18370000  0.02570000  0.18859000  1.0 -0.4202381655
O  O708  1  0.22430000  0.43370000  0.93859000  1.0 -0.2715497983
O  O709  1  0.81630000  0.47430000  0.18859000  1.0 -0.4117549535
O  O710  1  0.27570000  0.06630000  0.93859000  1.0 -0.0888406341
O  O711  1  0.18370000  0.97430000  0.31141000  1.0 -0.4202381655
O  O712  1  0.31630000  0.02570000  0.81141000  1.0 -0.0795118742
O  O713  1  0.27570000  0.43370000  0.56141000  1.0 -0.0397310453
O  O714  1  0.22920000  0.17680000  0.88690000  1.0 -0.1401683215
O  O715  1  0.92680000  0.47920000  0.86310000  1.0 -0.2095360177
O  O716  1  0.42680000  0.47920000  0.63690000  1.0 -0.16000267
O  O717  1  0.27080000  0.32320000  0.61310000  1.0 -0.0888406341
O  O718  1  0.27080000  0.17680000  0.88690000  1.0 -0.0594661196
O  O719  1  0.22920000  0.32320000  0.88690000  1.0 -0.1101811951
O  O720  1  0.22920000  0.17680000  0.61310000  1.0 -0.0795118742
O  O721  1  0.20760000  0.27890000  0.92170000  1.0 -0.1192279522
O  O722  1  0.02890000  0.45760000  0.82830000  1.0 -0.0397310453
O  O723  1  0.97110000  0.95760000  0.67170000  1.0 0.8338293476
O  O724  1  0.52890000  0.45760000  0.67170000  1.0 -0.1005984017
O  O725  1  0.29240000  0.27890000  0.92170000  1.0 -0.1801726518
O  O726  1  0.20760000  0.22110000  0.92170000  1.0 -0.1708846832
O  O727  1  0.47110000  0.95760000  0.82830000  1.0 0.5192706628
O  O728  1  0.20760000  0.27890000  0.57830000  1.0 -0.2306746947
O  O729  1  0.47520000  0.65540000  0.36095000  1.0 0.7708098846
O  O730  1  0.09460000  0.72520000  0.61095000  1.0 0.7708098846
O  O731  1  0.52480000  0.84460000  0.36095000  1.0 0.7708098846
O  O732  1  0.40540000  0.27480000  0.11095000  1.0 0.7708098846
O  O733  1  0.47520000  0.34460000  0.13905000  1.0 0.7708098846
O  O734  1  0.02480000  0.65540000  0.63905000  1.0 0.7754567308
O  O735  1  0.90540000  0.22520000  0.88905000  1.0 0.6604075475
O  O736  1  0.09460000  0.27480000  0.88905000  1.0 -0.0795118742
O  O737  1  0.97520000  0.15540000  0.86095000  1.0 0.6663395508
O  O738  1  0.59460000  0.22520000  0.11095000  1.0 0.7635999762
O  O739  1  0.02480000  0.34460000  0.86095000  1.0 -0.2306746947
O  O740  1  0.90540000  0.77480000  0.61095000  1.0 0.7635999762
O  O741  1  0.97520000  0.84460000  0.63905000  1.0 0.7754567308
O  O742  1  0.52480000  0.15540000  0.13905000  1.0 0.7708098846
O  O743  1  0.40540000  0.72520000  0.38905000  1.0 0.7635999762
O  O744  1  0.59460000  0.77480000  0.38905000  1.0 0.7635999762
O  O745  1  0.52480000  0.34460000  0.63905000  1.0 -0.1101811951
O  O746  1  0.40540000  0.77480000  0.88905000  1.0 0.7635999762
O  O747  1  0.47520000  0.15540000  0.63905000  1.0 0.6964647515
O  O748  1  0.09460000  0.22520000  0.38905000  1.0 0.7635999762
O  O749  1  0.52480000  0.65540000  0.86095000  1.0 0.9988632245
O  O750  1  0.97520000  0.34460000  0.36095000  1.0 1.0113933725
O  O751  1  0.59460000  0.27480000  0.61095000  1.0 0.6098035878
O  O752  1  0.40540000  0.22520000  0.61095000  1.0 0.1510954652
O  O753  1  0.02480000  0.84460000  0.13905000  1.0 1.1296215299
O  O754  1  0.40540000  0.27480000  0.88905000  1.0 -0.2509262748
O  O755  1  0.97520000  0.65540000  0.13905000  1.0 1.1296215299
O  O756  1  0.09460000  0.22520000  0.88905000  1.0 0.1005048675
O  O757  1  0.02480000  0.15540000  0.36095000  1.0 0.8057249827
O  O758  1  0.47520000  0.84460000  0.86095000  1.0 0.7893375797
O  O759  1  0.09460000  0.27480000  0.61095000  1.0 -0.2208739476
O  O760  1  0.35240000  0.84500000  0.50120000  1.0 -0.2902438519
O  O761  1  0.90500000  0.60240000  0.75120000  1.0 -0.361450802
O  O762  1  0.64760000  0.65500000  0.50120000  1.0 -0.2798334355
O  O763  1  0.59500000  0.39760000  0.25120000  1.0 -0.2095360177
O  O764  1  0.35240000  0.15500000  0.99880000  1.0 -0.361450802
O  O765  1  0.14760000  0.84500000  0.49880000  1.0 -0.2902438519
O  O766  1  0.09500000  0.10240000  0.74880000  1.0 -0.3794708432
O  O767  1  0.90500000  0.39760000  0.74880000  1.0 -0.5006486054
O  O768  1  0.85240000  0.34500000  0.00120000  1.0 -0.2902438519
O  O769  1  0.40500000  0.10240000  0.25120000  1.0 -0.2902438519
O  O770  1  0.14760000  0.15500000  0.00120000  1.0 -0.3715265748
O  O771  1  0.09500000  0.89760000  0.75120000  1.0 -0.3494447844
O  O772  1  0.85240000  0.65500000  0.49880000  1.0 -0.2798334355
O  O773  1  0.64760000  0.34500000  0.99880000  1.0 -0.2798334355
O  O774  1  0.59500000  0.60240000  0.24880000  1.0 -0.2095360177
O  O775  1  0.40500000  0.89760000  0.24880000  1.0 -0.2208739476
O  O776  1  0.64760000  0.15500000  0.49880000  1.0 -0.3021247344
O  O777  1  0.59500000  0.89760000  0.74880000  1.0 -0.5096397575
O  O778  1  0.35240000  0.34500000  0.49880000  1.0 -0.3794708432
O  O779  1  0.90500000  0.10240000  0.24880000  1.0 -0.5209116984
O  O780  1  0.64760000  0.84500000  0.00120000  1.0 -0.2902438519
O  O781  1  0.85240000  0.15500000  0.50120000  1.0 -0.2902438519
O  O782  1  0.40500000  0.39760000  0.75120000  1.0 -0.3214784698
O  O783  1  0.59500000  0.10240000  0.75120000  1.0 -0.361450802
O  O784  1  0.14760000  0.65500000  0.99880000  1.0 -0.2902438519
O  O785  1  0.59500000  0.39760000  0.74880000  1.0 -0.1101811951
O  O786  1  0.85240000  0.84500000  0.99880000  1.0 -0.2902438519
O  O787  1  0.90500000  0.10240000  0.74880000  1.0 -0.2208739476
O  O788  1  0.14760000  0.34500000  0.50120000  1.0 -0.361450802
O  O789  1  0.35240000  0.65500000  0.00120000  1.0 -0.3021247344
O  O790  1  0.90500000  0.39760000  0.75120000  1.0 -0.5006486054
