# DDEC6 charges by PACMAN v1.1 (https://github.com/mtap-research/PACMAN-charge/)
data_c9cc04555d2_1_ASR_pacman
_symmetry_space_group_name_H-M   'P 1'
_cell_length_a   21.93890000
_cell_length_b   21.93890000
_cell_length_c   21.93890000
_cell_angle_alpha   90.00000000
_cell_angle_beta   90.00000000
_cell_angle_gamma   90.00000000
_symmetry_Int_Tables_number   1
_chemical_formula_structural   Fe3H9C24N3O13
_chemical_formula_sum   'Fe24 H72 C192 N24 O104'
_cell_volume   10559.52896376
_cell_formula_units_Z   8
loop_
 _symmetry_equiv_pos_site_id
 _symmetry_equiv_pos_as_xyz
  1  'x, y, z'
loop_
 _atom_site_type_symbol
 _atom_site_label
 _atom_site_symmetry_multiplicity
 _atom_site_fract_x
 _atom_site_fract_y
 _atom_site_fract_z
 _atom_site_occupancy
 _atom_site_charge
Fe  Fe1  1  0.73995000  0.31990000  0.19632000  1.0 1.2303819436
Fe  Fe2  1  0.81990000  0.76005000  0.30368000  1.0 1.2303819436
Fe  Fe3  1  0.26005000  0.68010000  0.19632000  1.0 1.2303819436
Fe  Fe4  1  0.18010000  0.23995000  0.30368000  1.0 1.2303819436
Fe  Fe5  1  0.76005000  0.69632000  0.18010000  1.0 1.2303819436
Fe  Fe6  1  0.73995000  0.68010000  0.80368000  1.0 1.2303819436
Fe  Fe7  1  0.76005000  0.30368000  0.81990000  1.0 1.2303819436
Fe  Fe8  1  0.30368000  0.18010000  0.23995000  1.0 1.2303819436
Fe  Fe9  1  0.26005000  0.31990000  0.80368000  1.0 1.2303819436
Fe  Fe10  1  0.69632000  0.18010000  0.76005000  1.0 1.2303819436
Fe  Fe11  1  0.19632000  0.73995000  0.31990000  1.0 1.2303819436
Fe  Fe12  1  0.31990000  0.19632000  0.73995000  1.0 1.2303819436
Fe  Fe13  1  0.68010000  0.80368000  0.73995000  1.0 1.2303819436
Fe  Fe14  1  0.19632000  0.26005000  0.68010000  1.0 1.2303819436
Fe  Fe15  1  0.68010000  0.19632000  0.26005000  1.0 1.2303819436
Fe  Fe16  1  0.80368000  0.26005000  0.31990000  1.0 1.2303819436
Fe  Fe17  1  0.80368000  0.73995000  0.68010000  1.0 1.2303819436
Fe  Fe18  1  0.31990000  0.80368000  0.26005000  1.0 1.2303819436
Fe  Fe19  1  0.18010000  0.76005000  0.69632000  1.0 1.2303819436
Fe  Fe20  1  0.81990000  0.23995000  0.69632000  1.0 1.2303819436
Fe  Fe21  1  0.23995000  0.30368000  0.18010000  1.0 1.2303819436
Fe  Fe22  1  0.23995000  0.69632000  0.81990000  1.0 1.2303819436
Fe  Fe23  1  0.30368000  0.81990000  0.76005000  1.0 1.2303819436
Fe  Fe24  1  0.69632000  0.81990000  0.23995000  1.0 1.2303819436
H  H1  1  0.07688000  0.29789000  0.08341000  1.0 0.1320255029
H  H2  1  0.79789000  0.42312000  0.41659000  1.0 0.1320255029
H  H3  1  0.92312000  0.70211000  0.08341000  1.0 0.1320255029
H  H4  1  0.20211000  0.57688000  0.41659000  1.0 0.1320255029
H  H5  1  0.42312000  0.58341000  0.20211000  1.0 0.1320255029
H  H6  1  0.07688000  0.70211000  0.91659000  1.0 0.1320255029
H  H7  1  0.42312000  0.41659000  0.79789000  1.0 0.1320255029
H  H8  1  0.41659000  0.20211000  0.57688000  1.0 0.1320255029
H  H9  1  0.92312000  0.29789000  0.91659000  1.0 0.1320255029
H  H10  1  0.58341000  0.20211000  0.42312000  1.0 0.1320255029
H  H11  1  0.08341000  0.07688000  0.29789000  1.0 0.1320255029
H  H12  1  0.29789000  0.08341000  0.07688000  1.0 0.1320255029
H  H13  1  0.70211000  0.91659000  0.07688000  1.0 0.1320255029
H  H14  1  0.08341000  0.92312000  0.70211000  1.0 0.1320255029
H  H15  1  0.70211000  0.08341000  0.92312000  1.0 0.1320255029
H  H16  1  0.91659000  0.92312000  0.29789000  1.0 0.1320255029
H  H17  1  0.91659000  0.07688000  0.70211000  1.0 0.1320255029
H  H18  1  0.29789000  0.91659000  0.92312000  1.0 0.1320255029
H  H19  1  0.20211000  0.42312000  0.58341000  1.0 0.1320255029
H  H20  1  0.79789000  0.57688000  0.58341000  1.0 0.1320255029
H  H21  1  0.57688000  0.41659000  0.20211000  1.0 0.1320255029
H  H22  1  0.57688000  0.58341000  0.79789000  1.0 0.1320255029
H  H23  1  0.41659000  0.79789000  0.42312000  1.0 0.1320255029
H  H24  1  0.58341000  0.79789000  0.57688000  1.0 0.1320255029
H  H25  1  0.89326000  0.31008000  0.09337000  1.0 0.1394007246
H  H26  1  0.81008000  0.60674000  0.40663000  1.0 0.1394007246
H  H27  1  0.10674000  0.68992000  0.09337000  1.0 0.1394007246
H  H28  1  0.18992000  0.39326000  0.40663000  1.0 0.1394007246
H  H29  1  0.60674000  0.59337000  0.18992000  1.0 0.1394007246
H  H30  1  0.89326000  0.68992000  0.90663000  1.0 0.1394007246
H  H31  1  0.60674000  0.40663000  0.81008000  1.0 0.1394007246
H  H32  1  0.40663000  0.18992000  0.39326000  1.0 0.1394007246
H  H33  1  0.10674000  0.31008000  0.90663000  1.0 0.1394007246
H  H34  1  0.59337000  0.18992000  0.60674000  1.0 0.1394007246
H  H35  1  0.09337000  0.89326000  0.31008000  1.0 0.1394007246
H  H36  1  0.31008000  0.09337000  0.89326000  1.0 0.1394007246
H  H37  1  0.68992000  0.90663000  0.89326000  1.0 0.1394007246
H  H38  1  0.09337000  0.10674000  0.68992000  1.0 0.1394007246
H  H39  1  0.68992000  0.09337000  0.10674000  1.0 0.1394007246
H  H40  1  0.90663000  0.10674000  0.31008000  1.0 0.1394007246
H  H41  1  0.90663000  0.89326000  0.68992000  1.0 0.1394007246
H  H42  1  0.31008000  0.90663000  0.10674000  1.0 0.1394007246
H  H43  1  0.18992000  0.60674000  0.59337000  1.0 0.1394007246
H  H44  1  0.81008000  0.39326000  0.59337000  1.0 0.1394007246
H  H45  1  0.39326000  0.40663000  0.18992000  1.0 0.1394007246
H  H46  1  0.39326000  0.59337000  0.81008000  1.0 0.1394007246
H  H47  1  0.40663000  0.81008000  0.60674000  1.0 0.1394007246
H  H48  1  0.59337000  0.81008000  0.39326000  1.0 0.1394007246
H  H49  1  0.99206000  0.27620000  0.24537000  1.0 0.1394007246
H  H50  1  0.77620000  0.50794000  0.25463000  1.0 0.1394007246
H  H51  1  0.00794000  0.72380000  0.24537000  1.0 0.1394007246
H  H52  1  0.22380000  0.49206000  0.25463000  1.0 0.1394007246
H  H53  1  0.50794000  0.74537000  0.22380000  1.0 0.1394007246
H  H54  1  0.99206000  0.72380000  0.75463000  1.0 0.1394007246
H  H55  1  0.50794000  0.25463000  0.77620000  1.0 0.1394007246
H  H56  1  0.25463000  0.22380000  0.49206000  1.0 0.1394007246
H  H57  1  0.00794000  0.27620000  0.75463000  1.0 0.1394007246
H  H58  1  0.74537000  0.22380000  0.50794000  1.0 0.1394007246
H  H59  1  0.24537000  0.99206000  0.27620000  1.0 0.1394007246
H  H60  1  0.27620000  0.24537000  0.99206000  1.0 0.1394007246
H  H61  1  0.72380000  0.75463000  0.99206000  1.0 0.1394007246
H  H62  1  0.24537000  0.00794000  0.72380000  1.0 0.1394007246
H  H63  1  0.72380000  0.24537000  0.00794000  1.0 0.1394007246
H  H64  1  0.75463000  0.00794000  0.27620000  1.0 0.1394007246
H  H65  1  0.75463000  0.99206000  0.72380000  1.0 0.1394007246
H  H66  1  0.27620000  0.75463000  0.00794000  1.0 0.1394007246
H  H67  1  0.22380000  0.50794000  0.74537000  1.0 0.1394007246
H  H68  1  0.77620000  0.49206000  0.74537000  1.0 0.1394007246
H  H69  1  0.49206000  0.25463000  0.22380000  1.0 0.1394007246
H  H70  1  0.49206000  0.74537000  0.77620000  1.0 0.1394007246
H  H71  1  0.25463000  0.77620000  0.50794000  1.0 0.1394007246
H  H72  1  0.74537000  0.77620000  0.49206000  1.0 0.1394007246
C  C1  1  0.87515000  0.29305000  0.20907000  1.0 0.603565749
C  C2  1  0.79305000  0.62485000  0.29093000  1.0 0.603565749
C  C3  1  0.12485000  0.70695000  0.20907000  1.0 0.603565749
C  C4  1  0.20695000  0.37515000  0.29093000  1.0 0.603565749
C  C5  1  0.62485000  0.70907000  0.20695000  1.0 0.603565749
C  C6  1  0.87515000  0.70695000  0.79093000  1.0 0.603565749
C  C7  1  0.62485000  0.29093000  0.79305000  1.0 0.603565749
C  C8  1  0.29093000  0.20695000  0.37515000  1.0 0.603565749
C  C9  1  0.12485000  0.29305000  0.79093000  1.0 0.603565749
C  C10  1  0.70907000  0.20695000  0.62485000  1.0 0.603565749
C  C11  1  0.20907000  0.87515000  0.29305000  1.0 0.603565749
C  C12  1  0.29305000  0.20907000  0.87515000  1.0 0.603565749
C  C13  1  0.70695000  0.79093000  0.87515000  1.0 0.603565749
C  C14  1  0.20907000  0.12485000  0.70695000  1.0 0.603565749
C  C15  1  0.70695000  0.20907000  0.12485000  1.0 0.603565749
C  C16  1  0.79093000  0.12485000  0.29305000  1.0 0.603565749
C  C17  1  0.79093000  0.87515000  0.70695000  1.0 0.603565749
C  C18  1  0.29305000  0.79093000  0.12485000  1.0 0.603565749
C  C19  1  0.20695000  0.62485000  0.70907000  1.0 0.603565749
C  C20  1  0.79305000  0.37515000  0.70907000  1.0 0.603565749
C  C21  1  0.37515000  0.29093000  0.20695000  1.0 0.603565749
C  C22  1  0.37515000  0.70907000  0.79305000  1.0 0.603565749
C  C23  1  0.29093000  0.79305000  0.62485000  1.0 0.603565749
C  C24  1  0.70907000  0.79305000  0.37515000  1.0 0.603565749
C  C25  1  0.10522000  0.27917000  0.19751000  1.0 0.603565749
C  C26  1  0.77917000  0.39478000  0.30249000  1.0 0.603565749
C  C27  1  0.89478000  0.72083000  0.19751000  1.0 0.603565749
C  C28  1  0.22083000  0.60522000  0.30249000  1.0 0.603565749
C  C29  1  0.39478000  0.69751000  0.22083000  1.0 0.603565749
C  C30  1  0.10522000  0.72083000  0.80249000  1.0 0.603565749
C  C31  1  0.39478000  0.30249000  0.77917000  1.0 0.603565749
C  C32  1  0.30249000  0.22083000  0.60522000  1.0 0.603565749
C  C33  1  0.89478000  0.27917000  0.80249000  1.0 0.603565749
C  C34  1  0.69751000  0.22083000  0.39478000  1.0 0.603565749
C  C35  1  0.19751000  0.10522000  0.27917000  1.0 0.603565749
C  C36  1  0.27917000  0.19751000  0.10522000  1.0 0.603565749
C  C37  1  0.72083000  0.80249000  0.10522000  1.0 0.603565749
C  C38  1  0.19751000  0.89478000  0.72083000  1.0 0.603565749
C  C39  1  0.72083000  0.19751000  0.89478000  1.0 0.603565749
C  C40  1  0.80249000  0.89478000  0.27917000  1.0 0.603565749
C  C41  1  0.80249000  0.10522000  0.72083000  1.0 0.603565749
C  C42  1  0.27917000  0.80249000  0.89478000  1.0 0.603565749
C  C43  1  0.22083000  0.39478000  0.69751000  1.0 0.603565749
C  C44  1  0.77917000  0.60522000  0.69751000  1.0 0.603565749
C  C45  1  0.60522000  0.30249000  0.22083000  1.0 0.603565749
C  C46  1  0.60522000  0.69751000  0.77917000  1.0 0.603565749
C  C47  1  0.30249000  0.77917000  0.39478000  1.0 0.603565749
C  C48  1  0.69751000  0.77917000  0.60522000  1.0 0.603565749
C  C49  1  0.04322000  0.28752000  0.16891000  1.0 -0.0071363077
C  C50  1  0.78752000  0.45678000  0.33109000  1.0 -0.0071363077
C  C51  1  0.95678000  0.71248000  0.16891000  1.0 -0.0071363077
C  C52  1  0.21248000  0.54322000  0.33109000  1.0 -0.0071363077
C  C53  1  0.45678000  0.66891000  0.21248000  1.0 -0.0071363077
C  C54  1  0.04322000  0.71248000  0.83109000  1.0 -0.0071363077
C  C55  1  0.45678000  0.33109000  0.78752000  1.0 -0.0071363077
C  C56  1  0.33109000  0.21248000  0.54322000  1.0 -0.0071363077
C  C57  1  0.95678000  0.28752000  0.83109000  1.0 -0.0071363077
C  C58  1  0.66891000  0.21248000  0.45678000  1.0 -0.0071363077
C  C59  1  0.16891000  0.04322000  0.28752000  1.0 -0.0071363077
C  C60  1  0.28752000  0.16891000  0.04322000  1.0 -0.0071363077
C  C61  1  0.71248000  0.83109000  0.04322000  1.0 -0.0071363077
C  C62  1  0.16891000  0.95678000  0.71248000  1.0 -0.0071363077
C  C63  1  0.71248000  0.16891000  0.95678000  1.0 -0.0071363077
C  C64  1  0.83109000  0.95678000  0.28752000  1.0 -0.0071363077
C  C65  1  0.83109000  0.04322000  0.71248000  1.0 -0.0071363077
C  C66  1  0.28752000  0.83109000  0.95678000  1.0 -0.0071363077
C  C67  1  0.21248000  0.45678000  0.66891000  1.0 -0.0071363077
C  C68  1  0.78752000  0.54322000  0.66891000  1.0 -0.0071363077
C  C69  1  0.54322000  0.33109000  0.21248000  1.0 -0.0071363077
C  C70  1  0.54322000  0.66891000  0.78752000  1.0 -0.0071363077
C  C71  1  0.33109000  0.78752000  0.45678000  1.0 -0.0071363077
C  C72  1  0.66891000  0.78752000  0.54322000  1.0 -0.0071363077
C  C73  1  0.04051000  0.29630000  0.10686000  1.0 -0.1491240589
C  C74  1  0.79630000  0.45949000  0.39314000  1.0 -0.1491240589
C  C75  1  0.95949000  0.70370000  0.10686000  1.0 -0.1491240589
C  C76  1  0.20370000  0.54051000  0.39314000  1.0 -0.1491240589
C  C77  1  0.45949000  0.60686000  0.20370000  1.0 -0.1491240589
C  C78  1  0.04051000  0.70370000  0.89314000  1.0 -0.1491240589
C  C79  1  0.45949000  0.39314000  0.79630000  1.0 -0.1491240589
C  C80  1  0.39314000  0.20370000  0.54051000  1.0 -0.1491240589
C  C81  1  0.95949000  0.29630000  0.89314000  1.0 -0.1491240589
C  C82  1  0.60686000  0.20370000  0.45949000  1.0 -0.1491240589
C  C83  1  0.10686000  0.04051000  0.29630000  1.0 -0.1491240589
C  C84  1  0.29630000  0.10686000  0.04051000  1.0 -0.1491240589
C  C85  1  0.70370000  0.89314000  0.04051000  1.0 -0.1491240589
C  C86  1  0.10686000  0.95949000  0.70370000  1.0 -0.1491240589
C  C87  1  0.70370000  0.10686000  0.95949000  1.0 -0.1491240589
C  C88  1  0.89314000  0.95949000  0.29630000  1.0 -0.1491240589
C  C89  1  0.89314000  0.04051000  0.70370000  1.0 -0.1491240589
C  C90  1  0.29630000  0.89314000  0.95949000  1.0 -0.1491240589
C  C91  1  0.20370000  0.45949000  0.60686000  1.0 -0.1491240589
C  C92  1  0.79630000  0.54051000  0.60686000  1.0 -0.1491240589
C  C93  1  0.54051000  0.39314000  0.20370000  1.0 -0.1491240589
C  C94  1  0.54051000  0.60686000  0.79630000  1.0 -0.1491240589
C  C95  1  0.39314000  0.79630000  0.45949000  1.0 -0.1491240589
C  C96  1  0.60686000  0.79630000  0.54051000  1.0 -0.1491240589
C  C97  1  0.93141000  0.30340000  0.11272000  1.0 -0.1491240589
C  C98  1  0.80340000  0.56859000  0.38728000  1.0 -0.1491240589
C  C99  1  0.06859000  0.69660000  0.11272000  1.0 -0.1491240589
C  C100  1  0.19660000  0.43141000  0.38728000  1.0 -0.1491240589
C  C101  1  0.56859000  0.61272000  0.19660000  1.0 -0.1491240589
C  C102  1  0.93141000  0.69660000  0.88728000  1.0 -0.1491240589
C  C103  1  0.56859000  0.38728000  0.80340000  1.0 -0.1491240589
C  C104  1  0.38728000  0.19660000  0.43141000  1.0 -0.1491240589
C  C105  1  0.06859000  0.30340000  0.88728000  1.0 -0.1491240589
C  C106  1  0.61272000  0.19660000  0.56859000  1.0 -0.1491240589
C  C107  1  0.11272000  0.93141000  0.30340000  1.0 -0.1491240589
C  C108  1  0.30340000  0.11272000  0.93141000  1.0 -0.1491240589
C  C109  1  0.69660000  0.88728000  0.93141000  1.0 -0.1491240589
C  C110  1  0.11272000  0.06859000  0.69660000  1.0 -0.1491240589
C  C111  1  0.69660000  0.11272000  0.06859000  1.0 -0.1491240589
C  C112  1  0.88728000  0.06859000  0.30340000  1.0 -0.1491240589
C  C113  1  0.88728000  0.93141000  0.69660000  1.0 -0.1491240589
C  C114  1  0.30340000  0.88728000  0.06859000  1.0 -0.1491240589
C  C115  1  0.19660000  0.56859000  0.61272000  1.0 -0.1491240589
C  C116  1  0.80340000  0.43141000  0.61272000  1.0 -0.1491240589
C  C117  1  0.43141000  0.38728000  0.19660000  1.0 -0.1491240589
C  C118  1  0.43141000  0.61272000  0.80340000  1.0 -0.1491240589
C  C119  1  0.38728000  0.80340000  0.56859000  1.0 -0.1491240589
C  C120  1  0.61272000  0.80340000  0.43141000  1.0 -0.1491240589
C  C121  1  0.99015000  0.28463000  0.20294000  1.0 -0.1023726921
C  C122  1  0.78463000  0.50985000  0.29706000  1.0 -0.1023726921
C  C123  1  0.00985000  0.71537000  0.20294000  1.0 -0.1023726921
C  C124  1  0.21537000  0.49015000  0.29706000  1.0 -0.1023726921
C  C125  1  0.50985000  0.70294000  0.21537000  1.0 -0.1023726921
C  C126  1  0.99015000  0.71537000  0.79706000  1.0 -0.1023726921
C  C127  1  0.50985000  0.29706000  0.78463000  1.0 -0.1023726921
C  C128  1  0.29706000  0.21537000  0.49015000  1.0 -0.1023726921
C  C129  1  0.00985000  0.28463000  0.79706000  1.0 -0.1023726921
C  C130  1  0.70294000  0.21537000  0.50985000  1.0 -0.1023726921
C  C131  1  0.20294000  0.99015000  0.28463000  1.0 -0.1023726921
C  C132  1  0.28463000  0.20294000  0.99015000  1.0 -0.1023726921
C  C133  1  0.71537000  0.79706000  0.99015000  1.0 -0.1023726921
C  C134  1  0.20294000  0.00985000  0.71537000  1.0 -0.1023726921
C  C135  1  0.71537000  0.20294000  0.00985000  1.0 -0.1023726921
C  C136  1  0.79706000  0.00985000  0.28463000  1.0 -0.1023726921
C  C137  1  0.79706000  0.99015000  0.71537000  1.0 -0.1023726921
C  C138  1  0.28463000  0.79706000  0.00985000  1.0 -0.1023726921
C  C139  1  0.21537000  0.50985000  0.70294000  1.0 -0.1023726921
C  C140  1  0.78463000  0.49015000  0.70294000  1.0 -0.1023726921
C  C141  1  0.49015000  0.29706000  0.21537000  1.0 -0.1023726921
C  C142  1  0.49015000  0.70294000  0.78463000  1.0 -0.1023726921
C  C143  1  0.29706000  0.78463000  0.50985000  1.0 -0.1023726921
C  C144  1  0.70294000  0.78463000  0.49015000  1.0 -0.1023726921
C  C145  1  0.93393000  0.29410000  0.17492000  1.0 -0.0160241077
C  C146  1  0.79410000  0.56607000  0.32508000  1.0 -0.0160241077
C  C147  1  0.06607000  0.70590000  0.17492000  1.0 -0.0160241077
C  C148  1  0.20590000  0.43393000  0.32508000  1.0 -0.0160241077
C  C149  1  0.56607000  0.67492000  0.20590000  1.0 -0.0160241077
C  C150  1  0.93393000  0.70590000  0.82508000  1.0 -0.0160241077
C  C151  1  0.56607000  0.32508000  0.79410000  1.0 -0.0160241077
C  C152  1  0.32508000  0.20590000  0.43393000  1.0 -0.0160241077
C  C153  1  0.06607000  0.29410000  0.82508000  1.0 -0.0160241077
C  C154  1  0.67492000  0.20590000  0.56607000  1.0 -0.0160241077
C  C155  1  0.17492000  0.93393000  0.29410000  1.0 -0.0160241077
C  C156  1  0.29410000  0.17492000  0.93393000  1.0 -0.0160241077
C  C157  1  0.70590000  0.82508000  0.93393000  1.0 -0.0160241077
C  C158  1  0.17492000  0.06607000  0.70590000  1.0 -0.0160241077
C  C159  1  0.70590000  0.17492000  0.06607000  1.0 -0.0160241077
C  C160  1  0.82508000  0.06607000  0.29410000  1.0 -0.0160241077
C  C161  1  0.82508000  0.93393000  0.70590000  1.0 -0.0160241077
C  C162  1  0.29410000  0.82508000  0.06607000  1.0 -0.0160241077
C  C163  1  0.20590000  0.56607000  0.67492000  1.0 -0.0160241077
C  C164  1  0.79410000  0.43393000  0.67492000  1.0 -0.0160241077
C  C165  1  0.43393000  0.32508000  0.20590000  1.0 -0.0160241077
C  C166  1  0.43393000  0.67492000  0.79410000  1.0 -0.0160241077
C  C167  1  0.32508000  0.79410000  0.56607000  1.0 -0.0160241077
C  C168  1  0.67492000  0.79410000  0.43393000  1.0 -0.0160241077
C  C169  1  0.98406000  0.30290000  0.07879000  1.0 0.1479723407
C  C170  1  0.80290000  0.51594000  0.42121000  1.0 0.1479723407
C  C171  1  0.01594000  0.69710000  0.07879000  1.0 0.1479723407
C  C172  1  0.19710000  0.48406000  0.42121000  1.0 0.1479723407
C  C173  1  0.51594000  0.57879000  0.19710000  1.0 0.1479723407
C  C174  1  0.98406000  0.69710000  0.92121000  1.0 0.1479723407
C  C175  1  0.51594000  0.42121000  0.80290000  1.0 0.1479723407
C  C176  1  0.42121000  0.19710000  0.48406000  1.0 0.1479723407
C  C177  1  0.01594000  0.30290000  0.92121000  1.0 0.1479723407
C  C178  1  0.57879000  0.19710000  0.51594000  1.0 0.1479723407
C  C179  1  0.07879000  0.98406000  0.30290000  1.0 0.1479723407
C  C180  1  0.30290000  0.07879000  0.98406000  1.0 0.1479723407
C  C181  1  0.69710000  0.92121000  0.98406000  1.0 0.1479723407
C  C182  1  0.07879000  0.01594000  0.69710000  1.0 0.1479723407
C  C183  1  0.69710000  0.07879000  0.01594000  1.0 0.1479723407
C  C184  1  0.92121000  0.01594000  0.30290000  1.0 0.1479723407
C  C185  1  0.92121000  0.98406000  0.69710000  1.0 0.1479723407
C  C186  1  0.30290000  0.92121000  0.01594000  1.0 0.1479723407
C  C187  1  0.19710000  0.51594000  0.57879000  1.0 0.1479723407
C  C188  1  0.80290000  0.48406000  0.57879000  1.0 0.1479723407
C  C189  1  0.48406000  0.42121000  0.19710000  1.0 0.1479723407
C  C190  1  0.48406000  0.57879000  0.80290000  1.0 0.1479723407
C  C191  1  0.42121000  0.80290000  0.51594000  1.0 0.1479723407
C  C192  1  0.57879000  0.80290000  0.48406000  1.0 0.1479723407
N  N1  1  0.97671000  0.30710000  0.01396000  1.0 -0.1057422942
N  N2  1  0.80710000  0.52329000  0.48604000  1.0 -0.1057422942
N  N3  1  0.02329000  0.69290000  0.01396000  1.0 -0.1057422942
N  N4  1  0.19290000  0.47671000  0.48604000  1.0 -0.1057422942
N  N5  1  0.52329000  0.51396000  0.19290000  1.0 -0.1057422942
N  N6  1  0.97671000  0.69290000  0.98604000  1.0 -0.1023726921
N  N7  1  0.52329000  0.48604000  0.80710000  1.0 -0.1057422942
N  N8  1  0.48604000  0.19290000  0.47671000  1.0 -0.1057422942
N  N9  1  0.02329000  0.30710000  0.98604000  1.0 -0.1057422942
N  N10  1  0.51396000  0.19290000  0.52329000  1.0 -0.1057422942
N  N11  1  0.01396000  0.97671000  0.30710000  1.0 -0.1057422942
N  N12  1  0.30710000  0.01396000  0.97671000  1.0 -0.1057422942
N  N13  1  0.69290000  0.98604000  0.97671000  1.0 -0.1057422942
N  N14  1  0.01396000  0.02329000  0.69290000  1.0 -0.1057422942
N  N15  1  0.69290000  0.01396000  0.02329000  1.0 -0.1057422942
N  N16  1  0.98604000  0.02329000  0.30710000  1.0 -0.1057422942
N  N17  1  0.98604000  0.97671000  0.69290000  1.0 -0.1023726921
N  N18  1  0.30710000  0.98604000  0.02329000  1.0 -0.1057422942
N  N19  1  0.19290000  0.52329000  0.51396000  1.0 -0.1057422942
N  N20  1  0.80710000  0.47671000  0.51396000  1.0 -0.1057422942
N  N21  1  0.47671000  0.48604000  0.19290000  1.0 -0.1057422942
N  N22  1  0.47671000  0.51396000  0.80710000  1.0 -0.1057422942
N  N23  1  0.48604000  0.80710000  0.52329000  1.0 -0.1057422942
N  N24  1  0.51396000  0.80710000  0.47671000  1.0 -0.1057422942
O  O1  1  0.74063000  0.25937000  0.25937000  1.0 -0.9357936156
O  O2  1  0.75937000  0.75937000  0.24063000  1.0 -0.9357936156
O  O3  1  0.25937000  0.74063000  0.25937000  1.0 -0.9357936156
O  O4  1  0.24063000  0.24063000  0.24063000  1.0 -0.9357936156
O  O5  1  0.74063000  0.74063000  0.74063000  1.0 -0.9357936156
O  O6  1  0.75937000  0.24063000  0.75937000  1.0 -0.9348992876
O  O7  1  0.25937000  0.25937000  0.74063000  1.0 -0.9348992876
O  O8  1  0.24063000  0.75937000  0.75937000  1.0 -0.9357936156
O  O9  1  0.10775000  0.25549000  0.24900000  1.0 -0.5393658931
O  O10  1  0.75549000  0.39225000  0.25100000  1.0 -0.5393658931
O  O11  1  0.89225000  0.74451000  0.24900000  1.0 -0.5393658931
O  O12  1  0.24451000  0.60775000  0.25100000  1.0 -0.5393658931
O  O13  1  0.39225000  0.74900000  0.24451000  1.0 -0.5393658931
O  O14  1  0.10775000  0.74451000  0.75100000  1.0 -0.5393658931
O  O15  1  0.39225000  0.25100000  0.75549000  1.0 -0.5393658931
O  O16  1  0.25100000  0.24451000  0.60775000  1.0 -0.5393658931
O  O17  1  0.89225000  0.25549000  0.75100000  1.0 -0.5393658931
O  O18  1  0.74900000  0.24451000  0.39225000  1.0 -0.5393658931
O  O19  1  0.24900000  0.10775000  0.25549000  1.0 -0.5393658931
O  O20  1  0.25549000  0.24900000  0.10775000  1.0 -0.5393658931
O  O21  1  0.74451000  0.75100000  0.10775000  1.0 -0.5393658931
O  O22  1  0.24900000  0.89225000  0.74451000  1.0 -0.5393658931
O  O23  1  0.74451000  0.24900000  0.89225000  1.0 -0.5393658931
O  O24  1  0.75100000  0.89225000  0.25549000  1.0 -0.5393658931
O  O25  1  0.75100000  0.10775000  0.74451000  1.0 -0.5393658931
O  O26  1  0.25549000  0.75100000  0.89225000  1.0 -0.5393658931
O  O27  1  0.24451000  0.39225000  0.74900000  1.0 -0.5393658931
O  O28  1  0.75549000  0.60775000  0.74900000  1.0 -0.5393658931
O  O29  1  0.60775000  0.25100000  0.24451000  1.0 -0.5393658931
O  O30  1  0.60775000  0.74900000  0.75549000  1.0 -0.5393658931
O  O31  1  0.25100000  0.75549000  0.39225000  1.0 -0.5393658931
O  O32  1  0.74900000  0.75549000  0.60775000  1.0 -0.5393658931
O  O33  1  0.14940000  0.29618000  0.16591000  1.0 -0.5393658931
O  O34  1  0.79618000  0.35060000  0.33409000  1.0 -0.5393658931
O  O35  1  0.85060000  0.70382000  0.16591000  1.0 -0.5393658931
O  O36  1  0.20382000  0.64940000  0.33409000  1.0 -0.5393658931
O  O37  1  0.35060000  0.66591000  0.20382000  1.0 -0.5393658931
O  O38  1  0.14940000  0.70382000  0.83409000  1.0 -0.5393658931
O  O39  1  0.35060000  0.33409000  0.79618000  1.0 -0.5393658931
O  O40  1  0.33409000  0.20382000  0.64940000  1.0 -0.5393658931
O  O41  1  0.85060000  0.29618000  0.83409000  1.0 -0.5393658931
O  O42  1  0.66591000  0.20382000  0.35060000  1.0 -0.5393658931
O  O43  1  0.16591000  0.14940000  0.29618000  1.0 -0.5393658931
O  O44  1  0.29618000  0.16591000  0.14940000  1.0 -0.5393658931
O  O45  1  0.70382000  0.83409000  0.14940000  1.0 -0.5393658931
O  O46  1  0.16591000  0.85060000  0.70382000  1.0 -0.5393658931
O  O47  1  0.70382000  0.16591000  0.85060000  1.0 -0.5393658931
O  O48  1  0.83409000  0.85060000  0.29618000  1.0 -0.5393658931
O  O49  1  0.83409000  0.14940000  0.70382000  1.0 -0.5393658931
O  O50  1  0.29618000  0.83409000  0.85060000  1.0 -0.5393658931
O  O51  1  0.20382000  0.35060000  0.66591000  1.0 -0.5393658931
O  O52  1  0.79618000  0.64940000  0.66591000  1.0 -0.5393658931
O  O53  1  0.64940000  0.33409000  0.20382000  1.0 -0.5393658931
O  O54  1  0.64940000  0.66591000  0.79618000  1.0 -0.5393658931
O  O55  1  0.33409000  0.79618000  0.35060000  1.0 -0.5393658931
O  O56  1  0.66591000  0.79618000  0.64940000  1.0 -0.5393658931
O  O57  1  0.87494000  0.27366000  0.26235000  1.0 -0.531771056
O  O58  1  0.77366000  0.62506000  0.23765000  1.0 -0.531771056
O  O59  1  0.12506000  0.72634000  0.26235000  1.0 -0.531771056
O  O60  1  0.22634000  0.37494000  0.23765000  1.0 -0.531771056
O  O61  1  0.62506000  0.76235000  0.22634000  1.0 -0.531771056
O  O62  1  0.87494000  0.72634000  0.73765000  1.0 -0.531771056
O  O63  1  0.62506000  0.23765000  0.77366000  1.0 -0.531771056
O  O64  1  0.23765000  0.22634000  0.37494000  1.0 -0.531771056
O  O65  1  0.12506000  0.27366000  0.73765000  1.0 -0.531771056
O  O66  1  0.76235000  0.22634000  0.62506000  1.0 -0.531771056
O  O67  1  0.26235000  0.87494000  0.27366000  1.0 -0.531771056
O  O68  1  0.27366000  0.26235000  0.87494000  1.0 -0.531771056
O  O69  1  0.72634000  0.73765000  0.87494000  1.0 -0.531771056
O  O70  1  0.26235000  0.12506000  0.72634000  1.0 -0.531771056
O  O71  1  0.72634000  0.26235000  0.12506000  1.0 -0.531771056
O  O72  1  0.73765000  0.12506000  0.27366000  1.0 -0.531771056
O  O73  1  0.73765000  0.87494000  0.72634000  1.0 -0.531771056
O  O74  1  0.27366000  0.73765000  0.12506000  1.0 -0.531771056
O  O75  1  0.22634000  0.62506000  0.76235000  1.0 -0.531771056
O  O76  1  0.77366000  0.37494000  0.76235000  1.0 -0.531771056
O  O77  1  0.37494000  0.23765000  0.22634000  1.0 -0.531771056
O  O78  1  0.37494000  0.76235000  0.77366000  1.0 -0.531771056
O  O79  1  0.23765000  0.77366000  0.62506000  1.0 -0.531771056
O  O80  1  0.76235000  0.77366000  0.37494000  1.0 -0.531771056
O  O81  1  0.82956000  0.31301000  0.18083000  1.0 -0.5454740099
O  O82  1  0.81301000  0.67044000  0.31917000  1.0 -0.5454740099
O  O83  1  0.17044000  0.68699000  0.18083000  1.0 -0.5454740099
O  O84  1  0.18699000  0.32956000  0.31917000  1.0 -0.5454740099
O  O85  1  0.67044000  0.68083000  0.18699000  1.0 -0.5454740099
O  O86  1  0.82956000  0.68699000  0.81917000  1.0 -0.5454740099
O  O87  1  0.67044000  0.31917000  0.81301000  1.0 -0.5454740099
O  O88  1  0.31917000  0.18699000  0.32956000  1.0 -0.5454740099
O  O89  1  0.17044000  0.31301000  0.81917000  1.0 -0.5454740099
O  O90  1  0.68083000  0.18699000  0.67044000  1.0 -0.5454740099
O  O91  1  0.18083000  0.82956000  0.31301000  1.0 -0.5454740099
O  O92  1  0.31301000  0.18083000  0.82956000  1.0 -0.5454740099
O  O93  1  0.68699000  0.81917000  0.82956000  1.0 -0.5454740099
O  O94  1  0.18083000  0.17044000  0.68699000  1.0 -0.5454740099
O  O95  1  0.68699000  0.18083000  0.17044000  1.0 -0.5454740099
O  O96  1  0.81917000  0.17044000  0.31301000  1.0 -0.5454740099
O  O97  1  0.81917000  0.82956000  0.68699000  1.0 -0.5454740099
O  O98  1  0.31301000  0.81917000  0.17044000  1.0 -0.5454740099
O  O99  1  0.18699000  0.67044000  0.68083000  1.0 -0.5393658931
O  O100  1  0.81301000  0.32956000  0.68083000  1.0 -0.5454740099
O  O101  1  0.32956000  0.31917000  0.18699000  1.0 -0.5454740099
O  O102  1  0.32956000  0.68083000  0.81301000  1.0 -0.5393658931
O  O103  1  0.31917000  0.81301000  0.67044000  1.0 -0.5393658931
O  O104  1  0.68083000  0.81301000  0.32956000  1.0 -0.5454740099
