# DDEC6 charges by PACMAN v1.1 (https://github.com/mtap-research/PACMAN-charge/)
data_c6cc00589f3_2_ion_pacman
_symmetry_space_group_name_H-M   'P 1'
_cell_length_a   22.38190000
_cell_length_b   22.38190000
_cell_length_c   22.38190000
_cell_angle_alpha   90.00000000
_cell_angle_beta   90.00000000
_cell_angle_gamma   90.00000000
_symmetry_Int_Tables_number   1
_chemical_formula_structural   Zn28B12H175.9968C96N192O16F48
_chemical_formula_sum   'Zn28 B12 H175.9968 C96 N192 O16 F48'
_cell_volume   11212.20044146
_cell_formula_units_Z   1
loop_
 _symmetry_equiv_pos_site_id
 _symmetry_equiv_pos_as_xyz
  1  'x, y, z'
loop_
 _atom_site_type_symbol
 _atom_site_label
 _atom_site_symmetry_multiplicity
 _atom_site_fract_x
 _atom_site_fract_y
 _atom_site_fract_z
 _atom_site_occupancy
 _atom_site_charge
Zn  Zn1  1  0.50000000  0.75000000  0.87500000  1.0 0.7160179459
Zn  Zn2  1  0.75000000  0.12500000  0.00000000  1.0 0.7160179459
Zn  Zn3  1  0.75000000  0.87500000  0.50000000  1.0 0.7160179459
Zn  Zn4  1  0.37500000  0.00000000  0.25000000  1.0 0.7160179459
Zn  Zn5  1  0.12500000  0.00000000  0.75000000  1.0 0.7160179459
Zn  Zn6  1  0.00000000  0.25000000  0.37500000  1.0 0.7160179459
Zn  Zn7  1  0.87500000  0.50000000  0.75000000  1.0 0.7160179459
Zn  Zn8  1  0.25000000  0.62500000  0.50000000  1.0 0.7160179459
Zn  Zn9  1  0.62500000  0.50000000  0.25000000  1.0 0.7160179459
Zn  Zn10  1  0.50000000  0.25000000  0.62500000  1.0 0.7160179459
Zn  Zn11  1  0.00000000  0.75000000  0.12500000  1.0 0.7160179459
Zn  Zn12  1  0.25000000  0.37500000  0.00000000  1.0 0.7160179459
Zn  Zn13  1  0.69677000  0.69677000  0.69677000  1.0 0.7032002775
Zn  Zn14  1  0.55323000  0.94677000  0.05323000  1.0 0.7032002775
Zn  Zn15  1  0.55323000  0.05323000  0.44677000  1.0 0.7032002775
Zn  Zn16  1  0.94677000  0.05323000  0.55323000  1.0 0.7032002775
Zn  Zn17  1  0.30323000  0.80323000  0.69677000  1.0 0.7032002775
Zn  Zn18  1  0.69677000  0.30323000  0.80323000  1.0 0.7032002775
Zn  Zn19  1  0.80323000  0.69677000  0.30323000  1.0 0.7032002775
Zn  Zn20  1  0.94677000  0.94677000  0.94677000  1.0 0.7032002775
Zn  Zn21  1  0.19677000  0.19677000  0.19677000  1.0 0.7032002775
Zn  Zn22  1  0.05323000  0.44677000  0.55323000  1.0 0.7032002775
Zn  Zn23  1  0.05323000  0.55323000  0.94677000  1.0 0.7032002775
Zn  Zn24  1  0.44677000  0.55323000  0.05323000  1.0 0.7032002775
Zn  Zn25  1  0.80323000  0.30323000  0.19677000  1.0 0.7032002775
Zn  Zn26  1  0.19677000  0.80323000  0.30323000  1.0 0.7032002775
Zn  Zn27  1  0.30323000  0.19677000  0.80323000  1.0 0.7032002775
Zn  Zn28  1  0.44677000  0.44677000  0.44677000  1.0 0.7032002775
B  B1  1  0.12500000  0.50000000  0.25000000  1.0 0.8632756387
B  B2  1  0.50000000  0.25000000  0.12500000  1.0 0.8632756387
B  B3  1  0.37500000  0.50000000  0.75000000  1.0 0.8653382047
B  B4  1  0.87500000  0.00000000  0.25000000  1.0 0.8632756387
B  B5  1  0.00000000  0.25000000  0.87500000  1.0 0.8632756387
B  B6  1  0.75000000  0.37500000  0.50000000  1.0 0.8632756387
B  B7  1  0.75000000  0.62500000  0.00000000  1.0 0.8653382047
B  B8  1  0.25000000  0.87500000  0.00000000  1.0 0.8653382047
B  B9  1  0.25000000  0.12500000  0.50000000  1.0 0.8632756387
B  B10  1  0.00000000  0.75000000  0.62500000  1.0 0.8653382047
B  B11  1  0.50000000  0.75000000  0.37500000  1.0 0.8653382047
B  B12  1  0.62500000  0.00000000  0.75000000  1.0 0.8632756387
H  H1  1  0.63340000  0.81280000  0.74040000  1.0 0.1497053444
H  H2  1  0.61660000  0.99040000  0.93720000  1.0 0.1497053444
H  H3  1  0.61660000  0.00960000  0.56280000  1.0 0.1497053444
H  H4  1  0.50960000  0.93720000  0.38340000  1.0 0.1497053444
H  H5  1  0.99040000  0.93720000  0.61660000  1.0 0.1497053444
H  H6  1  0.06280000  0.11660000  0.50960000  1.0 0.1497053444
H  H7  1  0.43720000  0.88340000  0.00960000  1.0 0.1497053444
H  H8  1  0.74040000  0.63340000  0.81280000  1.0 0.1497053444
H  H9  1  0.81280000  0.74040000  0.63340000  1.0 0.1497053444
H  H10  1  0.18720000  0.75960000  0.63340000  1.0 0.1497053444
H  H11  1  0.74040000  0.36660000  0.68720000  1.0 0.1497053444
H  H12  1  0.68720000  0.74040000  0.36660000  1.0 0.1497053444
H  H13  1  0.25960000  0.86660000  0.81280000  1.0 0.1497053444
H  H14  1  0.75960000  0.63340000  0.18720000  1.0 0.1497053444
H  H15  1  0.81280000  0.25960000  0.86660000  1.0 0.1497053444
H  H16  1  0.63340000  0.18720000  0.75960000  1.0 0.1497053444
H  H17  1  0.86660000  0.81280000  0.25960000  1.0 0.1497053444
H  H18  1  0.36660000  0.68720000  0.74040000  1.0 0.1497053444
H  H19  1  0.43720000  0.11660000  0.49040000  1.0 0.1497053444
H  H20  1  0.06280000  0.88340000  0.99040000  1.0 0.1497053444
H  H21  1  0.50960000  0.06280000  0.11660000  1.0 0.1497053444
H  H22  1  0.99040000  0.06280000  0.88340000  1.0 0.1497053444
H  H23  1  0.88340000  0.00960000  0.43720000  1.0 0.1497053444
H  H24  1  0.88340000  0.99040000  0.06280000  1.0 0.1497053444
H  H25  1  0.13340000  0.31280000  0.24040000  1.0 0.1497053444
H  H26  1  0.11660000  0.49040000  0.43720000  1.0 0.1497053444
H  H27  1  0.11660000  0.50960000  0.06280000  1.0 0.1497053444
H  H28  1  0.00960000  0.43720000  0.88340000  1.0 0.1497053444
H  H29  1  0.49040000  0.43720000  0.11660000  1.0 0.1497053444
H  H30  1  0.56280000  0.61660000  0.00960000  1.0 0.1497053444
H  H31  1  0.93720000  0.38340000  0.50960000  1.0 0.1497053444
H  H32  1  0.24040000  0.13340000  0.31280000  1.0 0.1497053444
H  H33  1  0.31280000  0.24040000  0.13340000  1.0 0.1497053444
H  H34  1  0.68720000  0.25960000  0.13340000  1.0 0.1497053444
H  H35  1  0.24040000  0.86660000  0.18720000  1.0 0.1497053444
H  H36  1  0.18720000  0.24040000  0.86660000  1.0 0.1497053444
H  H37  1  0.75960000  0.36660000  0.31280000  1.0 0.1497053444
H  H38  1  0.25960000  0.13340000  0.68720000  1.0 0.1497053444
H  H39  1  0.31280000  0.75960000  0.36660000  1.0 0.1497053444
H  H40  1  0.13340000  0.68720000  0.25960000  1.0 0.1497053444
H  H41  1  0.36660000  0.31280000  0.75960000  1.0 0.1497053444
H  H42  1  0.86660000  0.18720000  0.24040000  1.0 0.1497053444
H  H43  1  0.93720000  0.61660000  0.99040000  1.0 0.1497053444
H  H44  1  0.56280000  0.38340000  0.49040000  1.0 0.1497053444
H  H45  1  0.00960000  0.56280000  0.61660000  1.0 0.1497053444
H  H46  1  0.49040000  0.56280000  0.38340000  1.0 0.1497053444
H  H47  1  0.38340000  0.50960000  0.93720000  1.0 0.1497053444
H  H48  1  0.38340000  0.49040000  0.56280000  1.0 0.1497053444
H  H49  1  0.56610000  0.82150000  0.75780000  1.0 0.1721711947
H  H50  1  0.68390000  0.00780000  0.92850000  1.0 0.1721711947
H  H51  1  0.68390000  0.99220000  0.57150000  1.0 0.1721711947
H  H52  1  0.49220000  0.92850000  0.31610000  1.0 0.1721711947
H  H53  1  0.00780000  0.92850000  0.68390000  1.0 0.1721711947
H  H54  1  0.07150000  0.18390000  0.49220000  1.0 0.1721711947
H  H55  1  0.42850000  0.81610000  0.99220000  1.0 0.1721711947
H  H56  1  0.75780000  0.56610000  0.82150000  1.0 0.1721711947
H  H57  1  0.82150000  0.75780000  0.56610000  1.0 0.1721711947
H  H58  1  0.17850000  0.74220000  0.56610000  1.0 0.1721711947
H  H59  1  0.75780000  0.43390000  0.67850000  1.0 0.1721711947
H  H60  1  0.67850000  0.75780000  0.43390000  1.0 0.1721711947
H  H61  1  0.24220000  0.93390000  0.82150000  1.0 0.1721711947
H  H62  1  0.74220000  0.56610000  0.17850000  1.0 0.1721711947
H  H63  1  0.82150000  0.24220000  0.93390000  1.0 0.1721711947
H  H64  1  0.56610000  0.17850000  0.74220000  1.0 0.1721711947
H  H65  1  0.93390000  0.82150000  0.24220000  1.0 0.1721711947
H  H66  1  0.43390000  0.67850000  0.75780000  1.0 0.1721711947
H  H67  1  0.42850000  0.18390000  0.50780000  1.0 0.1721711947
H  H68  1  0.07150000  0.81610000  0.00780000  1.0 0.1721711947
H  H69  1  0.49220000  0.07150000  0.18390000  1.0 0.1721711947
H  H70  1  0.00780000  0.07150000  0.81610000  1.0 0.1721711947
H  H71  1  0.81610000  0.99220000  0.42850000  1.0 0.1721711947
H  H72  1  0.81610000  0.00780000  0.07150000  1.0 0.1721711947
H  H73  1  0.06610000  0.32150000  0.25780000  1.0 0.1721711947
H  H74  1  0.18390000  0.50780000  0.42850000  1.0 0.1721711947
H  H75  1  0.18390000  0.49220000  0.07150000  1.0 0.1721711947
H  H76  1  0.99220000  0.42850000  0.81610000  1.0 0.1721711947
H  H77  1  0.50780000  0.42850000  0.18390000  1.0 0.1721711947
H  H78  1  0.57150000  0.68390000  0.99220000  1.0 0.1721711947
H  H79  1  0.92850000  0.31610000  0.49220000  1.0 0.1721711947
H  H80  1  0.25780000  0.06610000  0.32150000  1.0 0.1721711947
H  H81  1  0.32150000  0.25780000  0.06610000  1.0 0.1721711947
H  H82  1  0.67850000  0.24220000  0.06610000  1.0 0.1721711947
H  H83  1  0.25780000  0.93390000  0.17850000  1.0 0.1721711947
H  H84  1  0.17850000  0.25780000  0.93390000  1.0 0.1721711947
H  H85  1  0.74220000  0.43390000  0.32150000  1.0 0.1721711947
H  H86  1  0.24220000  0.06610000  0.67850000  1.0 0.1721711947
H  H87  1  0.32150000  0.74220000  0.43390000  1.0 0.1721711947
H  H88  1  0.06610000  0.67850000  0.24220000  1.0 0.1721711947
H  H89  1  0.43390000  0.32150000  0.74220000  1.0 0.1721711947
H  H90  1  0.93390000  0.17850000  0.25780000  1.0 0.1721711947
H  H91  1  0.92850000  0.68390000  0.00780000  1.0 0.1721711947
H  H92  1  0.57150000  0.31610000  0.50780000  1.0 0.1721711947
H  H93  1  0.99220000  0.57150000  0.68390000  1.0 0.1721711947
H  H94  1  0.50780000  0.57150000  0.31610000  1.0 0.1721711947
H  H95  1  0.31610000  0.49220000  0.92850000  1.0 0.1721711947
H  H96  1  0.31610000  0.50780000  0.57150000  1.0 0.1721711947
H  H97  1  0.61600000  0.82720000  0.80670000  1.0 0.1497053444
H  H98  1  0.63400000  0.05670000  0.92280000  1.0 0.1497053444
H  H99  1  0.63400000  0.94330000  0.57720000  1.0 0.1497053444
H  H100  1  0.44330000  0.92280000  0.36600000  1.0 0.1497053444
H  H101  1  0.05670000  0.92280000  0.63400000  1.0 0.1497053444
H  H102  1  0.07720000  0.13400000  0.44330000  1.0 0.1497053444
H  H103  1  0.42280000  0.86600000  0.94330000  1.0 0.1497053444
H  H104  1  0.80670000  0.61600000  0.82720000  1.0 0.1497053444
H  H105  1  0.82720000  0.80670000  0.61600000  1.0 0.1497053444
H  H106  1  0.17280000  0.69330000  0.61600000  1.0 0.1497053444
H  H107  1  0.80670000  0.38400000  0.67280000  1.0 0.1497053444
H  H108  1  0.67280000  0.80670000  0.38400000  1.0 0.1497053444
H  H109  1  0.19330000  0.88400000  0.82720000  1.0 0.1497053444
H  H110  1  0.69330000  0.61600000  0.17280000  1.0 0.1497053444
H  H111  1  0.82720000  0.19330000  0.88400000  1.0 0.1497053444
H  H112  1  0.61600000  0.17280000  0.69330000  1.0 0.1497053444
H  H113  1  0.88400000  0.82720000  0.19330000  1.0 0.1497053444
H  H114  1  0.38400000  0.67280000  0.80670000  1.0 0.1497053444
H  H115  1  0.42280000  0.13400000  0.55670000  1.0 0.1497053444
H  H116  1  0.07720000  0.86600000  0.05670000  1.0 0.1497053444
H  H117  1  0.44330000  0.07720000  0.13400000  1.0 0.1497053444
H  H118  1  0.05670000  0.07720000  0.86600000  1.0 0.1497053444
H  H119  1  0.86600000  0.94330000  0.42280000  1.0 0.1497053444
H  H120  1  0.86600000  0.05670000  0.07720000  1.0 0.1497053444
H  H121  1  0.11600000  0.32720000  0.30670000  1.0 0.1497053444
H  H122  1  0.13400000  0.55670000  0.42280000  1.0 0.1497053444
H  H123  1  0.13400000  0.44330000  0.07720000  1.0 0.1497053444
H  H124  1  0.94330000  0.42280000  0.86600000  1.0 0.1497053444
H  H125  1  0.55670000  0.42280000  0.13400000  1.0 0.1497053444
H  H126  1  0.57720000  0.63400000  0.94330000  1.0 0.1497053444
H  H127  1  0.92280000  0.36600000  0.44330000  1.0 0.1497053444
H  H128  1  0.30670000  0.11600000  0.32720000  1.0 0.1497053444
H  H129  1  0.32720000  0.30670000  0.11600000  1.0 0.1497053444
H  H130  1  0.67280000  0.19330000  0.11600000  1.0 0.1497053444
H  H131  1  0.30670000  0.88400000  0.17280000  1.0 0.1497053444
H  H132  1  0.17280000  0.30670000  0.88400000  1.0 0.1497053444
H  H133  1  0.69330000  0.38400000  0.32720000  1.0 0.1497053444
H  H134  1  0.19330000  0.11600000  0.67280000  1.0 0.1497053444
H  H135  1  0.32720000  0.69330000  0.38400000  1.0 0.1497053444
H  H136  1  0.11600000  0.67280000  0.19330000  1.0 0.1497053444
H  H137  1  0.38400000  0.32720000  0.69330000  1.0 0.1497053444
H  H138  1  0.88400000  0.17280000  0.30670000  1.0 0.1497053444
H  H139  1  0.92280000  0.63400000  0.05670000  1.0 0.1497053444
H  H140  1  0.57720000  0.36600000  0.55670000  1.0 0.1497053444
H  H141  1  0.94330000  0.57720000  0.63400000  1.0 0.1497053444
H  H142  1  0.55670000  0.57720000  0.36600000  1.0 0.1497053444
H  H143  1  0.36600000  0.44330000  0.92280000  1.0 0.1497053444
H  H144  1  0.36600000  0.55670000  0.57720000  1.0 0.1497053444
H  H145  1  0.61670000  0.61670000  0.65460000  0.3333 0.0877250007
H  H146  1  0.63330000  0.90460000  0.13330000  0.3333 0.0877250007
H  H147  1  0.63330000  0.09540000  0.36670000  0.3333 0.0877250007
H  H148  1  0.59540000  0.13330000  0.36670000  0.3333 0.0877250007
H  H149  1  0.90460000  0.13330000  0.63330000  0.3333 0.0877250007
H  H150  1  0.86670000  0.13330000  0.59540000  0.3333 0.0877250007
H  H151  1  0.63330000  0.86670000  0.09540000  0.3333 0.0877250007
H  H152  1  0.65460000  0.61670000  0.61670000  0.3333 0.0877250007
H  H153  1  0.61670000  0.65460000  0.61670000  0.3333 0.0877250007
H  H154  1  0.38330000  0.84540000  0.61670000  0.3333 0.0877250007
H  H155  1  0.65460000  0.38330000  0.88330000  0.3333 0.0877250007
H  H156  1  0.88330000  0.65460000  0.38330000  0.3333 0.0877250007
H  H157  1  0.34540000  0.88330000  0.61670000  0.3333 0.0877250007
H  H158  1  0.84540000  0.61670000  0.38330000  0.3333 0.0877250007
H  H159  1  0.61670000  0.34540000  0.88330000  0.3333 0.0877250007
H  H160  1  0.61670000  0.38330000  0.84540000  0.3333 0.0877250007
H  H161  1  0.88330000  0.61670000  0.34540000  0.3333 0.0877250007
H  H162  1  0.38330000  0.88330000  0.65460000  0.3333 0.0877250007
H  H163  1  0.63330000  0.13330000  0.40460000  0.3333 0.0877250007
H  H164  1  0.86670000  0.86670000  0.90460000  0.3333 0.0877250007
H  H165  1  0.59540000  0.86670000  0.13330000  0.3333 0.0877250007
H  H166  1  0.90460000  0.86670000  0.86670000  0.3333 0.0877250007
H  H167  1  0.86670000  0.09540000  0.63330000  0.3333 0.0877250007
H  H168  1  0.86670000  0.90460000  0.86670000  0.3333 0.0877250007
H  H169  1  0.11670000  0.11670000  0.15460000  0.3333 0.0877250007
H  H170  1  0.13330000  0.40460000  0.63330000  0.3333 0.0877250007
H  H171  1  0.13330000  0.59540000  0.86670000  0.3333 0.0877250007
H  H172  1  0.09540000  0.63330000  0.86670000  0.3333 0.0877250007
H  H173  1  0.40460000  0.63330000  0.13330000  0.3333 0.0877250007
H  H174  1  0.36670000  0.63330000  0.09540000  0.3333 0.0877250007
H  H175  1  0.13330000  0.36670000  0.59540000  0.3333 0.0877250007
H  H176  1  0.15460000  0.11670000  0.11670000  0.3333 0.0877250007
H  H177  1  0.11670000  0.15460000  0.11670000  0.3333 0.0877250007
H  H178  1  0.88330000  0.34540000  0.11670000  0.3333 0.0877250007
H  H179  1  0.15460000  0.88330000  0.38330000  0.3333 0.0877250007
H  H180  1  0.38330000  0.15460000  0.88330000  0.3333 0.0877250007
H  H181  1  0.84540000  0.38330000  0.11670000  0.3333 0.0877250007
H  H182  1  0.34540000  0.11670000  0.88330000  0.3333 0.0877250007
H  H183  1  0.11670000  0.84540000  0.38330000  0.3333 0.0877250007
H  H184  1  0.11670000  0.88330000  0.34540000  0.3333 0.0877250007
H  H185  1  0.38330000  0.11670000  0.84540000  0.3333 0.0877250007
H  H186  1  0.88330000  0.38330000  0.15460000  0.3333 0.0877250007
H  H187  1  0.13330000  0.63330000  0.90460000  0.3333 0.0877250007
H  H188  1  0.36670000  0.36670000  0.40460000  0.3333 0.0877250007
H  H189  1  0.09540000  0.36670000  0.63330000  0.3333 0.0877250007
H  H190  1  0.40460000  0.36670000  0.36670000  0.3333 0.0877250007
H  H191  1  0.36670000  0.59540000  0.13330000  0.3333 0.0877250007
H  H192  1  0.36670000  0.40460000  0.36670000  0.3333 0.0877250007
H  H193  1  0.64200000  0.64200000  0.60400000  0.3333 0.0877250007
H  H194  1  0.60800000  0.85400000  0.10800000  0.3333 0.0877250007
H  H195  1  0.60800000  0.14600000  0.39200000  0.3333 0.0877250007
H  H196  1  0.64600000  0.10800000  0.39200000  0.3333 0.0877250007
H  H197  1  0.85400000  0.10800000  0.60800000  0.3333 0.0877250007
H  H198  1  0.89200000  0.10800000  0.64600000  0.3333 0.0877250007
H  H199  1  0.60800000  0.89200000  0.14600000  0.3333 0.0877250007
H  H200  1  0.60400000  0.64200000  0.64200000  0.3333 0.0877250007
H  H201  1  0.64200000  0.60400000  0.64200000  0.3333 0.0877250007
H  H202  1  0.35800000  0.89600000  0.64200000  0.3333 0.0877250007
H  H203  1  0.60400000  0.35800000  0.85800000  0.3333 0.0877250007
H  H204  1  0.85800000  0.60400000  0.35800000  0.3333 0.0877250007
H  H205  1  0.39600000  0.85800000  0.64200000  0.3333 0.0877250007
H  H206  1  0.89600000  0.64200000  0.35800000  0.3333 0.0877250007
H  H207  1  0.64200000  0.39600000  0.85800000  0.3333 0.0877250007
H  H208  1  0.64200000  0.35800000  0.89600000  0.3333 0.0877250007
H  H209  1  0.85800000  0.64200000  0.39600000  0.3333 0.0877250007
H  H210  1  0.35800000  0.85800000  0.60400000  0.3333 0.0877250007
H  H211  1  0.60800000  0.10800000  0.35400000  0.3333 0.0877250007
H  H212  1  0.89200000  0.89200000  0.85400000  0.3333 0.0877250007
H  H213  1  0.64600000  0.89200000  0.10800000  0.3333 0.0877250007
H  H214  1  0.85400000  0.89200000  0.89200000  0.3333 0.0877250007
H  H215  1  0.89200000  0.14600000  0.60800000  0.3333 0.0877250007
H  H216  1  0.89200000  0.85400000  0.89200000  0.3333 0.0877250007
H  H217  1  0.14200000  0.14200000  0.10400000  0.3333 0.0877250007
H  H218  1  0.10800000  0.35400000  0.60800000  0.3333 0.0877250007
H  H219  1  0.10800000  0.64600000  0.89200000  0.3333 0.0877250007
H  H220  1  0.14600000  0.60800000  0.89200000  0.3333 0.0877250007
H  H221  1  0.35400000  0.60800000  0.10800000  0.3333 0.0877250007
H  H222  1  0.39200000  0.60800000  0.14600000  0.3333 0.0877250007
H  H223  1  0.10800000  0.39200000  0.64600000  0.3333 0.0877250007
H  H224  1  0.10400000  0.14200000  0.14200000  0.3333 0.0877250007
H  H225  1  0.14200000  0.10400000  0.14200000  0.3333 0.0877250007
H  H226  1  0.85800000  0.39600000  0.14200000  0.3333 0.0877250007
H  H227  1  0.10400000  0.85800000  0.35800000  0.3333 0.0877250007
H  H228  1  0.35800000  0.10400000  0.85800000  0.3333 0.0877250007
H  H229  1  0.89600000  0.35800000  0.14200000  0.3333 0.0877250007
H  H230  1  0.39600000  0.14200000  0.85800000  0.3333 0.0877250007
H  H231  1  0.14200000  0.89600000  0.35800000  0.3333 0.0877250007
H  H232  1  0.14200000  0.85800000  0.39600000  0.3333 0.0877250007
H  H233  1  0.35800000  0.14200000  0.89600000  0.3333 0.0877250007
H  H234  1  0.85800000  0.35800000  0.10400000  0.3333 0.0877250007
H  H235  1  0.10800000  0.60800000  0.85400000  0.3333 0.0877250007
H  H236  1  0.39200000  0.39200000  0.35400000  0.3333 0.0877250007
H  H237  1  0.14600000  0.39200000  0.60800000  0.3333 0.0877250007
H  H238  1  0.35400000  0.39200000  0.39200000  0.3333 0.0877250007
H  H239  1  0.39200000  0.64600000  0.10800000  0.3333 0.0877250007
H  H240  1  0.39200000  0.35400000  0.39200000  0.3333 0.0877250007
C  C1  1  0.59900000  0.74210000  0.78360000  1.0 0.296430119
C  C2  1  0.65100000  0.03360000  0.00790000  1.0 0.296430119
C  C3  1  0.65100000  0.96640000  0.49210000  1.0 0.296430119
C  C4  1  0.46640000  0.00790000  0.34900000  1.0 0.296430119
C  C5  1  0.03360000  0.00790000  0.65100000  1.0 0.296430119
C  C6  1  0.99210000  0.15100000  0.46640000  1.0 0.296430119
C  C7  1  0.50790000  0.84900000  0.96640000  1.0 0.296430119
C  C8  1  0.78360000  0.59900000  0.74210000  1.0 0.296430119
C  C9  1  0.74210000  0.78360000  0.59900000  1.0 0.296430119
C  C10  1  0.25790000  0.71640000  0.59900000  1.0 0.296430119
C  C11  1  0.78360000  0.40100000  0.75790000  1.0 0.296430119
C  C12  1  0.75790000  0.78360000  0.40100000  1.0 0.296430119
C  C13  1  0.21640000  0.90100000  0.74210000  1.0 0.296430119
C  C14  1  0.71640000  0.59900000  0.25790000  1.0 0.296430119
C  C15  1  0.74210000  0.21640000  0.90100000  1.0 0.296430119
C  C16  1  0.59900000  0.25790000  0.71640000  1.0 0.296430119
C  C17  1  0.90100000  0.74210000  0.21640000  1.0 0.296430119
C  C18  1  0.40100000  0.75790000  0.78360000  1.0 0.296430119
C  C19  1  0.50790000  0.15100000  0.53360000  1.0 0.296430119
C  C20  1  0.99210000  0.84900000  0.03360000  1.0 0.296430119
C  C21  1  0.46640000  0.99210000  0.15100000  1.0 0.296430119
C  C22  1  0.03360000  0.99210000  0.84900000  1.0 0.296430119
C  C23  1  0.84900000  0.96640000  0.50790000  1.0 0.296430119
C  C24  1  0.84900000  0.03360000  0.99210000  1.0 0.296430119
C  C25  1  0.09900000  0.24210000  0.28360000  1.0 0.296430119
C  C26  1  0.15100000  0.53360000  0.50790000  1.0 0.296430119
C  C27  1  0.15100000  0.46640000  0.99210000  1.0 0.296430119
C  C28  1  0.96640000  0.50790000  0.84900000  1.0 0.296430119
C  C29  1  0.53360000  0.50790000  0.15100000  1.0 0.296430119
C  C30  1  0.49210000  0.65100000  0.96640000  1.0 0.296430119
C  C31  1  0.00790000  0.34900000  0.46640000  1.0 0.296430119
C  C32  1  0.28360000  0.09900000  0.24210000  1.0 0.296430119
C  C33  1  0.24210000  0.28360000  0.09900000  1.0 0.296430119
C  C34  1  0.75790000  0.21640000  0.09900000  1.0 0.296430119
C  C35  1  0.28360000  0.90100000  0.25790000  1.0 0.296430119
C  C36  1  0.25790000  0.28360000  0.90100000  1.0 0.296430119
C  C37  1  0.71640000  0.40100000  0.24210000  1.0 0.296430119
C  C38  1  0.21640000  0.09900000  0.75790000  1.0 0.296430119
C  C39  1  0.24210000  0.71640000  0.40100000  1.0 0.296430119
C  C40  1  0.09900000  0.75790000  0.21640000  1.0 0.296430119
C  C41  1  0.40100000  0.24210000  0.71640000  1.0 0.296430119
C  C42  1  0.90100000  0.25790000  0.28360000  1.0 0.296430119
C  C43  1  0.00790000  0.65100000  0.03360000  1.0 0.296430119
C  C44  1  0.49210000  0.34900000  0.53360000  1.0 0.296430119
C  C45  1  0.96640000  0.49210000  0.65100000  1.0 0.296430119
C  C46  1  0.53360000  0.49210000  0.34900000  1.0 0.296430119
C  C47  1  0.34900000  0.46640000  0.00790000  1.0 0.296430119
C  C48  1  0.34900000  0.53360000  0.49210000  1.0 0.296430119
C  C49  1  0.60410000  0.80650000  0.77100000  1.0 -0.5258261928
C  C50  1  0.64590000  0.02100000  0.94350000  1.0 -0.5258261928
C  C51  1  0.64590000  0.97900000  0.55650000  1.0 -0.5258261928
C  C52  1  0.47900000  0.94350000  0.35410000  1.0 -0.5258261928
C  C53  1  0.02100000  0.94350000  0.64590000  1.0 -0.5258261928
C  C54  1  0.05650000  0.14590000  0.47900000  1.0 -0.5258261928
C  C55  1  0.44350000  0.85410000  0.97900000  1.0 -0.5258261928
C  C56  1  0.77100000  0.60410000  0.80650000  1.0 -0.5258261928
C  C57  1  0.80650000  0.77100000  0.60410000  1.0 -0.5258261928
C  C58  1  0.19350000  0.72900000  0.60410000  1.0 -0.5258261928
C  C59  1  0.77100000  0.39590000  0.69350000  1.0 -0.5258261928
C  C60  1  0.69350000  0.77100000  0.39590000  1.0 -0.5258261928
C  C61  1  0.22900000  0.89590000  0.80650000  1.0 -0.5258261928
C  C62  1  0.72900000  0.60410000  0.19350000  1.0 -0.5258261928
C  C63  1  0.80650000  0.22900000  0.89590000  1.0 -0.5258261928
C  C64  1  0.60410000  0.19350000  0.72900000  1.0 -0.5258261928
C  C65  1  0.89590000  0.80650000  0.22900000  1.0 -0.5258261928
C  C66  1  0.39590000  0.69350000  0.77100000  1.0 -0.5258261928
C  C67  1  0.44350000  0.14590000  0.52100000  1.0 -0.5258261928
C  C68  1  0.05650000  0.85410000  0.02100000  1.0 -0.5258261928
C  C69  1  0.47900000  0.05650000  0.14590000  1.0 -0.5258261928
C  C70  1  0.02100000  0.05650000  0.85410000  1.0 -0.5258261928
C  C71  1  0.85410000  0.97900000  0.44350000  1.0 -0.5258261928
C  C72  1  0.85410000  0.02100000  0.05650000  1.0 -0.5258261928
C  C73  1  0.10410000  0.30650000  0.27100000  1.0 -0.5258261928
C  C74  1  0.14590000  0.52100000  0.44350000  1.0 -0.5258261928
C  C75  1  0.14590000  0.47900000  0.05650000  1.0 -0.5258261928
C  C76  1  0.97900000  0.44350000  0.85410000  1.0 -0.5258261928
C  C77  1  0.52100000  0.44350000  0.14590000  1.0 -0.5258261928
C  C78  1  0.55650000  0.64590000  0.97900000  1.0 -0.5258261928
C  C79  1  0.94350000  0.35410000  0.47900000  1.0 -0.5258261928
C  C80  1  0.27100000  0.10410000  0.30650000  1.0 -0.5258261928
C  C81  1  0.30650000  0.27100000  0.10410000  1.0 -0.5258261928
C  C82  1  0.69350000  0.22900000  0.10410000  1.0 -0.5258261928
C  C83  1  0.27100000  0.89590000  0.19350000  1.0 -0.5258261928
C  C84  1  0.19350000  0.27100000  0.89590000  1.0 -0.5258261928
C  C85  1  0.72900000  0.39590000  0.30650000  1.0 -0.5258261928
C  C86  1  0.22900000  0.10410000  0.69350000  1.0 -0.5258261928
C  C87  1  0.30650000  0.72900000  0.39590000  1.0 -0.5258261928
C  C88  1  0.10410000  0.69350000  0.22900000  1.0 -0.5258261928
C  C89  1  0.39590000  0.30650000  0.72900000  1.0 -0.5258261928
C  C90  1  0.89590000  0.19350000  0.27100000  1.0 -0.5258261928
C  C91  1  0.94350000  0.64590000  0.02100000  1.0 -0.5258261928
C  C92  1  0.55650000  0.35410000  0.52100000  1.0 -0.5258261928
C  C93  1  0.97900000  0.55650000  0.64590000  1.0 -0.5258261928
C  C94  1  0.52100000  0.55650000  0.35410000  1.0 -0.5258261928
C  C95  1  0.35410000  0.47900000  0.94350000  1.0 -0.5258261928
C  C96  1  0.35410000  0.52100000  0.55650000  1.0 -0.5258261928
N  N1  1  0.56290000  0.71660000  0.82330000  1.0 -0.277378936
N  N2  1  0.68710000  0.07330000  0.03340000  1.0 -0.277378936
N  N3  1  0.68710000  0.92670000  0.46660000  1.0 -0.277378936
N  N4  1  0.42670000  0.03340000  0.31290000  1.0 -0.277378936
N  N5  1  0.07330000  0.03340000  0.68710000  1.0 -0.277378936
N  N6  1  0.96660000  0.18710000  0.42670000  1.0 -0.277378936
N  N7  1  0.53340000  0.81290000  0.92670000  1.0 -0.277378936
N  N8  1  0.82330000  0.56290000  0.71660000  1.0 -0.277378936
N  N9  1  0.71660000  0.82330000  0.56290000  1.0 -0.277378936
N  N10  1  0.28340000  0.67670000  0.56290000  1.0 -0.277378936
N  N11  1  0.82330000  0.43710000  0.78340000  1.0 -0.277378936
N  N12  1  0.78340000  0.82330000  0.43710000  1.0 -0.277378936
N  N13  1  0.17670000  0.93710000  0.71660000  1.0 -0.277378936
N  N14  1  0.67670000  0.56290000  0.28340000  1.0 -0.277378936
N  N15  1  0.71660000  0.17670000  0.93710000  1.0 -0.277378936
N  N16  1  0.56290000  0.28340000  0.67670000  1.0 -0.277378936
N  N17  1  0.93710000  0.71660000  0.17670000  1.0 -0.277378936
N  N18  1  0.43710000  0.78340000  0.82330000  1.0 -0.277378936
N  N19  1  0.53340000  0.18710000  0.57330000  1.0 -0.277378936
N  N20  1  0.96660000  0.81290000  0.07330000  1.0 -0.277378936
N  N21  1  0.42670000  0.96660000  0.18710000  1.0 -0.277378936
N  N22  1  0.07330000  0.96660000  0.81290000  1.0 -0.277378936
N  N23  1  0.81290000  0.92670000  0.53340000  1.0 -0.277378936
N  N24  1  0.81290000  0.07330000  0.96660000  1.0 -0.277378936
N  N25  1  0.06290000  0.21660000  0.32330000  1.0 -0.277378936
N  N26  1  0.18710000  0.57330000  0.53340000  1.0 -0.277378936
N  N27  1  0.18710000  0.42670000  0.96660000  1.0 -0.277378936
N  N28  1  0.92670000  0.53340000  0.81290000  1.0 -0.277378936
N  N29  1  0.57330000  0.53340000  0.18710000  1.0 -0.277378936
N  N30  1  0.46660000  0.68710000  0.92670000  1.0 -0.277378936
N  N31  1  0.03340000  0.31290000  0.42670000  1.0 -0.277378936
N  N32  1  0.32330000  0.06290000  0.21660000  1.0 -0.277378936
N  N33  1  0.21660000  0.32330000  0.06290000  1.0 -0.277378936
N  N34  1  0.78340000  0.17670000  0.06290000  1.0 -0.277378936
N  N35  1  0.32330000  0.93710000  0.28340000  1.0 -0.277378936
N  N36  1  0.28340000  0.32330000  0.93710000  1.0 -0.277378936
N  N37  1  0.67670000  0.43710000  0.21660000  1.0 -0.277378936
N  N38  1  0.17670000  0.06290000  0.78340000  1.0 -0.277378936
N  N39  1  0.21660000  0.67670000  0.43710000  1.0 -0.277378936
N  N40  1  0.06290000  0.78340000  0.17670000  1.0 -0.277378936
N  N41  1  0.43710000  0.21660000  0.67670000  1.0 -0.277378936
N  N42  1  0.93710000  0.28340000  0.32330000  1.0 -0.277378936
N  N43  1  0.03340000  0.68710000  0.07330000  1.0 -0.277378936
N  N44  1  0.46660000  0.31290000  0.57330000  1.0 -0.277378936
N  N45  1  0.92670000  0.46660000  0.68710000  1.0 -0.277378936
N  N46  1  0.57330000  0.46660000  0.31290000  1.0 -0.277378936
N  N47  1  0.31290000  0.42670000  0.03340000  1.0 -0.277378936
N  N48  1  0.31290000  0.57330000  0.46660000  1.0 -0.277378936
N  N49  1  0.63400000  0.69870000  0.76020000  1.0 -0.326574361
N  N50  1  0.61600000  0.01020000  0.05130000  1.0 -0.326574361
N  N51  1  0.61600000  0.98980000  0.44870000  1.0 -0.326574361
N  N52  1  0.48980000  0.05130000  0.38400000  1.0 -0.326574361
N  N53  1  0.01020000  0.05130000  0.61600000  1.0 -0.326574361
N  N54  1  0.94870000  0.11600000  0.48980000  1.0 -0.326574361
N  N55  1  0.55130000  0.88400000  0.98980000  1.0 -0.326574361
N  N56  1  0.76020000  0.63400000  0.69870000  1.0 -0.326574361
N  N57  1  0.69870000  0.76020000  0.63400000  1.0 -0.326574361
N  N58  1  0.30130000  0.73980000  0.63400000  1.0 -0.326574361
N  N59  1  0.76020000  0.36600000  0.80130000  1.0 -0.326574361
N  N60  1  0.80130000  0.76020000  0.36600000  1.0 -0.326574361
N  N61  1  0.23980000  0.86600000  0.69870000  1.0 -0.326574361
N  N62  1  0.73980000  0.63400000  0.30130000  1.0 -0.326574361
N  N63  1  0.69870000  0.23980000  0.86600000  1.0 -0.326574361
N  N64  1  0.63400000  0.30130000  0.73980000  1.0 -0.326574361
N  N65  1  0.86600000  0.69870000  0.23980000  1.0 -0.326574361
N  N66  1  0.36600000  0.80130000  0.76020000  1.0 -0.326574361
N  N67  1  0.55130000  0.11600000  0.51020000  1.0 -0.326574361
N  N68  1  0.94870000  0.88400000  0.01020000  1.0 -0.326574361
N  N69  1  0.48980000  0.94870000  0.11600000  1.0 -0.326574361
N  N70  1  0.01020000  0.94870000  0.88400000  1.0 -0.326574361
N  N71  1  0.88400000  0.98980000  0.55130000  1.0 -0.326574361
N  N72  1  0.88400000  0.01020000  0.94870000  1.0 -0.326574361
N  N73  1  0.13400000  0.19870000  0.26020000  1.0 -0.326574361
N  N74  1  0.11600000  0.51020000  0.55130000  1.0 -0.326574361
N  N75  1  0.11600000  0.48980000  0.94870000  1.0 -0.326574361
N  N76  1  0.98980000  0.55130000  0.88400000  1.0 -0.326574361
N  N77  1  0.51020000  0.55130000  0.11600000  1.0 -0.326574361
N  N78  1  0.44870000  0.61600000  0.98980000  1.0 -0.326574361
N  N79  1  0.05130000  0.38400000  0.48980000  1.0 -0.326574361
N  N80  1  0.26020000  0.13400000  0.19870000  1.0 -0.326574361
N  N81  1  0.19870000  0.26020000  0.13400000  1.0 -0.326574361
N  N82  1  0.80130000  0.23980000  0.13400000  1.0 -0.326574361
N  N83  1  0.26020000  0.86600000  0.30130000  1.0 -0.326574361
N  N84  1  0.30130000  0.26020000  0.86600000  1.0 -0.326574361
N  N85  1  0.73980000  0.36600000  0.19870000  1.0 -0.326574361
N  N86  1  0.23980000  0.13400000  0.80130000  1.0 -0.326574361
N  N87  1  0.19870000  0.73980000  0.36600000  1.0 -0.326574361
N  N88  1  0.13400000  0.80130000  0.23980000  1.0 -0.326574361
N  N89  1  0.36600000  0.19870000  0.73980000  1.0 -0.326574361
N  N90  1  0.86600000  0.30130000  0.26020000  1.0 -0.326574361
N  N91  1  0.05130000  0.61600000  0.01020000  1.0 -0.326574361
N  N92  1  0.44870000  0.38400000  0.51020000  1.0 -0.326574361
N  N93  1  0.98980000  0.44870000  0.61600000  1.0 -0.326574361
N  N94  1  0.51020000  0.44870000  0.38400000  1.0 -0.326574361
N  N95  1  0.38400000  0.48980000  0.05130000  1.0 -0.326574361
N  N96  1  0.38400000  0.51020000  0.44870000  1.0 -0.326574361
N  N97  1  0.57780000  0.65740000  0.82360000  1.0 -0.0033461546
N  N98  1  0.67220000  0.07360000  0.09260000  1.0 -0.0033461546
N  N99  1  0.67220000  0.92640000  0.40740000  1.0 -0.0033461546
N  N100  1  0.42640000  0.09260000  0.32780000  1.0 -0.0033461546
N  N101  1  0.07360000  0.09260000  0.67220000  1.0 -0.0033461546
N  N102  1  0.90740000  0.17220000  0.42640000  1.0 -0.0033461546
N  N103  1  0.59260000  0.82780000  0.92640000  1.0 -0.0033461546
N  N104  1  0.82360000  0.57780000  0.65740000  1.0 -0.0033461546
N  N105  1  0.65740000  0.82360000  0.57780000  1.0 -0.0033461546
N  N106  1  0.34260000  0.67640000  0.57780000  1.0 -0.0033461546
N  N107  1  0.82360000  0.42220000  0.84260000  1.0 -0.0033461546
N  N108  1  0.84260000  0.82360000  0.42220000  1.0 -0.0033461546
N  N109  1  0.17640000  0.92220000  0.65740000  1.0 -0.0033461546
N  N110  1  0.67640000  0.57780000  0.34260000  1.0 -0.0033461546
N  N111  1  0.65740000  0.17640000  0.92220000  1.0 -0.0033461546
N  N112  1  0.57780000  0.34260000  0.67640000  1.0 -0.0033461546
N  N113  1  0.92220000  0.65740000  0.17640000  1.0 -0.0033461546
N  N114  1  0.42220000  0.84260000  0.82360000  1.0 -0.0033461546
N  N115  1  0.59260000  0.17220000  0.57360000  1.0 -0.0033461546
N  N116  1  0.90740000  0.82780000  0.07360000  1.0 -0.0033461546
N  N117  1  0.42640000  0.90740000  0.17220000  1.0 -0.0033461546
N  N118  1  0.07360000  0.90740000  0.82780000  1.0 -0.0033461546
N  N119  1  0.82780000  0.92640000  0.59260000  1.0 -0.0033461546
N  N120  1  0.82780000  0.07360000  0.90740000  1.0 -0.0033461546
N  N121  1  0.07780000  0.15740000  0.32360000  1.0 -0.0033461546
N  N122  1  0.17220000  0.57360000  0.59260000  1.0 -0.0033461546
N  N123  1  0.17220000  0.42640000  0.90740000  1.0 -0.0033461546
N  N124  1  0.92640000  0.59260000  0.82780000  1.0 -0.0033461546
N  N125  1  0.57360000  0.59260000  0.17220000  1.0 -0.0033461546
N  N126  1  0.40740000  0.67220000  0.92640000  1.0 -0.0033461546
N  N127  1  0.09260000  0.32780000  0.42640000  1.0 -0.0033461546
N  N128  1  0.32360000  0.07780000  0.15740000  1.0 -0.0033461546
N  N129  1  0.15740000  0.32360000  0.07780000  1.0 -0.0033461546
N  N130  1  0.84260000  0.17640000  0.07780000  1.0 -0.0033461546
N  N131  1  0.32360000  0.92220000  0.34260000  1.0 -0.0033461546
N  N132  1  0.34260000  0.32360000  0.92220000  1.0 -0.0033461546
N  N133  1  0.67640000  0.42220000  0.15740000  1.0 -0.0033461546
N  N134  1  0.17640000  0.07780000  0.84260000  1.0 -0.0033461546
N  N135  1  0.15740000  0.67640000  0.42220000  1.0 -0.0033461546
N  N136  1  0.07780000  0.84260000  0.17640000  1.0 -0.0033461546
N  N137  1  0.42220000  0.15740000  0.67640000  1.0 -0.0033461546
N  N138  1  0.92220000  0.34260000  0.32360000  1.0 -0.0033461546
N  N139  1  0.09260000  0.67220000  0.07360000  1.0 -0.0033461546
N  N140  1  0.40740000  0.32780000  0.57360000  1.0 -0.0033461546
N  N141  1  0.92640000  0.40740000  0.67220000  1.0 -0.0033461546
N  N142  1  0.57360000  0.40740000  0.32780000  1.0 -0.0033461546
N  N143  1  0.32780000  0.42640000  0.09260000  1.0 -0.0033461546
N  N144  1  0.32780000  0.57360000  0.40740000  1.0 -0.0033461546
N  N145  1  0.62220000  0.64920000  0.78790000  1.0 0.0107769692
N  N146  1  0.62780000  0.03790000  0.10080000  1.0 0.0107769692
N  N147  1  0.62780000  0.96210000  0.39920000  1.0 0.0107769692
N  N148  1  0.46210000  0.10080000  0.37220000  1.0 0.0107769692
N  N149  1  0.03790000  0.10080000  0.62780000  1.0 0.0107769692
N  N150  1  0.89920000  0.12780000  0.46210000  1.0 0.0107769692
N  N151  1  0.60080000  0.87220000  0.96210000  1.0 0.0107769692
N  N152  1  0.78790000  0.62220000  0.64920000  1.0 0.0107769692
N  N153  1  0.64920000  0.78790000  0.62220000  1.0 0.0107769692
N  N154  1  0.35080000  0.71210000  0.62220000  1.0 0.0107769692
N  N155  1  0.78790000  0.37780000  0.85080000  1.0 0.0107769692
N  N156  1  0.85080000  0.78790000  0.37780000  1.0 0.0107769692
N  N157  1  0.21210000  0.87780000  0.64920000  1.0 0.0107769692
N  N158  1  0.71210000  0.62220000  0.35080000  1.0 0.0107769692
N  N159  1  0.64920000  0.21210000  0.87780000  1.0 0.0107769692
N  N160  1  0.62220000  0.35080000  0.71210000  1.0 0.0107769692
N  N161  1  0.87780000  0.64920000  0.21210000  1.0 0.0107769692
N  N162  1  0.37780000  0.85080000  0.78790000  1.0 0.0107769692
N  N163  1  0.60080000  0.12780000  0.53790000  1.0 0.0107769692
N  N164  1  0.89920000  0.87220000  0.03790000  1.0 0.0107769692
N  N165  1  0.46210000  0.89920000  0.12780000  1.0 0.0107769692
N  N166  1  0.03790000  0.89920000  0.87220000  1.0 0.0107769692
N  N167  1  0.87220000  0.96210000  0.60080000  1.0 0.0107769692
N  N168  1  0.87220000  0.03790000  0.89920000  1.0 0.0107769692
N  N169  1  0.12220000  0.14920000  0.28790000  1.0 0.0107769692
N  N170  1  0.12780000  0.53790000  0.60080000  1.0 0.0107769692
N  N171  1  0.12780000  0.46210000  0.89920000  1.0 0.0107769692
N  N172  1  0.96210000  0.60080000  0.87220000  1.0 0.0107769692
N  N173  1  0.53790000  0.60080000  0.12780000  1.0 0.0107769692
N  N174  1  0.39920000  0.62780000  0.96210000  1.0 0.0107769692
N  N175  1  0.10080000  0.37220000  0.46210000  1.0 0.0107769692
N  N176  1  0.28790000  0.12220000  0.14920000  1.0 0.0107769692
N  N177  1  0.14920000  0.28790000  0.12220000  1.0 0.0107769692
N  N178  1  0.85080000  0.21210000  0.12220000  1.0 0.0107769692
N  N179  1  0.28790000  0.87780000  0.35080000  1.0 0.0107769692
N  N180  1  0.35080000  0.28790000  0.87780000  1.0 0.0107769692
N  N181  1  0.71210000  0.37780000  0.14920000  1.0 0.0107769692
N  N182  1  0.21210000  0.12220000  0.85080000  1.0 0.0107769692
N  N183  1  0.14920000  0.71210000  0.37780000  1.0 0.0107769692
N  N184  1  0.12220000  0.85080000  0.21210000  1.0 0.0107769692
N  N185  1  0.37780000  0.14920000  0.71210000  1.0 0.0107769692
N  N186  1  0.87780000  0.35080000  0.28790000  1.0 0.0107769692
N  N187  1  0.10080000  0.62780000  0.03790000  1.0 0.0107769692
N  N188  1  0.39920000  0.37220000  0.53790000  1.0 0.0107769692
N  N189  1  0.96210000  0.39920000  0.62780000  1.0 0.0107769692
N  N190  1  0.53790000  0.39920000  0.37220000  1.0 0.0107769692
N  N191  1  0.37220000  0.46210000  0.10080000  1.0 0.0107769692
N  N192  1  0.37220000  0.53790000  0.39920000  1.0 0.0107769692
O  O1  1  0.64200000  0.64200000  0.64200000  1.0 -0.2137911798
O  O2  1  0.60800000  0.89200000  0.10800000  1.0 -0.2137911798
O  O3  1  0.60800000  0.10800000  0.39200000  1.0 -0.2137911798
O  O4  1  0.89200000  0.10800000  0.60800000  1.0 -0.2137911798
O  O5  1  0.35800000  0.85800000  0.64200000  1.0 -0.2137911798
O  O6  1  0.64200000  0.35800000  0.85800000  1.0 -0.2137911798
O  O7  1  0.85800000  0.64200000  0.35800000  1.0 -0.2137911798
O  O8  1  0.89200000  0.89200000  0.89200000  1.0 -0.2137911798
O  O9  1  0.14200000  0.14200000  0.14200000  1.0 -0.2137911798
O  O10  1  0.10800000  0.39200000  0.60800000  1.0 -0.2137911798
O  O11  1  0.10800000  0.60800000  0.89200000  1.0 -0.2137911798
O  O12  1  0.39200000  0.60800000  0.10800000  1.0 -0.2137911798
O  O13  1  0.85800000  0.35800000  0.14200000  1.0 -0.2137911798
O  O14  1  0.14200000  0.85800000  0.35800000  1.0 -0.2137911798
O  O15  1  0.35800000  0.14200000  0.85800000  1.0 -0.2137911798
O  O16  1  0.39200000  0.39200000  0.39200000  1.0 -0.2137911798
F  F1  1  0.10030000  0.46440000  0.28820000  1.0 -0.3792879414
F  F2  1  0.14970000  0.53820000  0.28560000  1.0 -0.3792879414
F  F3  1  0.14970000  0.46180000  0.21440000  1.0 -0.3792879414
F  F4  1  0.10030000  0.53560000  0.21180000  1.0 -0.3792879414
F  F5  1  0.46180000  0.21440000  0.14970000  1.0 -0.3792879414
F  F6  1  0.53820000  0.28560000  0.14970000  1.0 -0.3792879414
F  F7  1  0.46440000  0.28820000  0.10030000  1.0 -0.3792879414
F  F8  1  0.53560000  0.21180000  0.10030000  1.0 -0.3792879414
F  F9  1  0.39970000  0.53560000  0.78820000  1.0 -0.3792879414
F  F10  1  0.39970000  0.46440000  0.71180000  1.0 -0.3792879414
F  F11  1  0.35030000  0.46180000  0.78560000  1.0 -0.3792879414
F  F12  1  0.35030000  0.53820000  0.71440000  1.0 -0.3792879414
F  F13  1  0.89970000  0.96440000  0.21180000  1.0 -0.3792879414
F  F14  1  0.85030000  0.96180000  0.28560000  1.0 -0.3792879414
F  F15  1  0.85030000  0.03820000  0.21440000  1.0 -0.3792879414
F  F16  1  0.89970000  0.03560000  0.28820000  1.0 -0.3792879414
F  F17  1  0.96440000  0.21180000  0.89970000  1.0 -0.3792879414
F  F18  1  0.03820000  0.21440000  0.85030000  1.0 -0.3792879414
F  F19  1  0.96180000  0.28560000  0.85030000  1.0 -0.3792879414
F  F20  1  0.03560000  0.28820000  0.89970000  1.0 -0.3792879414
F  F21  1  0.78820000  0.39970000  0.53560000  1.0 -0.3792879414
F  F22  1  0.78560000  0.35030000  0.46180000  1.0 -0.3792879414
F  F23  1  0.71180000  0.39970000  0.46440000  1.0 -0.3792879414
F  F24  1  0.71440000  0.35030000  0.53820000  1.0 -0.3792879414
F  F25  1  0.78820000  0.60030000  0.96440000  1.0 -0.3792879414
F  F26  1  0.71180000  0.60030000  0.03560000  1.0 -0.3792879414
F  F27  1  0.71440000  0.64970000  0.96180000  1.0 -0.3792879414
F  F28  1  0.78560000  0.64970000  0.03820000  1.0 -0.3792879414
F  F29  1  0.28560000  0.85030000  0.96180000  1.0 -0.3792879414
F  F30  1  0.21180000  0.89970000  0.96440000  1.0 -0.3792879414
F  F31  1  0.21440000  0.85030000  0.03820000  1.0 -0.3792879414
F  F32  1  0.28820000  0.89970000  0.03560000  1.0 -0.3792879414
F  F33  1  0.21440000  0.14970000  0.46180000  1.0 -0.3792879414
F  F34  1  0.28560000  0.14970000  0.53820000  1.0 -0.3792879414
F  F35  1  0.28820000  0.10030000  0.46440000  1.0 -0.3792879414
F  F36  1  0.21180000  0.10030000  0.53560000  1.0 -0.3792879414
F  F37  1  0.03820000  0.78560000  0.64970000  1.0 -0.3792879414
F  F38  1  0.96440000  0.78820000  0.60030000  1.0 -0.3792879414
F  F39  1  0.03560000  0.71180000  0.60030000  1.0 -0.3792879414
F  F40  1  0.96180000  0.71440000  0.64970000  1.0 -0.3792879414
F  F41  1  0.46180000  0.78560000  0.35030000  1.0 -0.3792879414
F  F42  1  0.53560000  0.78820000  0.39970000  1.0 -0.3792879414
F  F43  1  0.46440000  0.71180000  0.39970000  1.0 -0.3792879414
F  F44  1  0.53820000  0.71440000  0.35030000  1.0 -0.3792879414
F  F45  1  0.60030000  0.96440000  0.78820000  1.0 -0.3792879414
F  F46  1  0.64970000  0.03820000  0.78560000  1.0 -0.3792879414
F  F47  1  0.64970000  0.96180000  0.71440000  1.0 -0.3792879414
F  F48  1  0.60030000  0.03560000  0.71180000  1.0 -0.3792879414
