# DDEC6 charges by PACMAN v1.1 (https://github.com/mtap-research/PACMAN-charge/)
data_2017[Zn][unc]3[FSR]2
_chemical_formula_sum              "Zn4 H56 C44 N8 O16"
_cell_length_a       12.8
_cell_length_b       12.8
_cell_length_c       9.984
_cell_angle_alpha    90
_cell_angle_beta     90
_cell_angle_gamma    90

_symmetry_space_group_name_H-M    "P 1"
_symmetry_Int_Tables_number       1

loop_
  _symmetry_equiv_pos_as_xyz
  'x, y, z'

loop_
  _atom_site_type_symbol
  _atom_site_label
  _atom_site_symmetry_multiplicity
  _atom_site_fract_x
  _atom_site_fract_y
  _atom_site_fract_z
  _atom_site_occupancy
  _atom_site_charge
Zn  Zn1       1.0  0.51723  0.90972  0.04161  1.0000 0.749747497
Zn  Zn2       1.0  0.48277  0.09028  0.54161  1.0000 0.749747497
Zn  Zn3       1.0  0.90972  0.48277  0.29161  1.0000 0.749747497
Zn  Zn4       1.0  0.09028  0.51723  0.79161  1.0000 0.749747497
H   H1        1.0  0.66710  0.73320  0.11950  1.0000 0.130918038
H   H2        1.0  0.33290  0.26680  0.61950  1.0000 0.130918038
H   H3        1.0  0.73320  0.33290  0.36950  1.0000 0.130918038
H   H4        1.0  0.26680  0.66710  0.86950  1.0000 0.130918038
H   H5        1.0  0.81280  0.64970  0.04500  1.0000 0.1525792693
H   H6        1.0  0.18720  0.35030  0.54500  1.0000 0.1525792693
H   H7        1.0  0.64970  0.18720  0.29500  1.0000 0.1525792693
H   H8        1.0  0.35030  0.81280  0.79500  1.0000 0.1525792693
H   H9        1.0  0.80040  0.82420  0.71240  1.0000 0.1525792693
H   H10       1.0  0.19960  0.17580  0.21240  1.0000 0.1525792693
H   H11       1.0  0.82420  0.19960  0.96240  1.0000 0.1525792693
H   H12       1.0  0.17580  0.80040  0.46240  1.0000 0.1525792693
H   H13       1.0  0.65990  0.90730  0.80130  1.0000 0.1203066836
H   H14       1.0  0.34010  0.09270  0.30130  1.0000 0.1203066836
H   H15       1.0  0.90730  0.34010  0.05130  1.0000 0.1203066836
H   H16       1.0  0.09270  0.65990  0.55130  1.0000 0.1203066836
H   H17       1.0  0.94050  0.70900  0.73300  1.0000 0.1203066836
H   H18       1.0  0.05950  0.29100  0.23300  1.0000 0.1203066836
H   H19       1.0  0.70900  0.05950  0.98300  1.0000 0.1203066836
H   H20       1.0  0.29100  0.94050  0.48300  1.0000 0.1203066836
H   H21       1.0  0.98030  0.70680  0.88090  1.0000 0.1379610073
H   H22       1.0  0.01970  0.29320  0.38090  1.0000 0.1379610073
H   H23       1.0  0.70680  0.01970  0.13090  1.0000 0.1379610073
H   H24       1.0  0.29320  0.98030  0.63090  1.0000 0.1379610073
H   H25       1.0  0.81180  0.56570  0.68360  1.0000 0.0979753946
H   H26       1.0  0.18820  0.43430  0.18360  1.0000 0.0979753946
H   H27       1.0  0.56570  0.18820  0.93360  1.0000 0.0979753946
H   H28       1.0  0.43430  0.81180  0.43360  1.0000 0.0979753946
H   H29       1.0  0.75510  0.44210  0.83560  1.0000 0.1379610073
H   H30       1.0  0.24490  0.55790  0.33560  1.0000 0.1379610073
H   H31       1.0  0.44210  0.24490  0.08560  1.0000 0.1379610073
H   H32       1.0  0.55790  0.75510  0.58560  1.0000 0.1379610073
H   H33       1.0  0.77970  0.37720  0.70620  1.0000 0.1379610073
H   H34       1.0  0.22030  0.62280  0.20620  1.0000 0.1379610073
H   H35       1.0  0.37720  0.22030  0.95620  1.0000 0.1379610073
H   H36       1.0  0.62280  0.77970  0.45620  1.0000 0.1379610073
H   H37       1.0  0.85940  0.37840  0.82540  1.0000 0.130918038
H   H38       1.0  0.14060  0.62160  0.32540  1.0000 0.130918038
H   H39       1.0  0.37840  0.14060  0.07540  1.0000 0.130918038
H   H40       1.0  0.62160  0.85940  0.57540  1.0000 0.130918038
H   H41       1.0  0.21060  0.75520  0.11720  1.0000 0.1525792693
H   H42       1.0  0.78940  0.24480  0.61720  1.0000 0.1525792693
H   H43       1.0  0.75520  0.78940  0.36720  1.0000 0.1525792693
H   H44       1.0  0.24480  0.21060  0.86720  1.0000 0.1525792693
H   H45       1.0  0.19070  0.85710  0.20050  1.0000 0.1525792693
H   H46       1.0  0.80930  0.14290  0.70050  1.0000 0.1525792693
H   H47       1.0  0.85710  0.80930  0.45050  1.0000 0.1525792693
H   H48       1.0  0.14290  0.19070  0.95050  1.0000 0.1525792693
H   H49       1.0  0.17710  0.85840  0.04450  1.0000 0.1525792693
H   H50       1.0  0.82290  0.14160  0.54450  1.0000 0.1525792693
H   H51       1.0  0.85840  0.82290  0.29450  1.0000 0.1525792693
H   H52       1.0  0.14160  0.17710  0.79450  1.0000 0.1525792693
H   H53       1.0  0.91150  0.54160  0.89590  1.0000 0.2518445523
H   H54       1.0  0.08850  0.45840  0.39590  1.0000 0.2518445523
H   H55       1.0  0.54160  0.08850  0.14590  1.0000 0.2518445523
H   H56       1.0  0.45840  0.91150  0.64590  1.0000 0.2518445523
C   C1        1.0  0.69400  0.75180  0.03630  1.0000 0.0979753946
C   C2        1.0  0.30600  0.24820  0.53630  1.0000 0.0979753946
C   C3        1.0  0.75180  0.30600  0.28630  1.0000 0.0979753946
C   C4        1.0  0.24820  0.69400  0.78630  1.0000 0.0979753946
C   C5        1.0  0.78180  0.70080  0.99200  1.0000 -0.1832372128
C   C6        1.0  0.21820  0.29920  0.49200  1.0000 -0.1832372128
C   C7        1.0  0.70080  0.21820  0.24200  1.0000 -0.1832372128
C   C8        1.0  0.29920  0.78180  0.74200  1.0000 -0.1832372128
C   C9        1.0  0.82460  0.72560  0.86750  1.0000 0.1525792693
C   C10       1.0  0.17540  0.27440  0.36750  1.0000 0.1525792693
C   C11       1.0  0.72560  0.17540  0.11750  1.0000 0.1525792693
C   C12       1.0  0.27440  0.82460  0.61750  1.0000 0.1525792693
C   C13       1.0  0.77530  0.80440  0.79610  1.0000 -0.1965622409
C   C14       1.0  0.22470  0.19560  0.29610  1.0000 -0.1965622409
C   C15       1.0  0.80440  0.22470  0.04610  1.0000 -0.1965622409
C   C16       1.0  0.19560  0.77530  0.54610  1.0000 -0.1965622409
C   C17       1.0  0.68960  0.85260  0.84940  1.0000 0.0586899984
C   C18       1.0  0.31040  0.14740  0.34940  1.0000 0.0586899984
C   C19       1.0  0.85260  0.31040  0.09940  1.0000 0.0586899984
C   C20       1.0  0.14740  0.68960  0.59940  1.0000 0.0586899984
C   C21       1.0  0.92590  0.68160  0.82160  1.0000 -0.156023535
C   C22       1.0  0.07410  0.31840  0.32160  1.0000 -0.156023535
C   C23       1.0  0.68160  0.07410  0.07160  1.0000 -0.156023535
C   C24       1.0  0.31840  0.92590  0.57160  1.0000 -0.156023535
C   C25       1.0  0.86450  0.51540  0.71400  1.0000 0.0206680069
C   C26       1.0  0.13550  0.48460  0.21400  1.0000 0.0206680069
C   C27       1.0  0.51540  0.13550  0.96400  1.0000 0.0206680069
C   C28       1.0  0.48460  0.86450  0.46400  1.0000 0.0206680069
C   C29       1.0  0.80940  0.41910  0.77620  1.0000 -0.4232936306
C   C30       1.0  0.19060  0.58090  0.27620  1.0000 -0.4232936306
C   C31       1.0  0.41910  0.19060  0.02620  1.0000 -0.4232936306
C   C32       1.0  0.58090  0.80940  0.52620  1.0000 -0.4232936306
C   C33       1.0  0.92890  0.47800  0.59430  1.0000 0.5735857756
C   C34       1.0  0.07110  0.52200  0.09430  1.0000 0.5735857756
C   C35       1.0  0.47800  0.07110  0.84430  1.0000 0.5735857756
C   C36       1.0  0.52200  0.92890  0.34430  1.0000 0.5735857756
C   C37       1.0  0.32680  0.85900  0.10200  1.0000 0.6455519469
C   C38       1.0  0.67320  0.14100  0.60200  1.0000 0.6455519469
C   C39       1.0  0.85900  0.67320  0.35200  1.0000 0.6455519469
C   C40       1.0  0.14100  0.32680  0.85200  1.0000 0.6455519469
C   C41       1.0  0.21690  0.83000  0.11700  1.0000 -0.6038891403
C   C42       1.0  0.78310  0.17000  0.61700  1.0000 -0.6038891403
C   C43       1.0  0.83000  0.78310  0.36700  1.0000 -0.6038891403
C   C44       1.0  0.17000  0.21690  0.86700  1.0000 -0.6038891403
N   N1        1.0  0.64500  0.82610  0.96800  1.0000 -0.2424655287
N   N2        1.0  0.35500  0.17390  0.46800  1.0000 -0.2424655287
N   N3        1.0  0.82610  0.35500  0.21800  1.0000 -0.2424655287
N   N4        1.0  0.17390  0.64500  0.71800  1.0000 -0.2424655287
N   N5        1.0  0.93290  0.56550  0.81560  1.0000 -0.331918302
N   N6        1.0  0.06710  0.43450  0.31560  1.0000 -0.331918302
N   N7        1.0  0.56550  0.06710  0.06560  1.0000 -0.331918302
N   N8        1.0  0.43450  0.93290  0.56560  1.0000 -0.331918302
O   O1        1.0  0.02610  0.47800  0.59960  1.0000 -0.5350703923
O   O2        1.0  0.97390  0.52200  0.09960  1.0000 -0.5350703923
O   O3        1.0  0.47800  0.97390  0.84960  1.0000 -0.5350703923
O   O4        1.0  0.52200  0.02610  0.34960  1.0000 -0.5350703923
O   O5        1.0  0.87530  0.44550  0.49540  1.0000 -0.5548087685
O   O6        1.0  0.12470  0.55450  0.99540  1.0000 -0.5548087685
O   O7        1.0  0.44550  0.12470  0.74540  1.0000 -0.5548087685
O   O8        1.0  0.55450  0.87530  0.24540  1.0000 -0.5548087685
O   O9        1.0  0.39370  0.81070  0.04520  1.0000 -0.5106576411
O   O10       1.0  0.60630  0.18930  0.54520  1.0000 -0.5106576411
O   O11       1.0  0.81070  0.60630  0.29520  1.0000 -0.5106576411
O   O12       1.0  0.18930  0.39370  0.79520  1.0000 -0.5106576411
O   O13       1.0  0.33630  0.95280  0.14030  1.0000 -0.5899202554
O   O14       1.0  0.66370  0.04720  0.64030  1.0000 -0.5899202554
O   O15       1.0  0.95280  0.66370  0.39030  1.0000 -0.5899202554
O   O16       1.0  0.04720  0.33630  0.89030  1.0000 -0.5899202554
