# DDEC6 charges by PACMAN v1.1 (https://github.com/mtap-research/PACMAN-charge/)
data_d3dt00422h2_4_FSR_pacman
_symmetry_space_group_name_H-M   'P 1'
_cell_length_a   16.56690000
_cell_length_b   28.55120000
_cell_length_c   31.61720000
_cell_angle_alpha   90.00000000
_cell_angle_beta   90.00000000
_cell_angle_gamma   90.00000000
_symmetry_Int_Tables_number   1
_chemical_formula_structural   Ca20H296.0C392N20O93.872F36
_chemical_formula_sum   'Ca20 H296.0 C392 N20 O93.872 F36'
_cell_volume   14955.08974270
_cell_formula_units_Z   1
loop_
 _symmetry_equiv_pos_site_id
 _symmetry_equiv_pos_as_xyz
  1  'x, y, z'
loop_
 _atom_site_type_symbol
 _atom_site_label
 _atom_site_symmetry_multiplicity
 _atom_site_fract_x
 _atom_site_fract_y
 _atom_site_fract_z
 _atom_site_occupancy
 _atom_site_charge
Ca  Ca1  1  0.34348000  0.13512000  0.98165000  1.0 1.3636969158
Ca  Ca2  1  0.65652000  0.63512000  0.01835000  1.0 1.3636969158
Ca  Ca3  1  0.15652000  0.13512000  0.48165000  1.0 1.3636969158
Ca  Ca4  1  0.84348000  0.63512000  0.51835000  1.0 1.3636969158
Ca  Ca5  1  0.64816000  0.57412000  0.91474000  1.0 1.3545610139
Ca  Ca6  1  0.35184000  0.07412000  0.08526000  1.0 1.3545610139
Ca  Ca7  1  0.85184000  0.57412000  0.41474000  1.0 1.3545610139
Ca  Ca8  1  0.14816000  0.07412000  0.58526000  1.0 1.3545610139
Ca  Ca9  1  0.27932000  0.10878000  0.67903000  1.0 1.3308598825
Ca  Ca10  1  0.72068000  0.60878000  0.32097000  1.0 1.3308598825
Ca  Ca11  1  0.22068000  0.10878000  0.17903000  1.0 1.3308598825
Ca  Ca12  1  0.77932000  0.60878000  0.82097000  1.0 1.3308598825
Ca  Ca13  1  0.21796000  0.10108000  0.79519000  1.0 1.3162578174
Ca  Ca14  1  0.78204000  0.60108000  0.20481000  1.0 1.3162578174
Ca  Ca15  1  0.28204000  0.10108000  0.29519000  1.0 1.3162578174
Ca  Ca16  1  0.71796000  0.60108000  0.70481000  1.0 1.3162578174
Ca  Ca17  1  0.84730000  0.56904000  0.61726000  1.0 1.3308598825
Ca  Ca18  1  0.15270000  0.06904000  0.38274000  1.0 1.3308598825
Ca  Ca19  1  0.65270000  0.56904000  0.11726000  1.0 1.3308598825
Ca  Ca20  1  0.34730000  0.06904000  0.88274000  1.0 1.3308598825
H  H1  1  0.97774000  0.18230000  0.94603000  1.0 0.1115534441
H  H2  1  0.02226000  0.68230000  0.05397000  1.0 0.1190407756
H  H3  1  0.52226000  0.18230000  0.44603000  1.0 0.1190407756
H  H4  1  0.47774000  0.68230000  0.55397000  1.0 0.1190407756
H  H5  1  0.10085000  0.14215000  0.94954000  1.0 0.1190407756
H  H6  1  0.89915000  0.64215000  0.05046000  1.0 0.1190407756
H  H7  1  0.39915000  0.14215000  0.44954000  1.0 0.1190407756
H  H8  1  0.60085000  0.64215000  0.55046000  1.0 0.1190407756
H  H9  1  0.17327000  0.20628000  0.84153000  1.0 0.1115534441
H  H10  1  0.82673000  0.70628000  0.15847000  1.0 0.1115534441
H  H11  1  0.32673000  0.20628000  0.34153000  1.0 0.1115534441
H  H12  1  0.67327000  0.70628000  0.65847000  1.0 0.1115534441
H  H13  1  0.05130000  0.24681000  0.83859000  1.0 0.1190407756
H  H14  1  0.94870000  0.74681000  0.16141000  1.0 0.1190407756
H  H15  1  0.44870000  0.24681000  0.33859000  1.0 0.1190407756
H  H16  1  0.55130000  0.74681000  0.66141000  1.0 0.1190407756
H  H17  1  0.76114000  0.36877000  0.93566000  1.0 0.1190407756
H  H18  1  0.23886000  0.86877000  0.06434000  1.0 0.1190407756
H  H19  1  0.73886000  0.36877000  0.43566000  1.0 0.1190407756
H  H20  1  0.26114000  0.86877000  0.56434000  1.0 0.1190407756
H  H21  1  0.75110000  0.45056000  0.93562000  1.0 0.1190407756
H  H22  1  0.24890000  0.95056000  0.06438000  1.0 0.1190407756
H  H23  1  0.74890000  0.45056000  0.43562000  1.0 0.1190407756
H  H24  1  0.25110000  0.95056000  0.56438000  1.0 0.1190407756
H  H25  1  0.87824000  0.45607000  0.82683000  1.0 0.1190407756
H  H26  1  0.12176000  0.95607000  0.17317000  1.0 0.1190407756
H  H27  1  0.62176000  0.45607000  0.32683000  1.0 0.1190407756
H  H28  1  0.37824000  0.95607000  0.67317000  1.0 0.1190407756
H  H29  1  0.89799000  0.37522000  0.82951000  1.0 0.1190407756
H  H30  1  0.10201000  0.87522000  0.17049000  1.0 0.1190407756
H  H31  1  0.60201000  0.37522000  0.32951000  1.0 0.1190407756
H  H32  1  0.39799000  0.87522000  0.67049000  1.0 0.1190407756
H  H33  1  0.64588000  0.24261000  0.94208000  1.0 0.1115534441
H  H34  1  0.35412000  0.74261000  0.05792000  1.0 0.1115534441
H  H35  1  0.85412000  0.24261000  0.44208000  1.0 0.1115534441
H  H36  1  0.14588000  0.74261000  0.55792000  1.0 0.1115534441
H  H37  1  0.53154000  0.19517000  0.94803000  1.0 0.1190407756
H  H38  1  0.46846000  0.69517000  0.05197000  1.0 0.1190407756
H  H39  1  0.96846000  0.19517000  0.44803000  1.0 0.1190407756
H  H40  1  0.03154000  0.69517000  0.55197000  1.0 0.1190407756
H  H41  1  0.61926000  0.10957000  0.85672000  1.0 0.1115534441
H  H42  1  0.38074000  0.60957000  0.14328000  1.0 0.1115534441
H  H43  1  0.88074000  0.10957000  0.35672000  1.0 0.1115534441
H  H44  1  0.11926000  0.60957000  0.64328000  1.0 0.1115534441
H  H45  1  0.73189000  0.15784000  0.84938000  1.0 0.1115534441
H  H46  1  0.26811000  0.65784000  0.15062000  1.0 0.1115534441
H  H47  1  0.76811000  0.15784000  0.34938000  1.0 0.1115534441
H  H48  1  0.23189000  0.65784000  0.65062000  1.0 0.1115534441
H  H49  1  0.22663000  0.89189000  0.92920000  1.0 0.1190407756
H  H50  1  0.77337000  0.39189000  0.07080000  1.0 0.1190407756
H  H51  1  0.27337000  0.89189000  0.42920000  1.0 0.1190407756
H  H52  1  0.72663000  0.39189000  0.57080000  1.0 0.1190407756
H  H53  1  0.24650000  0.96835000  0.90618000  1.0 0.1305579509
H  H54  1  0.75350000  0.46835000  0.09382000  1.0 0.1305579509
H  H55  1  0.25350000  0.96835000  0.40618000  1.0 0.1305579509
H  H56  1  0.74650000  0.46835000  0.59382000  1.0 0.1305579509
H  H57  1  0.11323000  0.94101000  0.80150000  1.0 0.1190407756
H  H58  1  0.88677000  0.44101000  0.19850000  1.0 0.1190407756
H  H59  1  0.38677000  0.94101000  0.30150000  1.0 0.1190407756
H  H60  1  0.61323000  0.44101000  0.69850000  1.0 0.1190407756
H  H61  1  0.08712000  0.86559000  0.82673000  1.0 0.1115534441
H  H62  1  0.91288000  0.36559000  0.17327000  1.0 0.1115534441
H  H63  1  0.41288000  0.86559000  0.32673000  1.0 0.1115534441
H  H64  1  0.58712000  0.36559000  0.67327000  1.0 0.1115534441
H  H65  1  0.00510000  0.70256000  0.97494000  1.0 0.1190407756
H  H66  1  0.99490000  0.20256000  0.02506000  1.0 0.1115534441
H  H67  1  0.49490000  0.70256000  0.47494000  1.0 0.1115534441
H  H68  1  0.50510000  0.20256000  0.52506000  1.0 0.1115534441
H  H69  1  0.88232000  0.66288000  0.98133000  1.0 0.1190407756
H  H70  1  0.11768000  0.16288000  0.01867000  1.0 0.1190407756
H  H71  1  0.61768000  0.66288000  0.48133000  1.0 0.1190407756
H  H72  1  0.38232000  0.16288000  0.51867000  1.0 0.1190407756
H  H73  1  0.81561000  0.71019000  0.86557000  1.0 0.1115534441
H  H74  1  0.18439000  0.21019000  0.13443000  1.0 0.1115534441
H  H75  1  0.68439000  0.71019000  0.36557000  1.0 0.1115534441
H  H76  1  0.31561000  0.21019000  0.63443000  1.0 0.1115534441
H  H77  1  0.93590000  0.75259000  0.86080000  1.0 0.1115534441
H  H78  1  0.06410000  0.25259000  0.13920000  1.0 0.1115534441
H  H79  1  0.56410000  0.75259000  0.36080000  1.0 0.1115534441
H  H80  1  0.43590000  0.25259000  0.63920000  1.0 0.1115534441
H  H81  1  0.33257000  0.76623000  0.96479000  1.0 0.1190407756
H  H82  1  0.66743000  0.26623000  0.03521000  1.0 0.1190407756
H  H83  1  0.16743000  0.76623000  0.46479000  1.0 0.1190407756
H  H84  1  0.83257000  0.26623000  0.53521000  1.0 0.1190407756
H  H85  1  0.45204000  0.72596000  0.97819000  1.0 0.1115534441
H  H86  1  0.54796000  0.22596000  0.02181000  1.0 0.1115534441
H  H87  1  0.04796000  0.72596000  0.47819000  1.0 0.1115534441
H  H88  1  0.95204000  0.22596000  0.52181000  1.0 0.1115534441
H  H89  1  0.38951000  0.62757000  0.89185000  1.0 0.1115534441
H  H90  1  0.61049000  0.12757000  0.10815000  1.0 0.1115534441
H  H91  1  0.11049000  0.62757000  0.39185000  1.0 0.1115534441
H  H92  1  0.88951000  0.12757000  0.60815000  1.0 0.1115534441
H  H93  1  0.26809000  0.66684000  0.87930000  1.0 0.1115534441
H  H94  1  0.73191000  0.16684000  0.12070000  1.0 0.1115534441
H  H95  1  0.23191000  0.66684000  0.37930000  1.0 0.1115534441
H  H96  1  0.76809000  0.16684000  0.62070000  1.0 0.1115534441
H  H97  1  0.13281000  0.52550000  0.69769000  1.0 0.1190407756
H  H98  1  0.86719000  0.02550000  0.30231000  1.0 0.1190407756
H  H99  1  0.36719000  0.52550000  0.19769000  1.0 0.1190407756
H  H100  1  0.63281000  0.02550000  0.80231000  1.0 0.1190407756
H  H101  1  0.01223000  0.56385000  0.68229000  1.0 0.1190407756
H  H102  1  0.98777000  0.06385000  0.31771000  1.0 0.1190407756
H  H103  1  0.48777000  0.56385000  0.18229000  1.0 0.1190407756
H  H104  1  0.51223000  0.06385000  0.81771000  1.0 0.1190407756
H  H105  1  0.92358000  0.52776000  0.79735000  1.0 0.1115534441
H  H106  1  0.07642000  0.02776000  0.20265000  1.0 0.1115534441
H  H107  1  0.57642000  0.52776000  0.29735000  1.0 0.1115534441
H  H108  1  0.42358000  0.02776000  0.70265000  1.0 0.1115534441
H  H109  1  0.04235000  0.48606000  0.81149000  1.0 0.1190407756
H  H110  1  0.95765000  0.98606000  0.18851000  1.0 0.1190407756
H  H111  1  0.45765000  0.48606000  0.31149000  1.0 0.1190407756
H  H112  1  0.54235000  0.98606000  0.68851000  1.0 0.1190407756
H  H113  1  0.45490000  0.47703000  0.73132000  1.0 0.1190407756
H  H114  1  0.54510000  0.97703000  0.26868000  1.0 0.1190407756
H  H115  1  0.04510000  0.47703000  0.23132000  1.0 0.1190407756
H  H116  1  0.95490000  0.97703000  0.76868000  1.0 0.1190407756
H  H117  1  0.57372000  0.51996000  0.74060000  1.0 0.1190407756
H  H118  1  0.42628000  0.01996000  0.25940000  1.0 0.1190407756
H  H119  1  0.92628000  0.51996000  0.24060000  1.0 0.1190407756
H  H120  1  0.07372000  0.01996000  0.75940000  1.0 0.1190407756
H  H121  1  0.48550000  0.57256000  0.85059000  1.0 0.1190407756
H  H122  1  0.51450000  0.07256000  0.14941000  1.0 0.1190407756
H  H123  1  0.01450000  0.57256000  0.35059000  1.0 0.1190407756
H  H124  1  0.98550000  0.07256000  0.64941000  1.0 0.1190407756
H  H125  1  0.36379000  0.53243000  0.83950000  1.0 0.1190407756
H  H126  1  0.63621000  0.03243000  0.16050000  1.0 0.1190407756
H  H127  1  0.13621000  0.53243000  0.33950000  1.0 0.1190407756
H  H128  1  0.86379000  0.03243000  0.66050000  1.0 0.1190407756
H  H129  1  0.83782000  0.45702000  0.51128000  1.0 0.1510315367
H  H130  1  0.16218000  0.95702000  0.48872000  1.0 0.1510315367
H  H131  1  0.66218000  0.45702000  0.01128000  1.0 0.1510315367
H  H132  1  0.33782000  0.95702000  0.98872000  1.0 0.1510315367
H  H133  1  0.93222000  0.46615000  0.51815000  1.0 0.1510315367
H  H134  1  0.06778000  0.96615000  0.48185000  1.0 0.1510315367
H  H135  1  0.56778000  0.46615000  0.01815000  1.0 0.1510315367
H  H136  1  0.43222000  0.96615000  0.98185000  1.0 0.1510315367
H  H137  1  0.89262000  0.47404000  0.47254000  1.0 0.1510315367
H  H138  1  0.10738000  0.97404000  0.52746000  1.0 0.1510315367
H  H139  1  0.60738000  0.47404000  0.97254000  1.0 0.1510315367
H  H140  1  0.39262000  0.97404000  0.02746000  1.0 0.1510315367
H  H141  1  0.32840000  0.23915000  0.02569000  1.0 0.0994099248
H  H142  1  0.67160000  0.73915000  0.97431000  1.0 0.0994099248
H  H143  1  0.17160000  0.23915000  0.52569000  1.0 0.0994099248
H  H144  1  0.82840000  0.73915000  0.47431000  1.0 0.0994099248
H  H145  1  0.19799000  0.31576000  0.03687000  1.0 0.1388800289
H  H146  1  0.80201000  0.81576000  0.96313000  1.0 0.1388800289
H  H147  1  0.30201000  0.31576000  0.53687000  1.0 0.1388800289
H  H148  1  0.69799000  0.81576000  0.46313000  1.0 0.1388800289
H  H149  1  0.26600000  0.34870000  0.01670000  1.0 0.1190407756
H  H150  1  0.73400000  0.84870000  0.98330000  1.0 0.1190407756
H  H151  1  0.23400000  0.34870000  0.51670000  1.0 0.1190407756
H  H152  1  0.76600000  0.84870000  0.48330000  1.0 0.1190407756
H  H153  1  0.29055000  0.30892000  0.04996000  1.0 0.1115534441
H  H154  1  0.70945000  0.80892000  0.95004000  1.0 0.1115534441
H  H155  1  0.20945000  0.30892000  0.54996000  1.0 0.1115534441
H  H156  1  0.79055000  0.80892000  0.45004000  1.0 0.1115534441
H  H157  1  0.26917000  0.28523000  0.92951000  1.0 0.1305579509
H  H158  1  0.73083000  0.78523000  0.07049000  1.0 0.1305579509
H  H159  1  0.23083000  0.28523000  0.42951000  1.0 0.1305579509
H  H160  1  0.76917000  0.78523000  0.57049000  1.0 0.1305579509
H  H161  1  0.21523000  0.32612000  0.94950000  1.0 0.1305579509
H  H162  1  0.78477000  0.82612000  0.05050000  1.0 0.1305579509
H  H163  1  0.28477000  0.32612000  0.44950000  1.0 0.1305579509
H  H164  1  0.71523000  0.82612000  0.55050000  1.0 0.1305579509
H  H165  1  0.18137000  0.27365000  0.94785000  1.0 0.1388800289
H  H166  1  0.81863000  0.77365000  0.05215000  1.0 0.1388800289
H  H167  1  0.31863000  0.27365000  0.44785000  1.0 0.1388800289
H  H168  1  0.68137000  0.77365000  0.55215000  1.0 0.1388800289
H  H169  1  0.64385000  0.48444000  0.85238000  1.0 0.0909595343
H  H170  1  0.35615000  0.98444000  0.14762000  1.0 0.0909595343
H  H171  1  0.85615000  0.48444000  0.35238000  1.0 0.0909595343
H  H172  1  0.14385000  0.98444000  0.64762000  1.0 0.0909595343
H  H173  1  0.63489000  0.42328000  0.81002000  1.0 0.1305579509
H  H174  1  0.36511000  0.92328000  0.18998000  1.0 0.1305579509
H  H175  1  0.86511000  0.42328000  0.31002000  1.0 0.1305579509
H  H176  1  0.13489000  0.92328000  0.68998000  1.0 0.1305579509
H  H177  1  0.54575000  0.40228000  0.80549000  1.0 0.1305579509
H  H178  1  0.45425000  0.90228000  0.19451000  1.0 0.1305579509
H  H179  1  0.95425000  0.40228000  0.30549000  1.0 0.1305579509
H  H180  1  0.04575000  0.90228000  0.69451000  1.0 0.1305579509
H  H181  1  0.61123000  0.37591000  0.83408000  1.0 0.1305579509
H  H182  1  0.38877000  0.87591000  0.16592000  1.0 0.1305579509
H  H183  1  0.88877000  0.37591000  0.33408000  1.0 0.1305579509
H  H184  1  0.11123000  0.87591000  0.66592000  1.0 0.1305579509
H  H185  1  0.48929000  0.43852000  0.90972000  1.0 0.1388800289
H  H186  1  0.51071000  0.93852000  0.09028000  1.0 0.1388800289
H  H187  1  0.01071000  0.43852000  0.40972000  1.0 0.1388800289
H  H188  1  0.98929000  0.93852000  0.59028000  1.0 0.1388800289
H  H189  1  0.51056000  0.38575000  0.89681000  1.0 0.1305579509
H  H190  1  0.48944000  0.88575000  0.10319000  1.0 0.1305579509
H  H191  1  0.98944000  0.38575000  0.39681000  1.0 0.1305579509
H  H192  1  0.01056000  0.88575000  0.60319000  1.0 0.1305579509
H  H193  1  0.45021000  0.41592000  0.86818000  1.0 0.1305579509
H  H194  1  0.54979000  0.91592000  0.13182000  1.0 0.1305579509
H  H195  1  0.04979000  0.41592000  0.36818000  1.0 0.1305579509
H  H196  1  0.95021000  0.91592000  0.63182000  1.0 0.1305579509
H  H197  1  0.98888000  0.48671000  0.61203000  1.0 0.0994099248
H  H198  1  0.01112000  0.98671000  0.38797000  1.0 0.0994099248
H  H199  1  0.51112000  0.48671000  0.11203000  1.0 0.0994099248
H  H200  1  0.48888000  0.98671000  0.88797000  1.0 0.0994099248
H  H201  1  0.08151000  0.42921000  0.61737000  1.0 0.1305579509
H  H202  1  0.91849000  0.92921000  0.38263000  1.0 0.1305579509
H  H203  1  0.41849000  0.42921000  0.11737000  1.0 0.1305579509
H  H204  1  0.58151000  0.92921000  0.88263000  1.0 0.1190407756
H  H205  1  0.05486000  0.38095000  0.63899000  1.0 0.1305579509
H  H206  1  0.94514000  0.88095000  0.36101000  1.0 0.1305579509
H  H207  1  0.44514000  0.38095000  0.13899000  1.0 0.1305579509
H  H208  1  0.55486000  0.88095000  0.86101000  1.0 0.1305579509
H  H209  1  0.09385000  0.42170000  0.66711000  1.0 0.1190407756
H  H210  1  0.90615000  0.92170000  0.33289000  1.0 0.1190407756
H  H211  1  0.40615000  0.42170000  0.16711000  1.0 0.1190407756
H  H212  1  0.59385000  0.92170000  0.83289000  1.0 0.1190407756
H  H213  1  0.88404000  0.43529000  0.69022000  1.0 0.1388800289
H  H214  1  0.11596000  0.93529000  0.30978000  1.0 0.1388800289
H  H215  1  0.61596000  0.43529000  0.19022000  1.0 0.1388800289
H  H216  1  0.38404000  0.93529000  0.80978000  1.0 0.1388800289
H  H217  1  0.96451000  0.41456000  0.71105000  1.0 0.1305579509
H  H218  1  0.03549000  0.91456000  0.28895000  1.0 0.1305579509
H  H219  1  0.53549000  0.41456000  0.21105000  1.0 0.1305579509
H  H220  1  0.46451000  0.91456000  0.78895000  1.0 0.1305579509
H  H221  1  0.91364000  0.38357000  0.67836000  1.0 0.1305579509
H  H222  1  0.08636000  0.88357000  0.32164000  1.0 0.1388800289
H  H223  1  0.58636000  0.38357000  0.17836000  1.0 0.1305579509
H  H224  1  0.41364000  0.88357000  0.82164000  1.0 0.1388800289
H  H225  1  0.31426000  0.34774000  0.70240000  0.107 0.0909595343
H  H226  1  0.68574000  0.84774000  0.29760000  0.107 0.0909595343
H  H227  1  0.18574000  0.34774000  0.20240000  0.107 0.0909595343
H  H228  1  0.81426000  0.84774000  0.79760000  0.107 0.0909595343
H  H229  1  0.32739000  0.26759000  0.69977000  0.107 0.1115534441
H  H230  1  0.67261000  0.76759000  0.30023000  0.107 0.1115534441
H  H231  1  0.17261000  0.26759000  0.19977000  0.107 0.1115534441
H  H232  1  0.82739000  0.76759000  0.80023000  0.107 0.1115534441
H  H233  1  0.15959000  0.25456000  0.79097000  0.107 0.0909595343
H  H234  1  0.84041000  0.75456000  0.20903000  0.107 0.0909595343
H  H235  1  0.34041000  0.25456000  0.29097000  0.107 0.0909595343
H  H236  1  0.65959000  0.75456000  0.70903000  0.107 0.0909595343
H  H237  1  0.15194000  0.33609000  0.79451000  0.107 0.0994099248
H  H238  1  0.84806000  0.83609000  0.20549000  0.107 0.0994099248
H  H239  1  0.34806000  0.33609000  0.29451000  0.107 0.0994099248
H  H240  1  0.65194000  0.83609000  0.70549000  0.107 0.0994099248
H  H241  1  0.99281000  0.12836000  0.78786000  0.189 0.0994099248
H  H242  1  0.00719000  0.62836000  0.21214000  0.189 0.0994099248
H  H243  1  0.50719000  0.12836000  0.28786000  0.189 0.0994099248
H  H244  1  0.49281000  0.62836000  0.71214000  0.189 0.0994099248
H  H245  1  0.86859000  0.11283000  0.79979000  0.189 0.0714377504
H  H246  1  0.13141000  0.61283000  0.20021000  0.189 0.0714377504
H  H247  1  0.63141000  0.11283000  0.29979000  0.189 0.0714377504
H  H248  1  0.36859000  0.61283000  0.70021000  0.189 0.0714377504
H  H249  1  0.83548000  0.09102000  0.84307000  0.189 0.0909595343
H  H250  1  0.16452000  0.59102000  0.15693000  0.189 0.0909595343
H  H251  1  0.66452000  0.09102000  0.34307000  0.189 0.0909595343
H  H252  1  0.33548000  0.59102000  0.65693000  0.189 0.0909595343
H  H253  1  0.86152000  0.05723000  0.80505000  0.189 0.0994099248
H  H254  1  0.13848000  0.55723000  0.19495000  0.189 0.0994099248
H  H255  1  0.63848000  0.05723000  0.30505000  0.189 0.0994099248
H  H256  1  0.36152000  0.55723000  0.69495000  0.189 0.0994099248
H  H257  1  0.04679000  0.04539000  0.85665000  0.189 0.0909595343
H  H258  1  0.95321000  0.54539000  0.14335000  0.189 0.0909595343
H  H259  1  0.45321000  0.04539000  0.35665000  0.189 0.0909595343
H  H260  1  0.54679000  0.54539000  0.64335000  0.189 0.0909595343
H  H261  1  0.95985000  0.02128000  0.86027000  0.189 0.0714377504
H  H262  1  0.04015000  0.52128000  0.13973000  0.189 0.0714377504
H  H263  1  0.54015000  0.02128000  0.36027000  0.189 0.0714377504
H  H264  1  0.45985000  0.52128000  0.63973000  0.189 0.0714377504
H  H265  1  0.98564000  0.06119000  0.89314000  0.189 0.0909595343
H  H266  1  0.01436000  0.56119000  0.10686000  0.189 0.0909595343
H  H267  1  0.51436000  0.06119000  0.39314000  0.189 0.0909595343
H  H268  1  0.48564000  0.56119000  0.60686000  0.189 0.0909595343
H  H269  1  0.51148000  0.14115000  0.69376000  0.279 0.0994099248
H  H270  1  0.48852000  0.64115000  0.30624000  0.279 0.0909595343
H  H271  1  0.98852000  0.14115000  0.19376000  0.279 0.0909595343
H  H272  1  0.01148000  0.64115000  0.80624000  0.279 0.0994099248
H  H273  1  0.63583000  0.11897000  0.67426000  0.279 0.0491728931
H  H274  1  0.36417000  0.61897000  0.32574000  0.279 0.0491728931
H  H275  1  0.86417000  0.11897000  0.17426000  0.279 0.0491728931
H  H276  1  0.13583000  0.61897000  0.82574000  0.279 0.0491728931
H  H277  1  0.64985000  0.10818000  0.62514000  0.279 0.1115534441
H  H278  1  0.35015000  0.60818000  0.37486000  0.279 0.1115534441
H  H279  1  0.85015000  0.10818000  0.12514000  0.279 0.1115534441
H  H280  1  0.14985000  0.60818000  0.87486000  0.279 0.1115534441
H  H281  1  0.63253000  0.06616000  0.65738000  0.279 0.0994099248
H  H282  1  0.36747000  0.56616000  0.34262000  0.279 0.0994099248
H  H283  1  0.86747000  0.06616000  0.15738000  0.279 0.0994099248
H  H284  1  0.13253000  0.56616000  0.84262000  0.279 0.0994099248
H  H285  1  0.44298000  0.07809000  0.60803000  0.279 0.0909595343
H  H286  1  0.55702000  0.57809000  0.39197000  0.279 0.0909595343
H  H287  1  0.05702000  0.07809000  0.10803000  0.279 0.0909595343
H  H288  1  0.94298000  0.57809000  0.89197000  0.279 0.0909595343
H  H289  1  0.52870000  0.05386000  0.59995000  0.279 0.0714377504
H  H290  1  0.47130000  0.55386000  0.40005000  0.279 0.0714377504
H  H291  1  0.97130000  0.05386000  0.09995000  0.279 0.0714377504
H  H292  1  0.02870000  0.55386000  0.90005000  0.279 0.0714377504
H  H293  1  0.51085000  0.10499000  0.58144000  0.279 0.0714377504
H  H294  1  0.48915000  0.60499000  0.41856000  0.279 0.0714377504
H  H295  1  0.98915000  0.10499000  0.08144000  0.279 0.0714377504
H  H296  1  0.01085000  0.60499000  0.91856000  0.279 0.0714377504
H  H297  1  0.45282000  0.08863000  0.62416000  0.721 0.0994099248
H  H298  1  0.54718000  0.58863000  0.37584000  0.721 0.0994099248
H  H299  1  0.04718000  0.08863000  0.12416000  0.721 0.0909595343
H  H300  1  0.95282000  0.58863000  0.87584000  0.721 0.0994099248
H  H301  1  0.58011000  0.06665000  0.60798000  0.721 0.0714377504
H  H302  1  0.41989000  0.56665000  0.39202000  0.721 0.0714377504
H  H303  1  0.91989000  0.06665000  0.10798000  0.721 0.0714377504
H  H304  1  0.08011000  0.56665000  0.89202000  0.721 0.0714377504
H  H305  1  0.63337000  0.06166000  0.64997000  0.721 0.0909595343
H  H306  1  0.36663000  0.56166000  0.35003000  0.721 0.0909595343
H  H307  1  0.86663000  0.06166000  0.14997000  0.721 0.0909595343
H  H308  1  0.13337000  0.56166000  0.85003000  0.721 0.0909595343
H  H309  1  0.64733000  0.10508000  0.61881000  0.721 0.0909595343
H  H310  1  0.35267000  0.60508000  0.38119000  0.721 0.0909595343
H  H311  1  0.85267000  0.10508000  0.11881000  0.721 0.0909595343
H  H312  1  0.14733000  0.60508000  0.88119000  0.721 0.0909595343
H  H313  1  0.53011000  0.15193000  0.70425000  0.721 0.0909595343
H  H314  1  0.46989000  0.65193000  0.29575000  0.721 0.0909595343
H  H315  1  0.96989000  0.15193000  0.20425000  0.721 0.0909595343
H  H316  1  0.03011000  0.65193000  0.79575000  0.721 0.0909595343
H  H317  1  0.61418000  0.16127000  0.68079000  0.721 0.0491728931
H  H318  1  0.38582000  0.66127000  0.31921000  0.721 0.0491728931
H  H319  1  0.88582000  0.16127000  0.18079000  0.721 0.0491728931
H  H320  1  0.11418000  0.66127000  0.81921000  0.721 0.0491728931
H  H321  1  0.60341000  0.11600000  0.71010000  0.721 0.0648540461
H  H322  1  0.39659000  0.61600000  0.28990000  0.721 0.0648540461
H  H323  1  0.89659000  0.11600000  0.21010000  0.721 0.0648540461
H  H324  1  0.10341000  0.61600000  0.78990000  0.721 0.0648540461
H  H325  1  0.03480000  0.06591000  0.85078000  0.811 0.0994099248
H  H326  1  0.96520000  0.56591000  0.14922000  0.811 0.0994099248
H  H327  1  0.46520000  0.06591000  0.35078000  0.811 0.0994099248
H  H328  1  0.53480000  0.56591000  0.64922000  0.811 0.0994099248
H  H329  1  0.90601000  0.04433000  0.85618000  0.811 0.080196031
H  H330  1  0.09399000  0.54433000  0.14382000  0.811 0.0714377504
H  H331  1  0.59399000  0.04433000  0.35618000  0.811 0.0714377504
H  H332  1  0.40601000  0.54433000  0.64382000  0.811 0.0714377504
H  H333  1  0.85731000  0.04823000  0.81261000  0.811 0.0909595343
H  H334  1  0.14269000  0.54823000  0.18739000  0.811 0.0909595343
H  H335  1  0.64269000  0.04823000  0.31261000  0.811 0.0909595343
H  H336  1  0.35731000  0.54823000  0.68739000  0.811 0.0909595343
H  H337  1  0.84456000  0.08679000  0.84873000  0.811 0.0994099248
H  H338  1  0.15544000  0.58679000  0.15127000  0.811 0.0994099248
H  H339  1  0.65544000  0.08679000  0.34873000  0.811 0.0994099248
H  H340  1  0.34456000  0.58679000  0.65127000  0.811 0.0994099248
H  H341  1  0.97575000  0.14474000  0.77699000  0.811 0.0909595343
H  H342  1  0.02425000  0.64474000  0.22301000  0.811 0.0909595343
H  H343  1  0.52425000  0.14474000  0.27699000  0.811 0.0909595343
H  H344  1  0.47575000  0.64474000  0.72301000  0.811 0.0909595343
H  H345  1  0.88372000  0.14504000  0.79237000  0.811 0.0714377504
H  H346  1  0.11628000  0.64504000  0.20763000  0.811 0.0714377504
H  H347  1  0.61628000  0.14504000  0.29237000  0.811 0.0714377504
H  H348  1  0.38372000  0.64504000  0.70763000  0.811 0.0714377504
H  H349  1  0.91350000  0.10702000  0.75861000  0.811 0.080196031
H  H350  1  0.08650000  0.60702000  0.24139000  0.811 0.080196031
H  H351  1  0.58650000  0.10702000  0.25861000  0.811 0.080196031
H  H352  1  0.41350000  0.60702000  0.74139000  0.811 0.080196031
H  H353  1  0.21858000  0.35118000  0.69434000  0.893 0.0909595343
H  H354  1  0.78142000  0.85118000  0.30566000  0.893 0.0909595343
H  H355  1  0.28142000  0.35118000  0.19434000  0.893 0.0909595343
H  H356  1  0.71858000  0.85118000  0.80566000  0.893 0.0909595343
H  H357  1  0.22048000  0.27041000  0.68358000  0.893 0.1115534441
H  H358  1  0.77952000  0.77041000  0.31642000  0.893 0.1115534441
H  H359  1  0.27952000  0.27041000  0.18358000  0.893 0.1115534441
H  H360  1  0.72048000  0.77041000  0.81642000  0.893 0.1115534441
H  H361  1  0.27892000  0.25024000  0.80620000  0.893 0.1115534441
H  H362  1  0.72108000  0.75024000  0.19380000  0.893 0.1115534441
H  H363  1  0.22108000  0.25024000  0.30620000  0.893 0.1115534441
H  H364  1  0.77892000  0.75024000  0.69380000  0.893 0.1115534441
H  H365  1  0.28501000  0.33120000  0.81680000  0.893 0.0994099248
H  H366  1  0.71499000  0.83120000  0.18320000  0.893 0.0994099248
H  H367  1  0.21499000  0.33120000  0.31680000  0.893 0.0994099248
H  H368  1  0.78501000  0.83120000  0.68320000  0.893 0.0994099248
C  C1  1  0.49040000  0.11726000  0.90579000  1.0 0.5838140675
C  C2  1  0.50960000  0.61726000  0.09421000  1.0 0.5838140675
C  C3  1  0.00960000  0.11726000  0.40579000  1.0 0.5838140675
C  C4  1  0.99040000  0.61726000  0.59421000  1.0 0.5838140675
C  C5  1  0.00220000  0.21802000  0.89177000  1.0 0.0994099248
C  C6  1  0.99780000  0.71802000  0.10823000  1.0 0.0994099248
C  C7  1  0.49780000  0.21802000  0.39177000  1.0 0.0994099248
C  C8  1  0.50220000  0.71802000  0.60823000  1.0 0.0994099248
C  C9  1  0.01740000  0.18714000  0.92478000  1.0 -0.1704449008
C  C10  1  0.98260000  0.68714000  0.07522000  1.0 -0.1704449008
C  C11  1  0.48260000  0.18714000  0.42478000  1.0 -0.1704449008
C  C12  1  0.51740000  0.68714000  0.57522000  1.0 -0.1704449008
C  C13  1  0.09080000  0.16319000  0.92687000  1.0 -0.1117129744
C  C14  1  0.90920000  0.66319000  0.07313000  1.0 -0.1117129744
C  C15  1  0.40920000  0.16319000  0.42687000  1.0 -0.1117129744
C  C16  1  0.59080000  0.66319000  0.57313000  1.0 -0.1117129744
C  C17  1  0.14910000  0.17003000  0.89586000  1.0 -0.0311949078
C  C18  1  0.85090000  0.67003000  0.10414000  1.0 -0.0311949078
C  C19  1  0.35090000  0.17003000  0.39586000  1.0 -0.0311949078
C  C20  1  0.64910000  0.67003000  0.60414000  1.0 -0.0311949078
C  C21  1  0.13370000  0.20138000  0.86281000  1.0 -0.132437276
C  C22  1  0.86630000  0.70138000  0.13719000  1.0 -0.132437276
C  C23  1  0.36630000  0.20138000  0.36281000  1.0 -0.132437276
C  C24  1  0.63370000  0.70138000  0.63719000  1.0 -0.132437276
C  C25  1  0.06110000  0.22532000  0.86096000  1.0 -0.179989405
C  C26  1  0.93890000  0.72532000  0.13904000  1.0 -0.179989405
C  C27  1  0.43890000  0.22532000  0.36096000  1.0 -0.179989405
C  C28  1  0.56110000  0.72532000  0.63904000  1.0 -0.179989405
C  C29  1  0.22490000  0.14190000  0.89615000  1.0 0.5982074816
C  C30  1  0.77510000  0.64190000  0.10385000  1.0 0.5982074816
C  C31  1  0.27510000  0.14190000  0.39615000  1.0 0.5982074816
C  C32  1  0.72490000  0.64190000  0.60385000  1.0 0.5982074816
C  C33  1  0.83050000  0.36387000  0.88243000  1.0 0.0994099248
C  C34  1  0.16950000  0.86387000  0.11757000  1.0 0.0994099248
C  C35  1  0.66950000  0.36387000  0.38243000  1.0 0.0994099248
C  C36  1  0.33050000  0.86387000  0.61757000  1.0 0.0994099248
C  C37  1  0.78640000  0.38648000  0.91394000  1.0 -0.1480507831
C  C38  1  0.21360000  0.88648000  0.08606000  1.0 -0.1480507831
C  C39  1  0.71360000  0.38648000  0.41394000  1.0 -0.1480507831
C  C40  1  0.28640000  0.88648000  0.58606000  1.0 -0.1480507831
C  C41  1  0.77950000  0.43512000  0.91355000  1.0 -0.1117129744
C  C42  1  0.22050000  0.93512000  0.08645000  1.0 -0.1117129744
C  C43  1  0.72050000  0.43512000  0.41355000  1.0 -0.1117129744
C  C44  1  0.27950000  0.93512000  0.58645000  1.0 -0.1117129744
C  C45  1  0.81360000  0.46099000  0.88137000  1.0 -0.0311949078
C  C46  1  0.18640000  0.96099000  0.11863000  1.0 -0.0311949078
C  C47  1  0.68640000  0.46099000  0.38137000  1.0 -0.0311949078
C  C48  1  0.31360000  0.96099000  0.61863000  1.0 -0.0311949078
C  C49  1  0.85610000  0.43842000  0.84950000  1.0 -0.1117129744
C  C50  1  0.14390000  0.93842000  0.15050000  1.0 -0.1117129744
C  C51  1  0.64390000  0.43842000  0.34950000  1.0 -0.1117129744
C  C52  1  0.35610000  0.93842000  0.65050000  1.0 -0.1117129744
C  C53  1  0.86640000  0.39025000  0.85057000  1.0 -0.1433688598
C  C54  1  0.13360000  0.89025000  0.14943000  1.0 -0.1433688598
C  C55  1  0.63360000  0.39025000  0.35057000  1.0 -0.1433688598
C  C56  1  0.36640000  0.89025000  0.64943000  1.0 -0.1480507831
C  C57  1  0.79920000  0.51382000  0.87994000  1.0 0.5611121484
C  C58  1  0.20080000  0.01382000  0.12006000  1.0 0.5611121484
C  C59  1  0.70080000  0.51382000  0.37994000  1.0 0.5611121484
C  C60  1  0.29920000  0.01382000  0.62006000  1.0 0.5611121484
C  C61  1  0.77340000  0.23494000  0.89096000  1.0 -0.1704449008
C  C62  1  0.22660000  0.73494000  0.10904000  1.0 -0.1704449008
C  C63  1  0.72660000  0.23494000  0.39096000  1.0 -0.1704449008
C  C64  1  0.27340000  0.73494000  0.60904000  1.0 -0.1704449008
C  C65  1  0.85090000  0.21580000  0.89144000  1.0 0.1896828336
C  C66  1  0.14910000  0.71580000  0.10856000  1.0 0.1896828336
C  C67  1  0.64910000  0.21580000  0.39144000  1.0 0.1896828336
C  C68  1  0.35090000  0.71580000  0.60856000  1.0 0.1896828336
C  C69  1  0.92170000  0.24098000  0.88867000  1.0 -0.179989405
C  C70  1  0.07830000  0.74098000  0.11133000  1.0 -0.1704449008
C  C71  1  0.57830000  0.24098000  0.38867000  1.0 -0.179989405
C  C72  1  0.42170000  0.74098000  0.61133000  1.0 -0.179989405
C  C73  1  0.91210000  0.28945000  0.88457000  1.0 0.2290165652
C  C74  1  0.08790000  0.78945000  0.11543000  1.0 0.2249505648
C  C75  1  0.58790000  0.28945000  0.38457000  1.0 0.2290165652
C  C76  1  0.41210000  0.78945000  0.61543000  1.0 0.2290165652
C  C77  1  0.83840000  0.31209000  0.88386000  1.0 -0.1899820494
C  C78  1  0.16160000  0.81209000  0.11614000  1.0 -0.1899820494
C  C79  1  0.66160000  0.31209000  0.38386000  1.0 -0.1899820494
C  C80  1  0.33840000  0.81209000  0.61614000  1.0 -0.1899820494
C  C81  1  0.77100000  0.28341000  0.88719000  1.0 0.2290165652
C  C82  1  0.22900000  0.78341000  0.11281000  1.0 0.2290165652
C  C83  1  0.72900000  0.28341000  0.38719000  1.0 0.2290165652
C  C84  1  0.27100000  0.78341000  0.61281000  1.0 0.2290165652
C  C85  1  0.69990000  0.20525000  0.89463000  1.0 0.1115534441
C  C86  1  0.30010000  0.70525000  0.10537000  1.0 0.1115534441
C  C87  1  0.80010000  0.20525000  0.39463000  1.0 0.1115534441
C  C88  1  0.19990000  0.70525000  0.60537000  1.0 0.1115534441
C  C89  1  0.64020000  0.21590000  0.92441000  1.0 -0.1480507831
C  C90  1  0.35980000  0.71590000  0.07559000  1.0 -0.1480507831
C  C91  1  0.85980000  0.21590000  0.42441000  1.0 -0.1480507831
C  C92  1  0.14020000  0.71590000  0.57559000  1.0 -0.1480507831
C  C93  1  0.57250000  0.18745000  0.92816000  1.0 -0.0999921044
C  C94  1  0.42750000  0.68745000  0.07184000  1.0 -0.0999921044
C  C95  1  0.92750000  0.18745000  0.42816000  1.0 -0.0999921044
C  C96  1  0.07250000  0.68745000  0.57184000  1.0 -0.0999921044
C  C97  1  0.56420000  0.14797000  0.90315000  1.0 -0.0220055627
C  C98  1  0.43580000  0.64797000  0.09685000  1.0 -0.0220055627
C  C99  1  0.93580000  0.14797000  0.40315000  1.0 -0.0220055627
C  C100  1  0.06420000  0.64797000  0.59685000  1.0 -0.0220055627
C  C101  1  0.62440000  0.13680000  0.87378000  1.0 -0.1117129744
C  C102  1  0.37560000  0.63680000  0.12622000  1.0 -0.1117129744
C  C103  1  0.87560000  0.13680000  0.37378000  1.0 -0.1117129744
C  C104  1  0.12440000  0.63680000  0.62622000  1.0 -0.1117129744
C  C105  1  0.69140000  0.16542000  0.86954000  1.0 -0.1704449008
C  C106  1  0.30860000  0.66542000  0.13046000  1.0 -0.1704449008
C  C107  1  0.80860000  0.16542000  0.36954000  1.0 -0.1704449008
C  C108  1  0.19140000  0.66542000  0.63046000  1.0 -0.1704449008
C  C109  1  0.51210000  0.64810000  0.94346000  1.0 0.5982074816
C  C110  1  0.48790000  0.14810000  0.05654000  1.0 0.5982074816
C  C111  1  0.98790000  0.64810000  0.44346000  1.0 0.5982074816
C  C112  1  0.01210000  0.14810000  0.55654000  1.0 0.5982074816
C  C113  1  0.15650000  0.87099000  0.88018000  1.0 0.0994099248
C  C114  1  0.84350000  0.37099000  0.11982000  1.0 0.0994099248
C  C115  1  0.34350000  0.87099000  0.38018000  1.0 0.0994099248
C  C116  1  0.65650000  0.37099000  0.61982000  1.0 0.0994099248
C  C117  1  0.20300000  0.90195000  0.90337000  1.0 -0.1433688598
C  C118  1  0.79700000  0.40195000  0.09663000  1.0 -0.1433688598
C  C119  1  0.29700000  0.90195000  0.40337000  1.0 -0.1433688598
C  C120  1  0.70300000  0.40195000  0.59663000  1.0 -0.1433688598
C  C121  1  0.21560000  0.94716000  0.88961000  1.0 -0.0999921044
C  C122  1  0.78440000  0.44716000  0.11039000  1.0 -0.0999921044
C  C123  1  0.28440000  0.94716000  0.38961000  1.0 -0.0999921044
C  C124  1  0.71560000  0.44716000  0.61039000  1.0 -0.0999921044
C  C125  1  0.18260000  0.96161000  0.85106000  1.0 -0.0220055627
C  C126  1  0.81740000  0.46161000  0.14894000  1.0 -0.0220055627
C  C127  1  0.31740000  0.96161000  0.35106000  1.0 -0.0220055627
C  C128  1  0.68260000  0.46161000  0.64894000  1.0 -0.0220055627
C  C129  1  0.13560000  0.93111000  0.82768000  1.0 -0.1177110525
C  C130  1  0.86440000  0.43111000  0.17232000  1.0 -0.1177110525
C  C131  1  0.36440000  0.93111000  0.32768000  1.0 -0.1177110525
C  C132  1  0.63560000  0.43111000  0.67232000  1.0 -0.1177110525
C  C133  1  0.12110000  0.88611000  0.84232000  1.0 -0.1433688598
C  C134  1  0.87890000  0.38611000  0.15768000  1.0 -0.1433688598
C  C135  1  0.37890000  0.88611000  0.34232000  1.0 -0.1433688598
C  C136  1  0.62110000  0.38611000  0.65768000  1.0 -0.1433688598
C  C137  1  0.19990000  0.00994000  0.83445000  1.0 0.5611121484
C  C138  1  0.80010000  0.50994000  0.16555000  1.0 0.5611121484
C  C139  1  0.30010000  0.00994000  0.33445000  1.0 0.5611121484
C  C140  1  0.69990000  0.50994000  0.66555000  1.0 0.5611121484
C  C141  1  0.98360000  0.73031000  0.91682000  1.0 0.0994099248
C  C142  1  0.01640000  0.23031000  0.08318000  1.0 0.0994099248
C  C143  1  0.51640000  0.73031000  0.41682000  1.0 0.0994099248
C  C144  1  0.48360000  0.23031000  0.58318000  1.0 0.0994099248
C  C145  1  0.96670000  0.70411000  0.95268000  1.0 -0.1617698676
C  C146  1  0.03330000  0.20411000  0.04732000  1.0 -0.1617698676
C  C147  1  0.53330000  0.70411000  0.45268000  1.0 -0.1617698676
C  C148  1  0.46670000  0.20411000  0.54732000  1.0 -0.1617698676
C  C149  1  0.89400000  0.68011000  0.95637000  1.0 -0.1117129744
C  C150  1  0.10600000  0.18011000  0.04363000  1.0 -0.1117129744
C  C151  1  0.60600000  0.68011000  0.45637000  1.0 -0.1117129744
C  C152  1  0.39400000  0.18011000  0.54363000  1.0 -0.1117129744
C  C153  1  0.83860000  0.68138000  0.92353000  1.0 -0.0412849223
C  C154  1  0.16140000  0.18138000  0.07647000  1.0 -0.0412849223
C  C155  1  0.66140000  0.68138000  0.42353000  1.0 -0.0412849223
C  C156  1  0.33860000  0.18138000  0.57647000  1.0 -0.0412849223
C  C157  1  0.85410000  0.70862000  0.88779000  1.0 -0.1480507831
C  C158  1  0.14590000  0.20862000  0.11221000  1.0 -0.1480507831
C  C159  1  0.64590000  0.70862000  0.38779000  1.0 -0.1480507831
C  C160  1  0.35410000  0.20862000  0.61221000  1.0 -0.1480507831
C  C161  1  0.92590000  0.73341000  0.88479000  1.0 -0.1899820494
C  C162  1  0.07410000  0.23341000  0.11521000  1.0 -0.1899820494
C  C163  1  0.57410000  0.73341000  0.38479000  1.0 -0.1899820494
C  C164  1  0.42590000  0.23341000  0.61521000  1.0 -0.1899820494
C  C165  1  0.76660000  0.64970000  0.92414000  1.0 0.5944142022
C  C166  1  0.23340000  0.14970000  0.07586000  1.0 0.5944142022
C  C167  1  0.73340000  0.64970000  0.42414000  1.0 0.5944142022
C  C168  1  0.26660000  0.14970000  0.57586000  1.0 0.5944142022
C  C169  1  0.21240000  0.74671000  0.91231000  1.0 -0.1704449008
C  C170  1  0.78760000  0.24671000  0.08769000  1.0 -0.1704449008
C  C171  1  0.28760000  0.74671000  0.41231000  1.0 -0.1704449008
C  C172  1  0.71240000  0.24671000  0.58769000  1.0 -0.1704449008
C  C173  1  0.21520000  0.79365000  0.90068000  1.0 0.2290165652
C  C174  1  0.78480000  0.29365000  0.09932000  1.0 0.2290165652
C  C175  1  0.28480000  0.79365000  0.40068000  1.0 0.2290165652
C  C176  1  0.71520000  0.29365000  0.59932000  1.0 0.2290165652
C  C177  1  0.14730000  0.82149000  0.89363000  1.0 -0.1899820494
C  C178  1  0.85270000  0.32149000  0.10637000  1.0 -0.1899820494
C  C179  1  0.35270000  0.82149000  0.39363000  1.0 -0.1899820494
C  C180  1  0.64730000  0.32149000  0.60637000  1.0 -0.1899820494
C  C181  1  0.07360000  0.79948000  0.89994000  1.0 0.2290165652
C  C182  1  0.92640000  0.29948000  0.10006000  1.0 0.2290165652
C  C183  1  0.42640000  0.79948000  0.39994000  1.0 0.2290165652
C  C184  1  0.57360000  0.29948000  0.60006000  1.0 0.2290165652
C  C185  1  0.06420000  0.75279000  0.91117000  1.0 -0.1704449008
C  C186  1  0.93580000  0.25279000  0.08883000  1.0 -0.1704449008
C  C187  1  0.43580000  0.75279000  0.41117000  1.0 -0.1704449008
C  C188  1  0.56420000  0.25279000  0.58883000  1.0 -0.1704449008
C  C189  1  0.13570000  0.72803000  0.91731000  1.0 0.1810234913
C  C190  1  0.86430000  0.22803000  0.08269000  1.0 0.1810234913
C  C191  1  0.36430000  0.72803000  0.41731000  1.0 0.1810234913
C  C192  1  0.63570000  0.22803000  0.58269000  1.0 0.1810234913
C  C193  1  0.28860000  0.72024000  0.92076000  1.0 0.1115534441
C  C194  1  0.71140000  0.22024000  0.07924000  1.0 0.1115534441
C  C195  1  0.21140000  0.72024000  0.42076000  1.0 0.1115534441
C  C196  1  0.78860000  0.22024000  0.57924000  1.0 0.1115534441
C  C197  1  0.34400000  0.73796000  0.95012000  1.0 -0.1617698676
C  C198  1  0.65600000  0.23796000  0.04988000  1.0 -0.1617698676
C  C199  1  0.15600000  0.73796000  0.45012000  1.0 -0.1617698676
C  C200  1  0.84400000  0.23796000  0.54988000  1.0 -0.1617698676
C  C201  1  0.41520000  0.71430000  0.95773000  1.0 -0.0999921044
C  C202  1  0.58480000  0.21430000  0.04227000  1.0 -0.0999921044
C  C203  1  0.08480000  0.71430000  0.45773000  1.0 -0.0999921044
C  C204  1  0.91520000  0.21430000  0.54227000  1.0 -0.0999921044
C  C205  1  0.43320000  0.67367000  0.93575000  1.0 -0.0220055627
C  C206  1  0.56680000  0.17367000  0.06425000  1.0 -0.0220055627
C  C207  1  0.06680000  0.67367000  0.43575000  1.0 -0.0220055627
C  C208  1  0.93320000  0.17367000  0.56425000  1.0 -0.0220055627
C  C209  1  0.37780000  0.65576000  0.90659000  1.0 -0.0999921044
C  C210  1  0.62220000  0.15576000  0.09341000  1.0 -0.0999921044
C  C211  1  0.12220000  0.65576000  0.40659000  1.0 -0.0999921044
C  C212  1  0.87780000  0.15576000  0.59341000  1.0 -0.0999921044
C  C213  1  0.30570000  0.67903000  0.89914000  1.0 -0.1704449008
C  C214  1  0.69430000  0.17903000  0.10086000  1.0 -0.1704449008
C  C215  1  0.19430000  0.67903000  0.39914000  1.0 -0.1704449008
C  C216  1  0.80570000  0.17903000  0.60086000  1.0 -0.1704449008
C  C217  1  0.61950000  0.57438000  0.80370000  1.0 0.5982074816
C  C218  1  0.38050000  0.07438000  0.19630000  1.0 0.5982074816
C  C219  1  0.88050000  0.57438000  0.30370000  1.0 0.5982074816
C  C220  1  0.11950000  0.07438000  0.69630000  1.0 0.5982074816
C  C221  1  0.25010000  0.34944000  0.75664000  1.0 0.0714377504
C  C222  1  0.74990000  0.84944000  0.24336000  1.0 0.0714377504
C  C223  1  0.24990000  0.34944000  0.25664000  1.0 0.0714377504
C  C224  1  0.75010000  0.84944000  0.74336000  1.0 0.0714377504
C  C225  1  0.24780000  0.25261000  0.74413000  1.0 -0.0083628232
C  C226  1  0.75220000  0.75261000  0.25587000  1.0 -0.0083628232
C  C227  1  0.25220000  0.25261000  0.24413000  1.0 -0.0083628232
C  C228  1  0.74780000  0.75261000  0.75587000  1.0 -0.0083628232
C  C229  1  0.24580000  0.20013000  0.73797000  1.0 0.5743690559
C  C230  1  0.75420000  0.70013000  0.26203000  1.0 0.5743690559
C  C231  1  0.25420000  0.20013000  0.23797000  1.0 0.5743690559
C  C232  1  0.74580000  0.70013000  0.76203000  1.0 0.5743690559
C  C233  1  0.09910000  0.50196000  0.75590000  1.0 0.0994099248
C  C234  1  0.90090000  0.00196000  0.24410000  1.0 0.0994099248
C  C235  1  0.40090000  0.50196000  0.25590000  1.0 0.0994099248
C  C236  1  0.59910000  0.00196000  0.74410000  1.0 0.0994099248
C  C237  1  0.09000000  0.52537000  0.71769000  1.0 -0.1899820494
C  C238  1  0.91000000  0.02537000  0.28231000  1.0 -0.1899820494
C  C239  1  0.41000000  0.52537000  0.21769000  1.0 -0.1899820494
C  C240  1  0.59000000  0.02537000  0.78231000  1.0 -0.1899820494
C  C241  1  0.01860000  0.54850000  0.70874000  1.0 -0.0999921044
C  C242  1  0.98140000  0.04850000  0.29126000  1.0 -0.0999921044
C  C243  1  0.48140000  0.54850000  0.20874000  1.0 -0.0999921044
C  C244  1  0.51860000  0.04850000  0.79126000  1.0 -0.0999921044
C  C245  1  0.95620000  0.54946000  0.73817000  1.0 -0.0412849223
C  C246  1  0.04380000  0.04946000  0.26183000  1.0 -0.0412849223
C  C247  1  0.54380000  0.54946000  0.23817000  1.0 -0.0412849223
C  C248  1  0.45620000  0.04946000  0.76183000  1.0 -0.0412849223
C  C249  1  0.96550000  0.52668000  0.77690000  1.0 -0.1704449008
C  C250  1  0.03450000  0.02668000  0.22310000  1.0 -0.1704449008
C  C251  1  0.53450000  0.52668000  0.27690000  1.0 -0.1704449008
C  C252  1  0.46550000  0.02668000  0.72310000  1.0 -0.1704449008
C  C253  1  0.03650000  0.50238000  0.78549000  1.0 -0.2065302825
C  C254  1  0.96350000  0.00238000  0.21451000  1.0 -0.2065302825
C  C255  1  0.46350000  0.50238000  0.28549000  1.0 -0.2065302825
C  C256  1  0.53650000  0.00238000  0.71451000  1.0 -0.2065302825
C  C257  1  0.87860000  0.57302000  0.72758000  1.0 0.6061808297
C  C258  1  0.12140000  0.07302000  0.27242000  1.0 0.6061808297
C  C259  1  0.62140000  0.57302000  0.22758000  1.0 0.6061808297
C  C260  1  0.37860000  0.07302000  0.77242000  1.0 0.6061808297
C  C261  1  0.32080000  0.47467000  0.77717000  1.0 -0.1617698676
C  C262  1  0.67920000  0.97467000  0.22283000  1.0 -0.1617698676
C  C263  1  0.17920000  0.47467000  0.27717000  1.0 -0.1617698676
C  C264  1  0.82080000  0.97467000  0.72283000  1.0 -0.1617698676
C  C265  1  0.31910000  0.42658000  0.77206000  1.0 0.2017503509
C  C266  1  0.68090000  0.92658000  0.22794000  1.0 0.2017503509
C  C267  1  0.18090000  0.42658000  0.27206000  1.0 0.2017503509
C  C268  1  0.81910000  0.92658000  0.72794000  1.0 0.2017503509
C  C269  1  0.24950000  0.40075000  0.76317000  1.0 -0.179989405
C  C270  1  0.75050000  0.90075000  0.23683000  1.0 -0.179989405
C  C271  1  0.25050000  0.40075000  0.26317000  1.0 -0.179989405
C  C272  1  0.74950000  0.90075000  0.73683000  1.0 -0.179989405
C  C273  1  0.17890000  0.42715000  0.75969000  1.0 0.2017503509
C  C274  1  0.82110000  0.92715000  0.24031000  1.0 0.2017503509
C  C275  1  0.32110000  0.42715000  0.25969000  1.0 0.2017503509
C  C276  1  0.67890000  0.92715000  0.74031000  1.0 0.2017503509
C  C277  1  0.17470000  0.47546000  0.76372000  1.0 -0.1617698676
C  C278  1  0.82530000  0.97546000  0.23628000  1.0 -0.1617698676
C  C279  1  0.32530000  0.47546000  0.26372000  1.0 -0.1617698676
C  C280  1  0.67470000  0.97546000  0.73628000  1.0 -0.1617698676
C  C281  1  0.24730000  0.49772000  0.77275000  1.0 0.080196031
C  C282  1  0.75270000  0.99772000  0.22725000  1.0 0.0909595343
C  C283  1  0.25270000  0.49772000  0.27275000  1.0 0.080196031
C  C284  1  0.74730000  0.99772000  0.72725000  1.0 0.0909595343
C  C285  1  0.39760000  0.50069000  0.78419000  1.0 0.0994099248
C  C286  1  0.60240000  0.00069000  0.21581000  1.0 0.0994099248
C  C287  1  0.10240000  0.50069000  0.28419000  1.0 0.0994099248
C  C288  1  0.89760000  0.00069000  0.71581000  1.0 0.0994099248
C  C289  1  0.46060000  0.49694000  0.75521000  1.0 -0.2198989524
C  C290  1  0.53940000  0.99694000  0.24479000  1.0 -0.2198989524
C  C291  1  0.03940000  0.49694000  0.25521000  1.0 -0.2198989524
C  C292  1  0.96060000  0.99694000  0.74479000  1.0 -0.2198989524
C  C293  1  0.53160000  0.52203000  0.76089000  1.0 -0.179989405
C  C294  1  0.46840000  0.02203000  0.23911000  1.0 -0.1704449008
C  C295  1  0.96840000  0.52203000  0.26089000  1.0 -0.179989405
C  C296  1  0.03160000  0.02203000  0.73911000  1.0 -0.179989405
C  C297  1  0.54060000  0.55024000  0.79651000  1.0 -0.0412849223
C  C298  1  0.45940000  0.05024000  0.20349000  1.0 -0.0412849223
C  C299  1  0.95940000  0.55024000  0.29651000  1.0 -0.0412849223
C  C300  1  0.04060000  0.05024000  0.70349000  1.0 -0.0412849223
C  C301  1  0.47870000  0.55369000  0.82609000  1.0 -0.1117129744
C  C302  1  0.52130000  0.05369000  0.17391000  1.0 -0.1117129744
C  C303  1  0.02130000  0.55369000  0.32609000  1.0 -0.1117129744
C  C304  1  0.97870000  0.05369000  0.67391000  1.0 -0.1117129744
C  C305  1  0.40670000  0.52944000  0.81973000  1.0 -0.1704449008
C  C306  1  0.59330000  0.02944000  0.18027000  1.0 -0.1704449008
C  C307  1  0.09330000  0.52944000  0.31973000  1.0 -0.1704449008
C  C308  1  0.90670000  0.02944000  0.68027000  1.0 -0.1704449008
C  C309  1  0.86630000  0.52715000  0.51439000  1.0 0.7309406826
C  C310  1  0.13370000  0.02715000  0.48561000  1.0 0.7309406826
C  C311  1  0.63370000  0.52715000  0.01439000  1.0 0.7309406826
C  C312  1  0.36630000  0.02715000  0.98561000  1.0 0.7309406826
C  C313  1  0.88380000  0.47664000  0.50310000  1.0 -0.6205294601
C  C314  1  0.11620000  0.97664000  0.49690000  1.0 -0.6205294601
C  C315  1  0.61620000  0.47664000  0.00310000  1.0 -0.6205294601
C  C316  1  0.38380000  0.97664000  0.99690000  1.0 -0.6205294601
C  C317  1  0.30430000  0.24418000  0.99880000  1.0 0.2532845118
C  C318  1  0.69570000  0.74418000  0.00120000  1.0 0.2575616964
C  C319  1  0.19570000  0.24418000  0.49880000  1.0 0.2532845118
C  C320  1  0.80430000  0.74418000  0.50120000  1.0 0.2575616964
C  C321  1  0.25390000  0.31700000  0.02680000  1.0 -0.3397223151
C  C322  1  0.74610000  0.81700000  0.97320000  1.0 -0.3397223151
C  C323  1  0.24610000  0.31700000  0.52680000  1.0 -0.3397223151
C  C324  1  0.75390000  0.81700000  0.47320000  1.0 -0.3397223151
C  C325  1  0.22980000  0.29290000  0.95160000  1.0 -0.313329356
C  C326  1  0.77020000  0.79290000  0.04840000  1.0 -0.313329356
C  C327  1  0.27020000  0.29290000  0.45160000  1.0 -0.313329356
C  C328  1  0.72980000  0.79290000  0.54840000  1.0 -0.313329356
C  C329  1  0.60110000  0.47448000  0.87026000  1.0 0.2673081139
C  C330  1  0.39890000  0.97448000  0.12974000  1.0 0.2673081139
C  C331  1  0.89890000  0.47448000  0.37026000  1.0 0.2673081139
C  C332  1  0.10110000  0.97448000  0.62974000  1.0 0.2673081139
C  C333  1  0.59150000  0.40660000  0.82470000  1.0 -0.3397223151
C  C334  1  0.40850000  0.90660000  0.17530000  1.0 -0.3397223151
C  C335  1  0.90850000  0.40660000  0.32470000  1.0 -0.3397223151
C  C336  1  0.09150000  0.90660000  0.67530000  1.0 -0.3397223151
C  C337  1  0.49860000  0.41710000  0.88600000  1.0 -0.3210410199
C  C338  1  0.50140000  0.91710000  0.11400000  1.0 -0.3210410199
C  C339  1  0.00140000  0.41710000  0.38600000  1.0 -0.3210410199
C  C340  1  0.99860000  0.91710000  0.61400000  1.0 -0.3210410199
C  C341  1  0.95380000  0.47304000  0.63235000  1.0 0.2783656546
C  C342  1  0.04620000  0.97304000  0.36765000  1.0 0.2783656546
C  C343  1  0.54620000  0.47304000  0.13235000  1.0 0.2783656546
C  C344  1  0.45380000  0.97304000  0.86765000  1.0 0.2783656546
C  C345  1  0.05880000  0.41490000  0.64290000  1.0 -0.3397223151
C  C346  1  0.94120000  0.91490000  0.35710000  1.0 -0.3397223151
C  C347  1  0.44120000  0.41490000  0.14290000  1.0 -0.3397223151
C  C348  1  0.55880000  0.91490000  0.85710000  1.0 -0.3397223151
C  C349  1  0.93130000  0.41540000  0.68540000  1.0 -0.3210410199
C  C350  1  0.06870000  0.91540000  0.31460000  1.0 -0.3210410199
C  C351  1  0.56870000  0.41540000  0.18540000  1.0 -0.3210410199
C  C352  1  0.43130000  0.91540000  0.81460000  1.0 -0.3210410199
C  C353  1  0.28900000  0.32880000  0.72330000  0.107 -0.071889435
C  C354  1  0.71100000  0.82880000  0.27670000  0.107 -0.0769470254
C  C355  1  0.21100000  0.32880000  0.22330000  0.107 -0.071889435
C  C356  1  0.78900000  0.82880000  0.77670000  0.107 -0.0769470254
C  C357  1  0.29200000  0.28110000  0.72010000  0.107 -0.071889435
C  C358  1  0.70800000  0.78110000  0.27990000  0.107 -0.071889435
C  C359  1  0.20800000  0.28110000  0.22010000  0.107 -0.071889435
C  C360  1  0.79200000  0.78110000  0.77990000  0.107 -0.071889435
C  C361  1  0.19400000  0.27350000  0.77400000  0.107 -0.071889435
C  C362  1  0.80600000  0.77350000  0.22600000  0.107 -0.0769470254
C  C363  1  0.30600000  0.27350000  0.27400000  0.107 -0.071889435
C  C364  1  0.69400000  0.77350000  0.72600000  0.107 -0.071889435
C  C365  1  0.19200000  0.32160000  0.77770000  0.107 -0.0999921044
C  C366  1  0.80800000  0.82160000  0.22230000  0.107 -0.0999921044
C  C367  1  0.30800000  0.32160000  0.27770000  0.107 -0.0999921044
C  C368  1  0.69200000  0.82160000  0.72230000  0.107 -0.0999921044
C  C369  1  0.01350000  0.11020000  0.81060000  0.189 0.1673220077
C  C370  1  0.98650000  0.61020000  0.18940000  0.189 0.1673220077
C  C371  1  0.48650000  0.11020000  0.31060000  0.189 0.1673220077
C  C372  1  0.51350000  0.61020000  0.68940000  0.189 0.1673220077
C  C373  1  0.87400000  0.08670000  0.81970000  0.189 -0.0931458736
C  C374  1  0.12600000  0.58670000  0.18030000  0.189 -0.0931458736
C  C375  1  0.62600000  0.08670000  0.31970000  0.189 -0.0931458736
C  C376  1  0.37400000  0.58670000  0.68030000  0.189 -0.0931458736
C  C377  1  0.99000000  0.05060000  0.86370000  0.189 -0.2811484507
C  C378  1  0.01000000  0.55060000  0.13630000  0.189 -0.2811484507
C  C379  1  0.51000000  0.05060000  0.36370000  0.189 -0.2811484507
C  C380  1  0.49000000  0.55060000  0.63630000  0.189 -0.2811484507
C  C381  1  0.48620000  0.12610000  0.67050000  0.279 0.1633037307
C  C382  1  0.51380000  0.62610000  0.32950000  0.279 0.1633037307
C  C383  1  0.01380000  0.12610000  0.17050000  0.279 0.1633037307
C  C384  1  0.98620000  0.62610000  0.82950000  0.279 0.1633037307
C  C385  1  0.62000000  0.09880000  0.65060000  0.279 -0.0769470254
C  C386  1  0.38000000  0.59880000  0.34940000  0.279 -0.0769470254
C  C387  1  0.88000000  0.09880000  0.15060000  0.279 -0.0769470254
C  C388  1  0.12000000  0.59880000  0.84940000  0.279 -0.0769470254
C  C389  1  0.50110000  0.08370000  0.60520000  0.279 -0.2446770044
C  C390  1  0.49890000  0.58370000  0.39480000  0.279 -0.2446770044
C  C391  1  0.99890000  0.08370000  0.10520000  0.279 -0.2446770044
C  C392  1  0.00110000  0.58370000  0.89480000  0.279 -0.2456409356
C  C393  1  0.46960000  0.10790000  0.64700000  0.721 0.1896828336
C  C394  1  0.53040000  0.60790000  0.35300000  0.721 0.1896828336
C  C395  1  0.03040000  0.10790000  0.14700000  0.721 0.1896828336
C  C396  1  0.96960000  0.60790000  0.85300000  0.721 0.1896828336
C  C397  1  0.60690000  0.08390000  0.63080000  0.721 -0.1617698676
C  C398  1  0.39310000  0.58390000  0.36920000  0.721 -0.1617698676
C  C399  1  0.89310000  0.08390000  0.13080000  0.721 -0.1617698676
C  C400  1  0.10690000  0.58390000  0.86920000  0.721 -0.1617698676
C  C401  1  0.57620000  0.13710000  0.69020000  0.721 -0.2289798355
C  C402  1  0.42380000  0.63710000  0.30980000  0.721 -0.2289798355
C  C403  1  0.92380000  0.13710000  0.19020000  0.721 -0.2289798355
C  C404  1  0.07620000  0.63710000  0.80980000  0.721 -0.2289798355
C  C405  1  0.02500000  0.08850000  0.82933000  0.811 0.1633037307
C  C406  1  0.97500000  0.58850000  0.17067000  0.811 0.1633037307
C  C407  1  0.47500000  0.08850000  0.32933000  0.811 0.1633037307
C  C408  1  0.52500000  0.58850000  0.67067000  0.811 0.1633037307
C  C409  1  0.88390000  0.06600000  0.83510000  0.811 -0.1433688598
C  C410  1  0.11610000  0.56600000  0.16490000  0.811 -0.1480507831
C  C411  1  0.61610000  0.06600000  0.33510000  0.811 -0.1433688598
C  C412  1  0.38390000  0.56600000  0.66490000  0.811 -0.1433688598
C  C413  1  0.92890000  0.12510000  0.78370000  0.811 -0.2658069304
C  C414  1  0.07110000  0.62510000  0.21630000  0.811 -0.2658069304
C  C415  1  0.57110000  0.12510000  0.28370000  0.811 -0.2658069304
C  C416  1  0.42890000  0.62510000  0.71630000  0.811 -0.2658069304
C  C417  1  0.23140000  0.33084000  0.71714000  0.893 -0.0769470254
C  C418  1  0.76860000  0.83084000  0.28286000  0.893 -0.0769470254
C  C419  1  0.26860000  0.33084000  0.21714000  0.893 -0.0769470254
C  C420  1  0.73140000  0.83084000  0.78286000  0.893 -0.0769470254
C  C421  1  0.23160000  0.28275000  0.71087000  0.893 -0.0412849223
C  C422  1  0.76840000  0.78275000  0.28913000  0.893 -0.0412849223
C  C423  1  0.26840000  0.28275000  0.21087000  0.893 -0.0412849223
C  C424  1  0.73160000  0.78275000  0.78913000  0.893 -0.0412849223
C  C425  1  0.26720000  0.27088000  0.78344000  0.893 -0.071889435
C  C426  1  0.73280000  0.77088000  0.21656000  0.893 -0.071889435
C  C427  1  0.23280000  0.27088000  0.28344000  0.893 -0.071889435
C  C428  1  0.76720000  0.77088000  0.71656000  0.893 -0.071889435
C  C429  1  0.26990000  0.31899000  0.78999000  0.893 -0.0931458736
C  C430  1  0.73010000  0.81899000  0.21001000  0.893 -0.0931458736
C  C431  1  0.23010000  0.31899000  0.28999000  0.893 -0.0931458736
C  C432  1  0.76990000  0.81899000  0.71001000  0.893 -0.0931458736
N  N1  1  0.95740000  0.08510000  0.83660000  0.189 0.1115534441
N  N2  1  0.04260000  0.58510000  0.16340000  0.189 0.1190407756
N  N3  1  0.54260000  0.08510000  0.33660000  0.189 0.1190407756
N  N4  1  0.45740000  0.58510000  0.66340000  0.189 0.1190407756
N  N5  1  0.26430000  0.28385000  0.99230000  1.0 0.030025141
N  N6  1  0.73570000  0.78385000  0.00770000  1.0 0.030025141
N  N7  1  0.23570000  0.28385000  0.49230000  1.0 0.030025141
N  N8  1  0.76430000  0.78385000  0.50770000  1.0 0.030025141
N  N9  1  0.56580000  0.43367000  0.86129000  1.0 0.0196451016
N  N10  1  0.43420000  0.93367000  0.13871000  1.0 0.0196451016
N  N11  1  0.93420000  0.43367000  0.36129000  1.0 0.0196451016
N  N12  1  0.06580000  0.93367000  0.63871000  1.0 0.0196451016
N  N13  1  0.97840000  0.43418000  0.65076000  1.0 0.030025141
N  N14  1  0.02160000  0.93418000  0.34924000  1.0 0.030025141
N  N15  1  0.52160000  0.43418000  0.15076000  1.0 0.030025141
N  N16  1  0.47840000  0.93418000  0.84924000  1.0 0.030025141
N  N17  1  0.53090000  0.10380000  0.64270000  0.279 0.1115534441
N  N18  1  0.46910000  0.60380000  0.35730000  0.279 0.1115534441
N  N19  1  0.96910000  0.10380000  0.14270000  0.279 0.1115534441
N  N20  1  0.03090000  0.60380000  0.85730000  0.279 0.1115534441
N  N21  1  0.54810000  0.11050000  0.65390000  0.721 0.0437146031
N  N22  1  0.45190000  0.61050000  0.34610000  0.721 0.0437146031
N  N23  1  0.95190000  0.11050000  0.15390000  0.721 0.0437146031
N  N24  1  0.04810000  0.61050000  0.84610000  0.721 0.0491728931
N  N25  1  0.94900000  0.09390000  0.81720000  0.811 0.080196031
N  N26  1  0.05100000  0.59390000  0.18280000  0.811 0.080196031
N  N27  1  0.55100000  0.09390000  0.31720000  0.811 0.080196031
N  N28  1  0.44900000  0.59390000  0.68280000  0.811 0.080196031
O  O1  1  0.26322000  0.13764000  0.86166000  1.0 -0.6392058056
O  O2  1  0.73678000  0.63764000  0.13834000  1.0 -0.6392058056
O  O3  1  0.23678000  0.13764000  0.36166000  1.0 -0.6392058056
O  O4  1  0.76322000  0.63764000  0.63834000  1.0 -0.6392058056
O  O5  1  0.24677000  0.12146000  0.92969000  1.0 -0.659583824
O  O6  1  0.75323000  0.62146000  0.07031000  1.0 -0.659583824
O  O7  1  0.25323000  0.12146000  0.42969000  1.0 -0.659583824
O  O8  1  0.74677000  0.62146000  0.57031000  1.0 -0.659583824
O  O9  1  0.82089000  0.53546000  0.84787000  1.0 -0.6102084315
O  O10  1  0.17911000  0.03546000  0.15213000  1.0 -0.6102084315
O  O11  1  0.67911000  0.53546000  0.34787000  1.0 -0.6102084315
O  O12  1  0.32089000  0.03546000  0.65213000  1.0 -0.6102084315
O  O13  1  0.76459000  0.53122000  0.91142000  1.0 -0.6102084315
O  O14  1  0.23541000  0.03122000  0.08858000  1.0 -0.6102084315
O  O15  1  0.73541000  0.53122000  0.41142000  1.0 -0.6102084315
O  O16  1  0.26459000  0.03122000  0.58858000  1.0 -0.6102084315
O  O17  1  0.42807000  0.13307000  0.92405000  1.0 -0.659583824
O  O18  1  0.57193000  0.63307000  0.07595000  1.0 -0.659583824
O  O19  1  0.07193000  0.13307000  0.42405000  1.0 -0.659583824
O  O20  1  0.92807000  0.63307000  0.57595000  1.0 -0.659583824
O  O21  1  0.49273000  0.07804000  0.88813000  1.0 -0.6102084315
O  O22  1  0.50727000  0.57804000  0.11187000  1.0 -0.6102084315
O  O23  1  0.00727000  0.07804000  0.38813000  1.0 -0.6102084315
O  O24  1  0.99273000  0.57804000  0.61187000  1.0 -0.6102084315
O  O25  1  0.19096000  0.01764000  0.79579000  1.0 -0.5881417614
O  O26  1  0.80904000  0.51764000  0.20421000  1.0 -0.5881417614
O  O27  1  0.30904000  0.01764000  0.29579000  1.0 -0.5881417614
O  O28  1  0.69096000  0.51764000  0.70421000  1.0 -0.5881417614
O  O29  1  0.22324000  0.04119000  0.86059000  1.0 -0.659583824
O  O30  1  0.77676000  0.54119000  0.13941000  1.0 -0.659583824
O  O31  1  0.27676000  0.04119000  0.36059000  1.0 -0.659583824
O  O32  1  0.72324000  0.54119000  0.63941000  1.0 -0.659583824
O  O33  1  0.73672000  0.63801000  0.88895000  1.0 -0.6492139122
O  O34  1  0.26328000  0.13801000  0.11105000  1.0 -0.6492139122
O  O35  1  0.76328000  0.63801000  0.38895000  1.0 -0.6492139122
O  O36  1  0.23672000  0.13801000  0.61105000  1.0 -0.6492139122
O  O37  1  0.73886000  0.63455000  0.95867000  1.0 -0.659583824
O  O38  1  0.26114000  0.13455000  0.04133000  1.0 -0.659583824
O  O39  1  0.76114000  0.63455000  0.45867000  1.0 -0.659583824
O  O40  1  0.23886000  0.13455000  0.54133000  1.0 -0.659583824
O  O41  1  0.55269000  0.66046000  0.97525000  1.0 -0.6492139122
O  O42  1  0.44731000  0.16046000  0.02475000  1.0 -0.6492139122
O  O43  1  0.94731000  0.66046000  0.47525000  1.0 -0.6492139122
O  O44  1  0.05269000  0.16046000  0.52475000  1.0 -0.6492139122
O  O45  1  0.53084000  0.61706000  0.91780000  1.0 -0.6102084315
O  O46  1  0.46916000  0.11706000  0.08220000  1.0 -0.6102084315
O  O47  1  0.96916000  0.61706000  0.41780000  1.0 -0.6102084315
O  O48  1  0.03084000  0.11706000  0.58220000  1.0 -0.6102084315
O  O49  1  0.23798000  0.17606000  0.77059000  1.0 -0.5881417614
O  O50  1  0.76202000  0.67606000  0.22941000  1.0 -0.5881417614
O  O51  1  0.26202000  0.17606000  0.27059000  1.0 -0.5881417614
O  O52  1  0.73798000  0.67606000  0.72941000  1.0 -0.5881417614
O  O53  1  0.25305000  0.18501000  0.70088000  1.0 -0.5881417614
O  O54  1  0.74695000  0.68501000  0.29912000  1.0 -0.5881417614
O  O55  1  0.24695000  0.18501000  0.20088000  1.0 -0.5881417614
O  O56  1  0.75305000  0.68501000  0.79912000  1.0 -0.5881417614
O  O57  1  0.82812000  0.58112000  0.75675000  1.0 -0.6683223492
O  O58  1  0.17188000  0.08112000  0.24325000  1.0 -0.6683223492
O  O59  1  0.67188000  0.58112000  0.25675000  1.0 -0.6683223492
O  O60  1  0.32812000  0.08112000  0.74325000  1.0 -0.6683223492
O  O61  1  0.86388000  0.58379000  0.68983000  1.0 -0.6392058056
O  O62  1  0.13612000  0.08379000  0.31017000  1.0 -0.6392058056
O  O63  1  0.63612000  0.58379000  0.18983000  1.0 -0.6392058056
O  O64  1  0.36388000  0.08379000  0.81017000  1.0 -0.6392058056
O  O65  1  0.66040000  0.58892000  0.77298000  1.0 -0.6345882586
O  O66  1  0.33960000  0.08892000  0.22702000  1.0 -0.6345882586
O  O67  1  0.83960000  0.58892000  0.27298000  1.0 -0.6345882586
O  O68  1  0.16040000  0.08892000  0.72702000  1.0 -0.6345882586
O  O69  1  0.64414000  0.57878000  0.84123000  1.0 -0.6683223492
O  O70  1  0.35586000  0.07878000  0.15877000  1.0 -0.6683223492
O  O71  1  0.85586000  0.57878000  0.34123000  1.0 -0.6683223492
O  O72  1  0.14414000  0.07878000  0.65877000  1.0 -0.6683223492
O  O73  1  0.87020000  0.55842000  0.48642000  1.0 -0.6789617709
O  O74  1  0.12980000  0.05842000  0.51358000  1.0 -0.6789617709
O  O75  1  0.62980000  0.55842000  0.98642000  1.0 -0.6789617709
O  O76  1  0.37020000  0.05842000  0.01358000  1.0 -0.6789617709
O  O77  1  0.84910000  0.53557000  0.55164000  1.0 -0.6392058056
O  O78  1  0.15090000  0.03557000  0.44836000  1.0 -0.6392058056
O  O79  1  0.65090000  0.53557000  0.05164000  1.0 -0.6392058056
O  O80  1  0.34910000  0.03557000  0.94836000  1.0 -0.6392058056
O  O81  1  0.31150000  0.21368000  0.97167000  1.0 -0.4801991603
O  O82  1  0.68850000  0.71368000  0.02833000  1.0 -0.4801991603
O  O83  1  0.18850000  0.21368000  0.47167000  1.0 -0.4801991603
O  O84  1  0.81150000  0.71368000  0.52833000  1.0 -0.4801991603
O  O85  1  0.58240000  0.50033000  0.90009000  1.0 -0.4801991603
O  O86  1  0.41760000  0.00033000  0.09991000  1.0 -0.4801991603
O  O87  1  0.91760000  0.50033000  0.40009000  1.0 -0.4801991603
O  O88  1  0.08240000  0.00033000  0.59991000  1.0 -0.4801991603
O  O89  1  0.88985000  0.49308000  0.63913000  1.0 -0.4632247857
O  O90  1  0.11015000  0.99308000  0.36087000  1.0 -0.4632247857
O  O91  1  0.61015000  0.49308000  0.13913000  1.0 -0.4632247857
O  O92  1  0.38985000  0.99308000  0.86087000  1.0 -0.4632247857
O  O93  1  0.08313000  0.10939000  0.81586000  0.189 -0.3397223151
O  O94  1  0.91687000  0.60939000  0.18414000  0.189 -0.3397223151
O  O95  1  0.41687000  0.10939000  0.31586000  0.189 -0.3397223151
O  O96  1  0.58313000  0.60939000  0.68414000  0.189 -0.3397223151
O  O97  1  0.41558000  0.12783000  0.66716000  0.279 -0.3476126811
O  O98  1  0.58442000  0.62783000  0.33284000  0.279 -0.3476126811
O  O99  1  0.08442000  0.12783000  0.16716000  0.279 -0.3476126811
O  O100  1  0.91558000  0.62783000  0.83284000  0.279 -0.3476126811
F  F1  1  0.85715000  0.16872000  0.89560000  1.0 -0.132437276
F  F2  1  0.14285000  0.66872000  0.10440000  1.0 -0.132437276
F  F3  1  0.64285000  0.16872000  0.39560000  1.0 -0.132437276
F  F4  1  0.35715000  0.66872000  0.60440000  1.0 -0.132437276
F  F5  1  0.97977000  0.31611000  0.88274000  1.0 -0.1480507831
F  F6  1  0.02023000  0.81611000  0.11726000  1.0 -0.1480507831
F  F7  1  0.52023000  0.31611000  0.38274000  1.0 -0.1480507831
F  F8  1  0.47977000  0.81611000  0.61726000  1.0 -0.1480507831
F  F9  1  0.69745000  0.30376000  0.88555000  1.0 -0.1480507831
F  F10  1  0.30255000  0.80376000  0.11445000  1.0 -0.1480507831
F  F11  1  0.80255000  0.30376000  0.38555000  1.0 -0.1480507831
F  F12  1  0.19745000  0.80376000  0.61445000  1.0 -0.1480507831
F  F13  1  0.28829000  0.81252000  0.89341000  1.0 -0.1433688598
F  F14  1  0.71171000  0.31252000  0.10659000  1.0 -0.1433688598
F  F15  1  0.21171000  0.81252000  0.39341000  1.0 -0.1433688598
F  F16  1  0.78829000  0.31252000  0.60659000  1.0 -0.1433688598
F  F17  1  0.00649000  0.82548000  0.89474000  1.0 -0.1480507831
F  F18  1  0.99351000  0.32548000  0.10526000  1.0 -0.1433688598
F  F19  1  0.49351000  0.82548000  0.39474000  1.0 -0.1480507831
F  F20  1  0.50649000  0.32548000  0.60526000  1.0 -0.1480507831
F  F21  1  0.13041000  0.68252000  0.92810000  1.0 -0.132437276
F  F22  1  0.86959000  0.18252000  0.07190000  1.0 -0.132437276
F  F23  1  0.36959000  0.68252000  0.42810000  1.0 -0.132437276
F  F24  1  0.63041000  0.18252000  0.57190000  1.0 -0.132437276
F  F25  1  0.38906000  0.40257000  0.77579000  1.0 -0.1480507831
F  F26  1  0.61094000  0.90257000  0.22421000  1.0 -0.1480507831
F  F27  1  0.11094000  0.40257000  0.27579000  1.0 -0.1480507831
F  F28  1  0.88906000  0.90257000  0.72421000  1.0 -0.1480507831
F  F29  1  0.10980000  0.40410000  0.75121000  1.0 -0.1480507831
F  F30  1  0.89020000  0.90410000  0.24879000  1.0 -0.1480507831
F  F31  1  0.39020000  0.40410000  0.25121000  1.0 -0.1480507831
F  F32  1  0.60980000  0.90410000  0.74879000  1.0 -0.1480507831
F  F33  1  0.24679000  0.54479000  0.77553000  1.0 -0.1433688598
F  F34  1  0.75321000  0.04479000  0.22447000  1.0 -0.1433688598
F  F35  1  0.25321000  0.54479000  0.27553000  1.0 -0.1433688598
F  F36  1  0.74679000  0.04479000  0.72447000  1.0 -0.1433688598
