# DDEC6 charges by PACMAN v1.1 (https://github.com/mtap-research/PACMAN-charge/)
data_c5ce00862j2_3_FSR_pacman
_symmetry_space_group_name_H-M   'P 1'
_cell_length_a   13.99140000
_cell_length_b   20.25610000
_cell_length_c   23.37030000
_cell_angle_alpha   90.00000000
_cell_angle_beta   90.00000000
_cell_angle_gamma   90.00000000
_symmetry_Int_Tables_number   1
_chemical_formula_structural   Zn3H43C60(NO)12
_chemical_formula_sum   'Zn12 H172 C240 N48 O48'
_cell_volume   6623.40470987
_cell_formula_units_Z   4
loop_
 _symmetry_equiv_pos_site_id
 _symmetry_equiv_pos_as_xyz
  1  'x, y, z'
loop_
 _atom_site_type_symbol
 _atom_site_label
 _atom_site_symmetry_multiplicity
 _atom_site_fract_x
 _atom_site_fract_y
 _atom_site_fract_z
 _atom_site_occupancy
 _atom_site_charge
Zn  Zn1  1  0.82247000  0.19515000  0.24702000  1.0 0.7519441432
Zn  Zn2  1  0.17753000  0.80485000  0.24702000  1.0 0.7519441432
Zn  Zn3  1  0.17753000  0.19515000  0.74702000  1.0 0.7519441432
Zn  Zn4  1  0.82247000  0.80485000  0.74702000  1.0 0.7519441432
Zn  Zn5  1  0.63304000  0.22659000  0.99610000  1.0 0.7643439806
Zn  Zn6  1  0.36696000  0.77341000  0.99610000  1.0 0.7643439806
Zn  Zn7  1  0.36696000  0.22659000  0.49610000  1.0 0.7643439806
Zn  Zn8  1  0.63304000  0.77341000  0.49610000  1.0 0.7643439806
Zn  Zn9  1  0.79288000  0.31495000  0.77921000  1.0 0.7153880632
Zn  Zn10  1  0.20712000  0.68505000  0.77921000  1.0 0.7153880632
Zn  Zn11  1  0.20712000  0.31495000  0.27921000  1.0 0.7153880632
Zn  Zn12  1  0.79288000  0.68505000  0.27921000  1.0 0.7153880632
H  H1  1  0.64700000  0.30340000  0.76280000  1.0 0.3022152893
H  H2  1  0.35300000  0.69660000  0.76280000  1.0 0.3022152893
H  H3  1  0.35300000  0.30340000  0.26280000  1.0 0.3022152893
H  H4  1  0.64700000  0.69660000  0.26280000  1.0 0.3022152893
H  H5  1  0.55580000  0.31340000  0.24400000  1.0 0.1097317378
H  H6  1  0.44420000  0.68660000  0.24400000  1.0 0.1097317378
H  H7  1  0.44420000  0.31340000  0.74400000  1.0 0.1097317378
H  H8  1  0.55580000  0.68660000  0.74400000  1.0 0.1097317378
H  H9  1  0.44790000  0.39650000  0.25180000  1.0 0.1020428407
H  H10  1  0.55210000  0.60350000  0.25180000  1.0 0.1020428407
H  H11  1  0.55210000  0.39650000  0.75180000  1.0 0.1020428407
H  H12  1  0.44790000  0.60350000  0.75180000  1.0 0.1020428407
H  H13  1  0.65370000  0.52780000  0.20720000  1.0 0.1020428407
H  H14  1  0.34630000  0.47220000  0.20720000  1.0 0.1020428407
H  H15  1  0.34630000  0.52780000  0.70720000  1.0 0.1020428407
H  H16  1  0.65370000  0.47220000  0.70720000  1.0 0.1020428407
H  H17  1  0.76370000  0.44490000  0.21260000  1.0 0.1097317378
H  H18  1  0.23630000  0.55510000  0.21260000  1.0 0.1097317378
H  H19  1  0.23630000  0.44490000  0.71260000  1.0 0.1097317378
H  H20  1  0.76370000  0.55510000  0.71260000  1.0 0.1097317378
H  H21  1  0.03320000  0.13650000  0.24230000  1.0 0.1293614335
H  H22  1  0.96680000  0.86350000  0.24230000  1.0 0.1293614335
H  H23  1  0.96680000  0.13650000  0.74230000  1.0 0.1293614335
H  H24  1  0.03320000  0.86350000  0.74230000  1.0 0.1293614335
H  H25  1  0.92200000  0.27580000  0.15170000  1.0 0.1293614335
H  H26  1  0.07800000  0.72420000  0.15170000  1.0 0.1293614335
H  H27  1  0.07800000  0.27580000  0.65170000  1.0 0.1293614335
H  H28  1  0.92200000  0.72420000  0.65170000  1.0 0.1293614335
H  H29  1  0.08670000  0.25850000  0.11660000  1.0 0.1293614335
H  H30  1  0.91330000  0.74150000  0.11660000  1.0 0.1293614335
H  H31  1  0.91330000  0.25850000  0.61660000  1.0 0.1293614335
H  H32  1  0.08670000  0.74150000  0.61660000  1.0 0.1293614335
H  H33  1  0.12640000  0.05760000  0.17990000  1.0 0.1399040275
H  H34  1  0.87360000  0.94240000  0.17990000  1.0 0.1399040275
H  H35  1  0.87360000  0.05760000  0.67990000  1.0 0.1399040275
H  H36  1  0.12640000  0.94240000  0.67990000  1.0 0.1399040275
H  H37  1  0.40140000  0.05520000  0.12920000  1.0 0.1399040275
H  H38  1  0.59860000  0.94480000  0.12920000  1.0 0.1399040275
H  H39  1  0.59860000  0.05520000  0.62920000  1.0 0.1399040275
H  H40  1  0.40140000  0.94480000  0.62920000  1.0 0.1399040275
H  H41  1  0.25690000  0.23100000  0.14400000  1.0 0.1399040275
H  H42  1  0.74310000  0.76900000  0.14400000  1.0 0.1399040275
H  H43  1  0.74310000  0.23100000  0.64400000  1.0 0.1399040275
H  H44  1  0.25690000  0.76900000  0.64400000  1.0 0.1399040275
H  H45  1  0.17890000  0.96370000  0.23170000  1.0 0.1202388782
H  H46  1  0.82110000  0.03630000  0.23170000  1.0 0.1202388782
H  H47  1  0.82110000  0.96370000  0.73170000  1.0 0.1202388782
H  H48  1  0.17890000  0.03630000  0.73170000  1.0 0.1202388782
H  H49  1  0.31330000  0.83300000  0.13850000  1.0 0.1293614335
H  H50  1  0.68670000  0.16700000  0.13850000  1.0 0.1293614335
H  H51  1  0.68670000  0.83300000  0.63850000  1.0 0.1293614335
H  H52  1  0.31330000  0.16700000  0.63850000  1.0 0.1293614335
H  H53  1  0.35740000  0.94230000  0.09800000  1.0 0.1293614335
H  H54  1  0.64260000  0.05770000  0.09800000  1.0 0.1293614335
H  H55  1  0.64260000  0.94230000  0.59800000  1.0 0.1293614335
H  H56  1  0.35740000  0.05770000  0.59800000  1.0 0.1293614335
H  H57  1  0.43080000  0.26550000  0.16980000  1.0 0.1293614335
H  H58  1  0.56920000  0.73450000  0.16980000  1.0 0.1293614335
H  H59  1  0.56920000  0.26550000  0.66980000  1.0 0.1293614335
H  H60  1  0.43080000  0.73450000  0.66980000  1.0 0.1293614335
H  H61  1  0.57540000  0.29840000  0.11690000  1.0 0.1399040275
H  H62  1  0.42460000  0.70160000  0.11690000  1.0 0.1399040275
H  H63  1  0.42460000  0.29840000  0.61690000  1.0 0.1399040275
H  H64  1  0.57540000  0.70160000  0.61690000  1.0 0.1399040275
H  H65  1  0.47120000  0.13200000  0.04810000  1.0 0.1202388782
H  H66  1  0.52880000  0.86800000  0.04810000  1.0 0.1202388782
H  H67  1  0.52880000  0.13200000  0.54810000  1.0 0.1202388782
H  H68  1  0.47120000  0.86800000  0.54810000  1.0 0.1202388782
H  H69  1  0.63160000  0.97150000  0.95880000  1.0 0.1097317378
H  H70  1  0.36840000  0.02850000  0.95880000  1.0 0.1097317378
H  H71  1  0.36840000  0.97150000  0.45880000  1.0 0.1097317378
H  H72  1  0.63160000  0.02850000  0.45880000  1.0 0.1097317378
H  H73  1  0.70510000  0.88820000  0.90330000  1.0 0.1020428407
H  H74  1  0.29490000  0.11180000  0.90330000  1.0 0.1020428407
H  H75  1  0.29490000  0.88820000  0.40330000  1.0 0.1020428407
H  H76  1  0.70510000  0.11180000  0.40330000  1.0 0.1020428407
H  H77  1  0.91970000  0.01540000  0.86270000  1.0 0.1202388782
H  H78  1  0.08030000  0.98460000  0.86270000  1.0 0.1202388782
H  H79  1  0.08030000  0.01540000  0.36270000  1.0 0.1202388782
H  H80  1  0.91970000  0.98460000  0.36270000  1.0 0.1202388782
H  H81  1  0.84190000  0.09670000  0.91330000  1.0 0.1202388782
H  H82  1  0.15810000  0.90330000  0.91330000  1.0 0.1202388782
H  H83  1  0.15810000  0.09670000  0.41330000  1.0 0.1202388782
H  H84  1  0.84190000  0.90330000  0.41330000  1.0 0.1202388782
H  H85  1  0.77710000  0.40590000  0.03250000  1.0 0.1097317378
H  H86  1  0.22290000  0.59410000  0.03250000  1.0 0.1097317378
H  H87  1  0.22290000  0.40590000  0.53250000  1.0 0.1097317378
H  H88  1  0.77710000  0.59410000  0.53250000  1.0 0.1097317378
H  H89  1  0.85370000  0.37350000  0.12100000  1.0 0.1097317378
H  H90  1  0.14630000  0.62650000  0.12100000  1.0 0.1097317378
H  H91  1  0.14630000  0.37350000  0.62100000  1.0 0.1097317378
H  H92  1  0.85370000  0.62650000  0.62100000  1.0 0.1097317378
H  H93  1  0.96400000  0.46170000  0.11420000  1.0 0.1097317378
H  H94  1  0.03600000  0.53830000  0.11420000  1.0 0.1097317378
H  H95  1  0.03600000  0.46170000  0.61420000  1.0 0.1097317378
H  H96  1  0.96400000  0.53830000  0.61420000  1.0 0.1097317378
H  H97  1  0.96080000  0.45540000  0.94340000  1.0 0.1020428407
H  H98  1  0.03920000  0.54460000  0.94340000  1.0 0.1020428407
H  H99  1  0.03920000  0.45540000  0.44340000  1.0 0.1020428407
H  H100  1  0.96080000  0.54460000  0.44340000  1.0 0.1020428407
H  H101  1  0.83670000  0.36990000  0.94750000  1.0 0.1097317378
H  H102  1  0.16330000  0.63010000  0.94750000  1.0 0.1097317378
H  H103  1  0.16330000  0.36990000  0.44750000  1.0 0.1097317378
H  H104  1  0.83670000  0.63010000  0.44750000  1.0 0.1097317378
H  H105  1  0.51430000  0.15800000  0.89360000  1.0 0.1293614335
H  H106  1  0.48570000  0.84200000  0.89360000  1.0 0.1293614335
H  H107  1  0.48570000  0.15800000  0.39360000  1.0 0.1293614335
H  H108  1  0.51430000  0.84200000  0.39360000  1.0 0.1293614335
H  H109  1  0.36770000  0.20400000  0.84970000  1.0 0.1399040275
H  H110  1  0.63230000  0.79600000  0.84970000  1.0 0.1399040275
H  H111  1  0.63230000  0.20400000  0.34970000  1.0 0.1399040275
H  H112  1  0.36770000  0.79600000  0.34970000  1.0 0.1399040275
H  H113  1  0.48050000  0.33360000  0.95830000  1.0 0.1097317378
H  H114  1  0.51950000  0.66640000  0.95830000  1.0 0.1097317378
H  H115  1  0.51950000  0.33360000  0.45830000  1.0 0.1097317378
H  H116  1  0.48050000  0.66640000  0.45830000  1.0 0.1097317378
H  H117  1  0.22410000  0.25880000  0.88330000  1.0 0.1476446072
H  H118  1  0.77590000  0.74120000  0.88330000  1.0 0.1476446072
H  H119  1  0.77590000  0.25880000  0.38330000  1.0 0.1476446072
H  H120  1  0.22410000  0.74120000  0.38330000  1.0 0.1476446072
H  H121  1  0.11910000  0.44390000  0.85610000  1.0 0.1476446072
H  H122  1  0.88090000  0.55610000  0.85610000  1.0 0.1476446072
H  H123  1  0.88090000  0.44390000  0.35610000  1.0 0.1476446072
H  H124  1  0.11910000  0.55610000  0.35610000  1.0 0.1476446072
H  H125  1  0.40200000  0.41840000  0.88670000  1.0 0.1293614335
H  H126  1  0.59800000  0.58160000  0.88670000  1.0 0.1293614335
H  H127  1  0.59800000  0.41840000  0.38670000  1.0 0.1293614335
H  H128  1  0.40200000  0.58160000  0.38670000  1.0 0.1293614335
H  H129  1  0.05300000  0.24490000  0.91440000  1.0 0.1399040275
H  H130  1  0.94700000  0.75510000  0.91440000  1.0 0.1399040275
H  H131  1  0.94700000  0.24490000  0.41440000  1.0 0.1399040275
H  H132  1  0.05300000  0.75510000  0.41440000  1.0 0.1399040275
H  H133  1  0.89310000  0.22610000  0.87440000  1.0 0.1399040275
H  H134  1  0.10690000  0.77390000  0.87440000  1.0 0.1399040275
H  H135  1  0.10690000  0.22610000  0.37440000  1.0 0.1399040275
H  H136  1  0.89310000  0.77390000  0.37440000  1.0 0.1399040275
H  H137  1  0.01240000  0.37040000  0.78650000  1.0 0.1202388782
H  H138  1  0.98760000  0.62960000  0.78650000  1.0 0.1202388782
H  H139  1  0.98760000  0.37040000  0.28650000  1.0 0.1202388782
H  H140  1  0.01240000  0.62960000  0.28650000  1.0 0.1202388782
H  H141  1  0.17220000  0.53010000  0.80290000  1.0 0.1202388782
H  H142  1  0.82780000  0.46990000  0.80290000  1.0 0.1202388782
H  H143  1  0.82780000  0.53010000  0.30290000  1.0 0.1202388782
H  H144  1  0.17220000  0.46990000  0.30290000  1.0 0.1202388782
H  H145  1  0.38110000  0.63970000  0.86670000  1.0 0.1202388782
H  H146  1  0.61890000  0.36030000  0.86670000  1.0 0.1202388782
H  H147  1  0.61890000  0.63970000  0.36670000  1.0 0.1202388782
H  H148  1  0.38110000  0.36030000  0.36670000  1.0 0.1202388782
H  H149  1  0.39500000  0.53800000  0.91050000  1.0 0.1293614335
H  H150  1  0.60500000  0.46200000  0.91050000  1.0 0.1293614335
H  H151  1  0.60500000  0.53800000  0.41050000  1.0 0.1293614335
H  H152  1  0.39500000  0.46200000  0.41050000  1.0 0.1293614335
H  H153  1  0.83360000  0.40150000  0.64360000  1.0 0.1097317378
H  H154  1  0.16640000  0.59850000  0.64360000  1.0 0.1097317378
H  H155  1  0.16640000  0.40150000  0.14360000  1.0 0.1097317378
H  H156  1  0.83360000  0.59850000  0.14360000  1.0 0.1097317378
H  H157  1  0.73020000  0.10480000  0.80550000  1.0 0.1202388782
H  H158  1  0.26980000  0.89520000  0.80550000  1.0 0.1202388782
H  H159  1  0.26980000  0.10480000  0.30550000  1.0 0.1202388782
H  H160  1  0.73020000  0.89520000  0.30550000  1.0 0.1202388782
H  H161  1  0.65630000  0.99930000  0.80050000  1.0 0.1097317378
H  H162  1  0.34370000  0.00070000  0.80050000  1.0 0.1097317378
H  H163  1  0.34370000  0.99930000  0.30050000  1.0 0.1097317378
H  H164  1  0.65630000  0.00070000  0.30050000  1.0 0.1097317378
H  H165  1  0.41180000  0.08740000  0.75150000  1.0 0.1097317378
H  H166  1  0.58820000  0.91260000  0.75150000  1.0 0.1097317378
H  H167  1  0.58820000  0.08740000  0.25150000  1.0 0.1097317378
H  H168  1  0.41180000  0.91260000  0.25150000  1.0 0.1097317378
H  H169  1  0.48370000  0.18970000  0.75310000  1.0 0.1097317378
H  H170  1  0.51630000  0.81030000  0.75310000  1.0 0.1097317378
H  H171  1  0.51630000  0.18970000  0.25310000  1.0 0.1097317378
H  H172  1  0.48370000  0.81030000  0.25310000  1.0 0.1097317378
C  C1  1  0.74560000  0.31390000  0.23450000  1.0 0.5254287756
C  C2  1  0.25440000  0.68610000  0.23450000  1.0 0.5254287756
C  C3  1  0.25440000  0.31390000  0.73450000  1.0 0.5254287756
C  C4  1  0.74560000  0.68610000  0.73450000  1.0 0.5254287756
C  C5  1  0.67450000  0.36820000  0.23130000  1.0 -0.029518243
C  C6  1  0.32550000  0.63180000  0.23130000  1.0 -0.029518243
C  C7  1  0.32550000  0.36820000  0.73130000  1.0 -0.029518243
C  C8  1  0.67450000  0.63180000  0.73130000  1.0 -0.029518243
C  C9  1  0.57670000  0.35670000  0.23960000  1.0 -0.1272312869
C  C10  1  0.42330000  0.64330000  0.23960000  1.0 -0.1272312869
C  C11  1  0.42330000  0.35670000  0.73960000  1.0 -0.1272312869
C  C12  1  0.57670000  0.64330000  0.73960000  1.0 -0.1272312869
C  C13  1  0.51040000  0.40670000  0.24150000  1.0 -0.1690558842
C  C14  1  0.48960000  0.59330000  0.24150000  1.0 -0.1690558842
C  C15  1  0.48960000  0.40670000  0.74150000  1.0 -0.1690558842
C  C16  1  0.51040000  0.59330000  0.74150000  1.0 -0.1690558842
C  C17  1  0.53370000  0.47440000  0.22830000  1.0 0.0608153826
C  C18  1  0.46630000  0.52560000  0.22830000  1.0 0.0608153826
C  C19  1  0.46630000  0.47440000  0.72830000  1.0 0.0608153826
C  C20  1  0.53370000  0.52560000  0.72830000  1.0 0.0608153826
C  C21  1  0.63330000  0.48550000  0.21670000  1.0 -0.1552947127
C  C22  1  0.36670000  0.51450000  0.21670000  1.0 -0.1552947127
C  C23  1  0.36670000  0.48550000  0.71670000  1.0 -0.1552947127
C  C24  1  0.63330000  0.51450000  0.71670000  1.0 -0.1552947127
C  C25  1  0.69980000  0.43490000  0.21920000  1.0 -0.1092576225
C  C26  1  0.30020000  0.56510000  0.21920000  1.0 -0.1092576225
C  C27  1  0.30020000  0.43490000  0.71920000  1.0 -0.1092576225
C  C28  1  0.69980000  0.56510000  0.71920000  1.0 -0.1092576225
C  C29  1  0.02590000  0.16920000  0.21470000  1.0 0.1293614335
C  C30  1  0.97410000  0.83080000  0.21470000  1.0 0.1293614335
C  C31  1  0.97410000  0.16920000  0.71470000  1.0 0.1293614335
C  C32  1  0.02590000  0.83080000  0.71470000  1.0 0.1293614335
C  C33  1  0.96580000  0.24560000  0.16640000  1.0 0.0092337792
C  C34  1  0.03420000  0.75440000  0.16640000  1.0 0.0092337792
C  C35  1  0.03420000  0.24560000  0.66640000  1.0 0.0092337792
C  C36  1  0.96580000  0.75440000  0.66640000  1.0 0.0092337792
C  C37  1  0.05600000  0.23500000  0.14550000  1.0 -0.1092576225
C  C38  1  0.94400000  0.76500000  0.14550000  1.0 -0.1092576225
C  C39  1  0.94400000  0.23500000  0.64550000  1.0 -0.1092576225
C  C40  1  0.05600000  0.76500000  0.64550000  1.0 -0.1092576225
C  C41  1  0.17870000  0.15160000  0.16480000  1.0 0.2094649597
C  C42  1  0.82130000  0.84840000  0.16480000  1.0 0.2094649597
C  C43  1  0.82130000  0.15160000  0.66480000  1.0 0.2094649597
C  C44  1  0.17870000  0.84840000  0.66480000  1.0 0.2094649597
C  C45  1  0.18060000  0.08110000  0.16900000  1.0 -0.2989427908
C  C46  1  0.81940000  0.91890000  0.16900000  1.0 -0.2989427908
C  C47  1  0.81940000  0.08110000  0.66900000  1.0 -0.2989427908
C  C48  1  0.18060000  0.91890000  0.66900000  1.0 -0.2989427908
C  C49  1  0.26590000  0.04880000  0.15640000  1.0 0.2094649597
C  C50  1  0.73410000  0.95120000  0.15640000  1.0 0.2094649597
C  C51  1  0.73410000  0.04880000  0.65640000  1.0 0.2094649597
C  C52  1  0.26590000  0.95120000  0.65640000  1.0 0.2094649597
C  C53  1  0.34630000  0.07860000  0.13830000  1.0 -0.278297781
C  C54  1  0.65370000  0.92140000  0.13830000  1.0 -0.278297781
C  C55  1  0.65370000  0.07860000  0.63830000  1.0 -0.278297781
C  C56  1  0.34630000  0.92140000  0.63830000  1.0 -0.278297781
C  C57  1  0.34070000  0.15110000  0.13400000  1.0 0.2017219327
C  C58  1  0.65930000  0.84890000  0.13400000  1.0 0.2017219327
C  C59  1  0.65930000  0.15110000  0.63400000  1.0 0.2017219327
C  C60  1  0.34070000  0.84890000  0.63400000  1.0 0.2017219327
C  C61  1  0.25840000  0.18530000  0.14710000  1.0 -0.2713656568
C  C62  1  0.74160000  0.81470000  0.14710000  1.0 -0.2713656568
C  C63  1  0.74160000  0.18530000  0.64710000  1.0 -0.2713656568
C  C64  1  0.25840000  0.81470000  0.64710000  1.0 -0.2713656568
C  C65  1  0.21700000  0.94380000  0.20410000  1.0 0.0661812647
C  C66  1  0.78300000  0.05620000  0.20410000  1.0 0.0661812647
C  C67  1  0.78300000  0.94380000  0.70410000  1.0 0.0661812647
C  C68  1  0.21700000  0.05620000  0.70410000  1.0 0.0661812647
C  C69  1  0.29170000  0.87320000  0.15270000  1.0 -5.94432e-05
C  C70  1  0.70830000  0.12680000  0.15270000  1.0 -5.94432e-05
C  C71  1  0.70830000  0.87320000  0.65270000  1.0 -5.94432e-05
C  C72  1  0.29170000  0.12680000  0.65270000  1.0 0.0031776482
C  C73  1  0.31710000  0.93330000  0.12860000  1.0 -0.092518855
C  C74  1  0.68290000  0.06670000  0.12860000  1.0 -0.092518855
C  C75  1  0.68290000  0.93330000  0.62860000  1.0 -0.092518855
C  C76  1  0.31710000  0.06670000  0.62860000  1.0 -0.092518855
C  C77  1  0.45710000  0.24330000  0.13870000  1.0 -0.1092576225
C  C78  1  0.54290000  0.75670000  0.13870000  1.0 -0.1092576225
C  C79  1  0.54290000  0.24330000  0.63870000  1.0 -0.1092576225
C  C80  1  0.45710000  0.75670000  0.63870000  1.0 -0.1092576225
C  C81  1  0.53660000  0.26220000  0.10910000  1.0 -0.0219253109
C  C82  1  0.46340000  0.73780000  0.10910000  1.0 -0.0219253109
C  C83  1  0.46340000  0.26220000  0.60910000  1.0 -0.0219253109
C  C84  1  0.53660000  0.73780000  0.60910000  1.0 -0.0219253109
C  C85  1  0.47820000  0.16920000  0.07090000  1.0 0.078269476
C  C86  1  0.52180000  0.83080000  0.07090000  1.0 0.078269476
C  C87  1  0.52180000  0.16920000  0.57090000  1.0 0.078269476
C  C88  1  0.47820000  0.83080000  0.57090000  1.0 0.078269476
C  C89  1  0.67140000  0.09660000  0.96780000  1.0 0.5218850336
C  C90  1  0.32860000  0.90340000  0.96780000  1.0 0.5218850336
C  C91  1  0.32860000  0.09660000  0.46780000  1.0 0.5218850336
C  C92  1  0.67140000  0.90340000  0.46780000  1.0 0.5218850336
C  C93  1  0.72790000  0.04480000  0.93780000  1.0 -0.029518243
C  C94  1  0.27210000  0.95520000  0.93780000  1.0 -0.029518243
C  C95  1  0.27210000  0.04480000  0.43780000  1.0 -0.029518243
C  C96  1  0.72790000  0.95520000  0.43780000  1.0 -0.029518243
C  C97  1  0.68670000  0.98040000  0.93790000  1.0 -0.1190718879
C  C98  1  0.31330000  0.01960000  0.93790000  1.0 -0.1190718879
C  C99  1  0.31330000  0.98040000  0.43790000  1.0 -0.1190718879
C  C100  1  0.68670000  0.01960000  0.43790000  1.0 -0.1190718879
C  C101  1  0.73260000  0.92990000  0.90500000  1.0 -0.1272312869
C  C102  1  0.26740000  0.07010000  0.90500000  1.0 -0.1272312869
C  C103  1  0.26740000  0.92990000  0.40500000  1.0 -0.1272312869
C  C104  1  0.73260000  0.07010000  0.40500000  1.0 -0.1272312869
C  C105  1  0.81750000  0.94180000  0.87540000  1.0 -0.029518243
C  C106  1  0.18250000  0.05820000  0.87540000  1.0 -0.029518243
C  C107  1  0.18250000  0.94180000  0.37540000  1.0 -0.029518243
C  C108  1  0.81750000  0.05820000  0.37540000  1.0 -0.029518243
C  C109  1  0.86120000  0.00660000  0.88000000  1.0 -0.1092576225
C  C110  1  0.13880000  0.99340000  0.88000000  1.0 -0.1092576225
C  C111  1  0.13880000  0.00660000  0.38000000  1.0 -0.1092576225
C  C112  1  0.86120000  0.99340000  0.38000000  1.0 -0.1092576225
C  C113  1  0.81410000  0.05510000  0.91080000  1.0 -0.0977616982
C  C114  1  0.18590000  0.94490000  0.91080000  1.0 -0.0977616982
C  C115  1  0.18590000  0.05510000  0.41080000  1.0 -0.0977616982
C  C116  1  0.81410000  0.94490000  0.41080000  1.0 -0.0977616982
C  C117  1  0.85610000  0.89160000  0.83470000  1.0 0.5403572953
C  C118  1  0.14390000  0.10840000  0.83470000  1.0 0.5403572953
C  C119  1  0.14390000  0.89160000  0.33470000  1.0 0.5403572953
C  C120  1  0.85610000  0.10840000  0.33470000  1.0 0.5403572953
C  C121  1  0.75470000  0.31560000  0.03250000  1.0 0.5620948709
C  C122  1  0.24530000  0.68440000  0.03250000  1.0 0.5620948709
C  C123  1  0.24530000  0.31560000  0.53250000  1.0 0.5620948709
C  C124  1  0.75470000  0.68440000  0.53250000  1.0 0.5620948709
C  C125  1  0.82650000  0.37160000  0.03170000  1.0 -0.1092576225
C  C126  1  0.17350000  0.62840000  0.03170000  1.0 -0.1092576225
C  C127  1  0.17350000  0.37160000  0.53170000  1.0 -0.1092576225
C  C128  1  0.82650000  0.62840000  0.53170000  1.0 -0.1092576225
C  C129  1  0.86900000  0.39290000  0.08610000  1.0 -0.092518855
C  C130  1  0.13100000  0.60710000  0.08610000  1.0 -0.092518855
C  C131  1  0.13100000  0.39290000  0.58610000  1.0 -0.092518855
C  C132  1  0.86900000  0.60710000  0.58610000  1.0 -0.092518855
C  C133  1  0.93600000  0.44580000  0.08080000  1.0 -0.1690558842
C  C134  1  0.06400000  0.55420000  0.08080000  1.0 -0.1690558842
C  C135  1  0.06400000  0.44580000  0.58080000  1.0 -0.1690558842
C  C136  1  0.93600000  0.55420000  0.58080000  1.0 -0.1690558842
C  C137  1  0.96210000  0.47490000  0.03040000  1.0 0.078269476
C  C138  1  0.03790000  0.52510000  0.03040000  1.0 0.078269476
C  C139  1  0.03790000  0.47490000  0.53040000  1.0 0.078269476
C  C140  1  0.96210000  0.52510000  0.53040000  1.0 0.078269476
C  C141  1  0.93370000  0.44310000  0.97820000  1.0 -0.1690558842
C  C142  1  0.06630000  0.55690000  0.97820000  1.0 -0.1690558842
C  C143  1  0.06630000  0.44310000  0.47820000  1.0 -0.1690558842
C  C144  1  0.93370000  0.55690000  0.47820000  1.0 -0.1690558842
C  C145  1  0.85930000  0.38980000  0.98070000  1.0 -0.0977616982
C  C146  1  0.14070000  0.61020000  0.98070000  1.0 -0.0977616982
C  C147  1  0.14070000  0.38980000  0.48070000  1.0 -0.0977616982
C  C148  1  0.85930000  0.61020000  0.48070000  1.0 -0.0977616982
C  C149  1  0.48920000  0.19970000  0.90090000  1.0 -0.0219253109
C  C150  1  0.51080000  0.80030000  0.90090000  1.0 -0.0219253109
C  C151  1  0.51080000  0.19970000  0.40090000  1.0 -0.0219253109
C  C152  1  0.48920000  0.80030000  0.40090000  1.0 -0.0219253109
C  C153  1  0.40780000  0.22480000  0.87580000  1.0 -0.0839348213
C  C154  1  0.59220000  0.77520000  0.87580000  1.0 -0.0839348213
C  C155  1  0.59220000  0.22480000  0.37580000  1.0 -0.0839348213
C  C156  1  0.40780000  0.77520000  0.37580000  1.0 -0.0839348213
C  C157  1  0.47180000  0.29590000  0.93620000  1.0 0.078269476
C  C158  1  0.52820000  0.70410000  0.93620000  1.0 0.078269476
C  C159  1  0.52820000  0.29590000  0.43620000  1.0 0.078269476
C  C160  1  0.47180000  0.70410000  0.43620000  1.0 0.078269476
C  C161  1  0.32060000  0.33170000  0.88690000  1.0 0.2017219327
C  C162  1  0.67940000  0.66830000  0.88690000  1.0 0.2017219327
C  C163  1  0.67940000  0.33170000  0.38690000  1.0 0.2017219327
C  C164  1  0.32060000  0.66830000  0.38690000  1.0 0.2017219327
C  C165  1  0.23290000  0.30410000  0.87940000  1.0 -0.2527155169
C  C166  1  0.76710000  0.69590000  0.87940000  1.0 -0.2527155169
C  C167  1  0.76710000  0.30410000  0.37940000  1.0 -0.2527155169
C  C168  1  0.23290000  0.69590000  0.37940000  1.0 -0.2527155169
C  C169  1  0.15660000  0.34550000  0.86570000  1.0 0.2094649597
C  C170  1  0.84340000  0.65450000  0.86570000  1.0 0.2094649597
C  C171  1  0.84340000  0.34550000  0.36570000  1.0 0.2094649597
C  C172  1  0.15660000  0.65450000  0.36570000  1.0 0.2094649597
C  C173  1  0.17010000  0.41520000  0.86200000  1.0 -0.278297781
C  C174  1  0.82990000  0.58480000  0.86200000  1.0 -0.278297781
C  C175  1  0.82990000  0.41520000  0.36200000  1.0 -0.278297781
C  C176  1  0.17010000  0.58480000  0.36200000  1.0 -0.278297781
C  C177  1  0.26070000  0.43750000  0.86760000  1.0 0.2094649597
C  C178  1  0.73930000  0.56250000  0.86760000  1.0 0.2094649597
C  C179  1  0.73930000  0.43750000  0.36760000  1.0 0.2094649597
C  C180  1  0.26070000  0.56250000  0.36760000  1.0 0.2094649597
C  C181  1  0.34150000  0.40040000  0.88150000  1.0 -0.2989427908
C  C182  1  0.65850000  0.59960000  0.88150000  1.0 -0.2989427908
C  C183  1  0.65850000  0.40040000  0.38150000  1.0 -0.2989427908
C  C184  1  0.34150000  0.59960000  0.38150000  1.0 -0.2989427908
C  C185  1  0.02450000  0.26830000  0.88480000  1.0 -0.092518855
C  C186  1  0.97550000  0.73170000  0.88480000  1.0 -0.092518855
C  C187  1  0.97550000  0.26830000  0.38480000  1.0 -0.092518855
C  C188  1  0.02450000  0.73170000  0.38480000  1.0 -0.092518855
C  C189  1  0.93640000  0.25810000  0.86230000  1.0 -0.029518243
C  C190  1  0.06360000  0.74190000  0.86230000  1.0 -0.029518243
C  C191  1  0.06360000  0.25810000  0.36230000  1.0 -0.029518243
C  C192  1  0.93640000  0.74190000  0.36230000  1.0 -0.029518243
C  C193  1  0.00130000  0.33820000  0.81400000  1.0 0.1097317378
C  C194  1  0.99870000  0.66180000  0.81400000  1.0 0.1097317378
C  C195  1  0.99870000  0.33820000  0.31400000  1.0 0.1097317378
C  C196  1  0.00130000  0.66180000  0.31400000  1.0 0.1097317378
C  C197  1  0.22400000  0.54520000  0.82410000  1.0 0.0368535257
C  C198  1  0.77600000  0.45480000  0.82410000  1.0 0.0368535257
C  C199  1  0.77600000  0.54520000  0.32410000  1.0 0.0368535257
C  C200  1  0.22400000  0.45480000  0.32410000  1.0 0.0368535257
C  C201  1  0.33950000  0.60470000  0.86030000  1.0 -0.0470591002
C  C202  1  0.66050000  0.39530000  0.86030000  1.0 -0.0470591002
C  C203  1  0.66050000  0.60470000  0.36030000  1.0 -0.0470591002
C  C204  1  0.33950000  0.39530000  0.36030000  1.0 -0.0470591002
C  C205  1  0.34940000  0.55000000  0.88340000  1.0 -0.1190718879
C  C206  1  0.65060000  0.45000000  0.88340000  1.0 -0.1190718879
C  C207  1  0.65060000  0.55000000  0.38340000  1.0 -0.1190718879
C  C208  1  0.34940000  0.45000000  0.38340000  1.0 -0.1190718879
C  C209  1  0.83840000  0.38660000  0.68110000  1.0 0.4177025891
C  C210  1  0.16160000  0.61340000  0.68110000  1.0 0.4177025891
C  C211  1  0.16160000  0.38660000  0.18110000  1.0 0.4177025891
C  C212  1  0.83840000  0.61340000  0.18110000  1.0 0.4177025891
C  C213  1  0.66550000  0.22200000  0.78110000  1.0 0.5218850336
C  C214  1  0.33450000  0.77800000  0.78110000  1.0 0.5218850336
C  C215  1  0.33450000  0.22200000  0.28110000  1.0 0.5218850336
C  C216  1  0.66550000  0.77800000  0.28110000  1.0 0.5218850336
C  C217  1  0.61370000  0.15650000  0.78050000  1.0 -0.0470591002
C  C218  1  0.38630000  0.84350000  0.78050000  1.0 -0.0470591002
C  C219  1  0.38630000  0.15650000  0.28050000  1.0 -0.0470591002
C  C220  1  0.61370000  0.84350000  0.28050000  1.0 -0.0470591002
C  C221  1  0.66630000  0.10090000  0.79480000  1.0 -0.1190718879
C  C222  1  0.33370000  0.89910000  0.79480000  1.0 -0.1190718879
C  C223  1  0.33370000  0.10090000  0.29480000  1.0 -0.1190718879
C  C224  1  0.66630000  0.89910000  0.29480000  1.0 -0.1190718879
C  C225  1  0.62120000  0.03730000  0.79300000  1.0 -0.1505663992
C  C226  1  0.37880000  0.96270000  0.79300000  1.0 -0.1505663992
C  C227  1  0.37880000  0.03730000  0.29300000  1.0 -0.1505663992
C  C228  1  0.62120000  0.96270000  0.29300000  1.0 -0.1505663992
C  C229  1  0.52300000  0.03300000  0.77990000  1.0 0.078269476
C  C230  1  0.47700000  0.96700000  0.77990000  1.0 0.078269476
C  C231  1  0.47700000  0.03300000  0.27990000  1.0 0.078269476
C  C232  1  0.52300000  0.96700000  0.27990000  1.0 0.078269476
C  C233  1  0.47510000  0.09070000  0.76330000  1.0 -0.1505663992
C  C234  1  0.52490000  0.90930000  0.76330000  1.0 -0.1505663992
C  C235  1  0.52490000  0.09070000  0.26330000  1.0 -0.1505663992
C  C236  1  0.47510000  0.90930000  0.26330000  1.0 -0.1505663992
C  C237  1  0.51770000  0.15220000  0.76370000  1.0 -0.1190718879
C  C238  1  0.48230000  0.84780000  0.76370000  1.0 -0.1190718879
C  C239  1  0.48230000  0.15220000  0.26370000  1.0 -0.1190718879
C  C240  1  0.51770000  0.84780000  0.26370000  1.0 -0.1190718879
N  N1  1  0.95030000  0.20530000  0.21150000  1.0 -0.2713656568
N  N2  1  0.04970000  0.79470000  0.21150000  1.0 -0.278297781
N  N3  1  0.04970000  0.20530000  0.71150000  1.0 -0.278297781
N  N4  1  0.95030000  0.79470000  0.71150000  1.0 -0.278297781
N  N5  1  0.09220000  0.18200000  0.17620000  1.0 0.0031776482
N  N6  1  0.90780000  0.81800000  0.17620000  1.0 0.0031776482
N  N7  1  0.90780000  0.18200000  0.67620000  1.0 0.0031776482
N  N8  1  0.09220000  0.81800000  0.67620000  1.0 0.0031776482
N  N9  1  0.26590000  0.97580000  0.16260000  1.0 0.0092337792
N  N10  1  0.73410000  0.02420000  0.16260000  1.0 0.0092337792
N  N11  1  0.73410000  0.97580000  0.66260000  1.0 0.0092337792
N  N12  1  0.26590000  0.02420000  0.66260000  1.0 0.0092337792
N  N13  1  0.23250000  0.87780000  0.19890000  1.0 -0.2877432469
N  N14  1  0.76750000  0.12220000  0.19890000  1.0 -0.2877432469
N  N15  1  0.76750000  0.87780000  0.69890000  1.0 -0.2877432469
N  N16  1  0.23250000  0.12220000  0.69890000  1.0 -0.2877432469
N  N17  1  0.42180000  0.18500000  0.11450000  1.0 0.0031776482
N  N18  1  0.57820000  0.81500000  0.11450000  1.0 0.0031776482
N  N19  1  0.57820000  0.18500000  0.61450000  1.0 0.0031776482
N  N20  1  0.42180000  0.81500000  0.61450000  1.0 0.0031776482
N  N21  1  0.54850000  0.21620000  0.06450000  1.0 -0.2989427908
N  N22  1  0.45150000  0.78380000  0.06450000  1.0 -0.2989427908
N  N23  1  0.45150000  0.21620000  0.56450000  1.0 -0.2989427908
N  N24  1  0.54850000  0.78380000  0.56450000  1.0 -0.2989427908
N  N25  1  0.52790000  0.24440000  0.93780000  1.0 -0.2877432469
N  N26  1  0.47210000  0.75560000  0.93780000  1.0 -0.2877432469
N  N27  1  0.47210000  0.24440000  0.43780000  1.0 -0.2877432469
N  N28  1  0.52790000  0.75560000  0.43780000  1.0 -0.2877432469
N  N29  1  0.39890000  0.28740000  0.89820000  1.0 0.0031776482
N  N30  1  0.60110000  0.71260000  0.89820000  1.0 0.0031776482
N  N31  1  0.60110000  0.28740000  0.39820000  1.0 0.0031776482
N  N32  1  0.39890000  0.71260000  0.39820000  1.0 0.0031776482
N  N33  1  0.06360000  0.32060000  0.85470000  1.0 0.0031776482
N  N34  1  0.93640000  0.67940000  0.85470000  1.0 0.0092337792
N  N35  1  0.93640000  0.32060000  0.35470000  1.0 0.0092337792
N  N36  1  0.06360000  0.67940000  0.35470000  1.0 0.0092337792
N  N37  1  0.92120000  0.30310000  0.81840000  1.0 -0.2877432469
N  N38  1  0.07880000  0.69690000  0.81840000  1.0 -0.2877432469
N  N39  1  0.07880000  0.30310000  0.31840000  1.0 -0.2877432469
N  N40  1  0.92120000  0.69690000  0.31840000  1.0 -0.2877432469
N  N41  1  0.27740000  0.51020000  0.86010000  1.0 0.0092337792
N  N42  1  0.72260000  0.48980000  0.86010000  1.0 0.0092337792
N  N43  1  0.72260000  0.51020000  0.36010000  1.0 0.0092337792
N  N44  1  0.27740000  0.48980000  0.36010000  1.0 0.0092337792
N  N45  1  0.26140000  0.60930000  0.82450000  1.0 -0.3241899871
N  N46  1  0.73860000  0.39070000  0.82450000  1.0 -0.3241899871
N  N47  1  0.73860000  0.60930000  0.32450000  1.0 -0.3241899871
N  N48  1  0.26140000  0.39070000  0.32450000  1.0 -0.3241899871
O  O1  1  0.83260000  0.33120000  0.23120000  1.0 -0.5713636839
O  O2  1  0.16740000  0.66880000  0.23120000  1.0 -0.5713636839
O  O3  1  0.16740000  0.33120000  0.73120000  1.0 -0.5713636839
O  O4  1  0.83260000  0.66880000  0.73120000  1.0 -0.5713636839
O  O5  1  0.71940000  0.25840000  0.24270000  1.0 -0.4928778671
O  O6  1  0.28060000  0.74160000  0.24270000  1.0 -0.4928778671
O  O7  1  0.28060000  0.25840000  0.74270000  1.0 -0.4928778671
O  O8  1  0.71940000  0.74160000  0.74270000  1.0 -0.4928778671
O  O9  1  0.59590000  0.09040000  0.98700000  1.0 -0.5015219712
O  O10  1  0.40410000  0.90960000  0.98700000  1.0 -0.5015219712
O  O11  1  0.40410000  0.09040000  0.48700000  1.0 -0.5015219712
O  O12  1  0.59590000  0.90960000  0.48700000  1.0 -0.5015219712
O  O13  1  0.71280000  0.15660000  0.96640000  1.0 -0.5810555481
O  O14  1  0.28720000  0.84340000  0.96640000  1.0 -0.5810555481
O  O15  1  0.28720000  0.15660000  0.46640000  1.0 -0.5810555481
O  O16  1  0.71280000  0.84340000  0.46640000  1.0 -0.5810555481
O  O17  1  0.80510000  0.84020000  0.82410000  1.0 -0.5810555481
O  O18  1  0.19490000  0.15980000  0.82410000  1.0 -0.5810555481
O  O19  1  0.19490000  0.84020000  0.32410000  1.0 -0.5810555481
O  O20  1  0.80510000  0.15980000  0.32410000  1.0 -0.5810555481
O  O21  1  0.93270000  0.90660000  0.80910000  1.0 -0.5955044591
O  O22  1  0.06730000  0.09340000  0.80910000  1.0 -0.5955044591
O  O23  1  0.06730000  0.90660000  0.30910000  1.0 -0.5955044591
O  O24  1  0.93270000  0.09340000  0.30910000  1.0 -0.5955044591
O  O25  1  0.75400000  0.27820000  0.07670000  1.0 -0.5565541946
O  O26  1  0.24600000  0.72180000  0.07670000  1.0 -0.5565541946
O  O27  1  0.24600000  0.27820000  0.57670000  1.0 -0.5565541946
O  O28  1  0.75400000  0.72180000  0.57670000  1.0 -0.5565541946
O  O29  1  0.70450000  0.30540000  0.99290000  1.0 -0.5015219712
O  O30  1  0.29550000  0.69460000  0.99290000  1.0 -0.5015219712
O  O31  1  0.29550000  0.30540000  0.49290000  1.0 -0.5015219712
O  O32  1  0.70450000  0.69460000  0.49290000  1.0 -0.5015219712
O  O33  1  0.78920000  0.33490000  0.69710000  1.0 -0.5390025043
O  O34  1  0.21080000  0.66510000  0.69710000  1.0 -0.5390025043
O  O35  1  0.21080000  0.33490000  0.19710000  1.0 -0.5390025043
O  O36  1  0.78920000  0.66510000  0.19710000  1.0 -0.5390025043
O  O37  1  0.88760000  0.41410000  0.71270000  1.0 -0.4363414237
O  O38  1  0.11240000  0.58590000  0.71270000  1.0 -0.4363414237
O  O39  1  0.11240000  0.41410000  0.21270000  1.0 -0.4363414237
O  O40  1  0.88760000  0.58590000  0.21270000  1.0 -0.4363414237
O  O41  1  0.75260000  0.22800000  0.78970000  1.0 -0.4835641944
O  O42  1  0.24740000  0.77200000  0.78970000  1.0 -0.4835641944
O  O43  1  0.24740000  0.22800000  0.28970000  1.0 -0.4835641944
O  O44  1  0.75260000  0.77200000  0.28970000  1.0 -0.4835641944
O  O45  1  0.61320000  0.27150000  0.77020000  1.0 -0.416464504
O  O46  1  0.38680000  0.72850000  0.77020000  1.0 -0.416464504
O  O47  1  0.38680000  0.27150000  0.27020000  1.0 -0.416464504
O  O48  1  0.61320000  0.72850000  0.27020000  1.0 -0.416464504
