# DDEC6 charges by PACMAN v1.1 (https://github.com/mtap-research/PACMAN-charge/)
data_d0ce00275e2_2_ASR_pacman
_symmetry_space_group_name_H-M   'P 1'
_cell_length_a   19.91200000
_cell_length_b   19.91200000
_cell_length_c   9.53380000
_cell_angle_alpha   90.00000000
_cell_angle_beta   90.00000000
_cell_angle_gamma   90.00000000
_symmetry_Int_Tables_number   1
_chemical_formula_structural   Zn2P2H24C21NO10
_chemical_formula_sum   'Zn8 P8 H96 C84 N4 O40'
_cell_volume   3780.03485375
_cell_formula_units_Z   4
loop_
 _symmetry_equiv_pos_site_id
 _symmetry_equiv_pos_as_xyz
  1  'x, y, z'
loop_
 _atom_site_type_symbol
 _atom_site_label
 _atom_site_symmetry_multiplicity
 _atom_site_fract_x
 _atom_site_fract_y
 _atom_site_fract_z
 _atom_site_occupancy
 _atom_site_charge
Zn  Zn1  1  0.50000000  0.00000000  0.75000000  1.0 1.0522570293
Zn  Zn2  1  0.00000000  0.50000000  0.75000000  1.0 1.0522570293
Zn  Zn3  1  0.00000000  0.50000000  0.25000000  1.0 1.0522570293
Zn  Zn4  1  0.50000000  0.00000000  0.25000000  1.0 1.0522570293
Zn  Zn5  1  0.50000000  0.50000000  0.65113000  1.0 0.638583986
Zn  Zn6  1  0.00000000  0.00000000  0.15113000  1.0 0.638583986
Zn  Zn7  1  0.50000000  0.50000000  0.34887000  1.0 0.638583986
Zn  Zn8  1  0.00000000  0.00000000  0.84887000  1.0 0.638583986
P  P1  1  0.58682000  0.07580000  0.50000000  1.0 1.0814497451
P  P2  1  0.92420000  0.58682000  0.50000000  1.0 1.0814497451
P  P3  1  0.07580000  0.41318000  0.50000000  1.0 1.0814497451
P  P4  1  0.41318000  0.92420000  0.50000000  1.0 1.0814497451
P  P5  1  0.08682000  0.57580000  0.00000000  1.0 1.0814497451
P  P6  1  0.42420000  0.08682000  0.00000000  1.0 1.0814497451
P  P7  1  0.57580000  0.91318000  0.00000000  1.0 1.0814497451
P  P8  1  0.91318000  0.42420000  0.00000000  1.0 1.0814497451
H  H81  1  0.57323000  0.17677000  0.70639000  1.0 0.0948913599
H  H82  1  0.82323000  0.57323000  0.70639000  1.0 0.0948913599
H  H83  1  0.17677000  0.42677000  0.70639000  1.0 0.0948913599
H  H84  1  0.42677000  0.82323000  0.70639000  1.0 0.0948913599
H  H85  1  0.07323000  0.67677000  0.20640000  1.0 0.0948913599
H  H86  1  0.32323000  0.07323000  0.20640000  1.0 0.0948913599
H  H87  1  0.67677000  0.92677000  0.20640000  1.0 0.0948913599
H  H88  1  0.92677000  0.32323000  0.20640000  1.0 0.0948913599
H  H89  1  0.42677000  0.82323000  0.29361000  1.0 0.0948913599
H  H90  1  0.17677000  0.42677000  0.29361000  1.0 0.0948913599
H  H91  1  0.82323000  0.57323000  0.29361000  1.0 0.0948913599
H  H92  1  0.57323000  0.17677000  0.29361000  1.0 0.0948913599
H  H93  1  0.92677000  0.32323000  0.79361000  1.0 0.0948913599
H  H94  1  0.67677000  0.92677000  0.79361000  1.0 0.0948913599
H  H95  1  0.32323000  0.07323000  0.79361000  1.0 0.0948913599
H  H96  1  0.07323000  0.67677000  0.79361000  1.0 0.0948913599
H  H97  1  0.54963000  0.28897000  0.70831000  1.0 0.1306583177
H  H98  1  0.71103000  0.54963000  0.70831000  1.0 0.1306583177
H  H99  1  0.28897000  0.45037000  0.70831000  1.0 0.1306583177
H  H100  1  0.45037000  0.71103000  0.70831000  1.0 0.1306583177
H  H101  1  0.04963000  0.78897000  0.20831000  1.0 0.1306583177
H  H102  1  0.21103000  0.04963000  0.20831000  1.0 0.1306583177
H  H103  1  0.78897000  0.95037000  0.20831000  1.0 0.1306583177
H  H104  1  0.95037000  0.21103000  0.20831000  1.0 0.1306583177
H  H105  1  0.45037000  0.71103000  0.29169000  1.0 0.1306583177
H  H106  1  0.28897000  0.45037000  0.29169000  1.0 0.1306583177
H  H107  1  0.71103000  0.54963000  0.29169000  1.0 0.1306583177
H  H108  1  0.54963000  0.28897000  0.29169000  1.0 0.1306583177
H  H109  1  0.95037000  0.21103000  0.79169000  1.0 0.1306583177
H  H110  1  0.78897000  0.95037000  0.79169000  1.0 0.1306583177
H  H111  1  0.21103000  0.04963000  0.79169000  1.0 0.1306583177
H  H112  1  0.04963000  0.78897000  0.79169000  1.0 0.1306583177
H  H113  1  0.58173000  0.55679000  0.88526000  0.25 0.0550562422
H  H114  1  0.44321000  0.58173000  0.88526000  0.25 0.0550562422
H  H115  1  0.55679000  0.41827000  0.88526000  0.25 0.0550562422
H  H116  1  0.41827000  0.44321000  0.88526000  0.25 0.0550562422
H  H117  1  0.08173000  0.05679000  0.38526000  0.25 0.0550562422
H  H118  1  0.94321000  0.08173000  0.38526000  0.25 0.0550562422
H  H119  1  0.05679000  0.91827000  0.38526000  0.25 0.0550562422
H  H120  1  0.91827000  0.94321000  0.38526000  0.25 0.0550562422
H  H121  1  0.41827000  0.44321000  0.11474000  0.25 0.0550562422
H  H122  1  0.55679000  0.41827000  0.11474000  0.25 0.0550562422
H  H123  1  0.44321000  0.58173000  0.11474000  0.25 0.0550562422
H  H124  1  0.58173000  0.55679000  0.11474000  0.25 0.0550562422
H  H125  1  0.91827000  0.94321000  0.61474000  0.25 0.0550562422
H  H126  1  0.05679000  0.91827000  0.61474000  0.25 0.0550562422
H  H127  1  0.94321000  0.08173000  0.61474000  0.25 0.0550562422
H  H128  1  0.08173000  0.05679000  0.61474000  0.25 0.0550562422
H  H129  1  0.59864000  0.47964000  0.88526000  0.25 0.0520997649
H  H130  1  0.52036000  0.59864000  0.88526000  0.25 0.0520997649
H  H131  1  0.47964000  0.40136000  0.88526000  0.25 0.0520997649
H  H132  1  0.40136000  0.52036000  0.88526000  0.25 0.0520997649
H  H133  1  0.09864000  0.97964000  0.38526000  0.25 0.0520997649
H  H134  1  0.02036000  0.09864000  0.38526000  0.25 0.0520997649
H  H135  1  0.97964000  0.90136000  0.38526000  0.25 0.0520997649
H  H136  1  0.90136000  0.02036000  0.38526000  0.25 0.0520997649
H  H137  1  0.40136000  0.52036000  0.11474000  0.25 0.0520997649
H  H138  1  0.47964000  0.40136000  0.11474000  0.25 0.0520997649
H  H139  1  0.52036000  0.59864000  0.11474000  0.25 0.0520997649
H  H140  1  0.59864000  0.47964000  0.11474000  0.25 0.0520997649
H  H141  1  0.90136000  0.02036000  0.61474000  0.25 0.0520997649
H  H142  1  0.97964000  0.90136000  0.61474000  0.25 0.0520997649
H  H143  1  0.02036000  0.09864000  0.61474000  0.25 0.0520997649
H  H144  1  0.09864000  0.97964000  0.61474000  0.25 0.0520997649
H  H145  1  0.41189000  0.55124000  0.87901000  0.25 0.0405755497
H  H146  1  0.44876000  0.41189000  0.87901000  0.25 0.0405755497
H  H147  1  0.55124000  0.58811000  0.87901000  0.25 0.0405755497
H  H148  1  0.58811000  0.44876000  0.87901000  0.25 0.0405755497
H  H149  1  0.91189000  0.05124000  0.37901000  0.25 0.0405755497
H  H150  1  0.94876000  0.91189000  0.37901000  0.25 0.0405755497
H  H151  1  0.05124000  0.08811000  0.37901000  0.25 0.0405755497
H  H152  1  0.08811000  0.94876000  0.37901000  0.25 0.0405755497
H  H153  1  0.58811000  0.44876000  0.12099000  0.25 0.0405755497
H  H154  1  0.55124000  0.58811000  0.12099000  0.25 0.0405755497
H  H155  1  0.44876000  0.41189000  0.12099000  0.25 0.0405755497
H  H156  1  0.41189000  0.55124000  0.12099000  0.25 0.0405755497
H  H157  1  0.08811000  0.94876000  0.62099000  0.25 0.0405755497
H  H158  1  0.05124000  0.08811000  0.62099000  0.25 0.0405755497
H  H159  1  0.94876000  0.91189000  0.62099000  0.25 0.0405755497
H  H160  1  0.91189000  0.05124000  0.62099000  0.25 0.0405755497
H  H161  1  0.47472000  0.59941000  0.87901000  0.25 0.0405755497
H  H162  1  0.40059000  0.47472000  0.87901000  0.25 0.0405755497
H  H163  1  0.59941000  0.52528000  0.87901000  0.25 0.0405755497
H  H164  1  0.52528000  0.40059000  0.87901000  0.25 0.0405755497
H  H165  1  0.97472000  0.09941000  0.37901000  0.25 0.0405755497
H  H166  1  0.90059000  0.97472000  0.37901000  0.25 0.0405755497
H  H167  1  0.09941000  0.02528000  0.37901000  0.25 0.0405755497
H  H168  1  0.02528000  0.90059000  0.37901000  0.25 0.0405755497
H  H169  1  0.52528000  0.40059000  0.12099000  0.25 0.0405755497
H  H170  1  0.59941000  0.52528000  0.12099000  0.25 0.0405755497
H  H171  1  0.40059000  0.47472000  0.12099000  0.25 0.0405755497
H  H172  1  0.47472000  0.59941000  0.12099000  0.25 0.0405755497
H  H173  1  0.02528000  0.90059000  0.62099000  0.25 0.0405755497
H  H174  1  0.09941000  0.02528000  0.62099000  0.25 0.0405755497
H  H175  1  0.90059000  0.97472000  0.62099000  0.25 0.0405755497
H  H176  1  0.97472000  0.09941000  0.62099000  0.25 0.0405755497
H  H177  1  0.49884000  0.40089000  0.88834000  0.25 0.0520997649
H  H178  1  0.59911000  0.49884000  0.88834000  0.25 0.0520997649
H  H179  1  0.40089000  0.50116000  0.88834000  0.25 0.0520997649
H  H180  1  0.50116000  0.59911000  0.88834000  0.25 0.0520997649
H  H181  1  0.99884000  0.90089000  0.38834000  0.25 0.0520997649
H  H182  1  0.09911000  0.99884000  0.38834000  0.25 0.0520997649
H  H183  1  0.90089000  0.00116000  0.38834000  0.25 0.0520997649
H  H184  1  0.00116000  0.09911000  0.38834000  0.25 0.0520997649
H  H185  1  0.50116000  0.59911000  0.11166000  0.25 0.0520997649
H  H186  1  0.40089000  0.50116000  0.11166000  0.25 0.0520997649
H  H187  1  0.59911000  0.49884000  0.11166000  0.25 0.0520997649
H  H188  1  0.49884000  0.40089000  0.11166000  0.25 0.0520997649
H  H189  1  0.00116000  0.09911000  0.61166000  0.25 0.0520997649
H  H190  1  0.90089000  0.00116000  0.61166000  0.25 0.0520997649
H  H191  1  0.09911000  0.99884000  0.61166000  0.25 0.0520997649
H  H192  1  0.99884000  0.90089000  0.61166000  0.25 0.0520997649
H  H193  1  0.42697000  0.43354000  0.88834000  0.25 0.0520997649
H  H194  1  0.56646000  0.42697000  0.88834000  0.25 0.0520997649
H  H195  1  0.43354000  0.57303000  0.88834000  0.25 0.0520997649
H  H196  1  0.57303000  0.56646000  0.88834000  0.25 0.0520997649
H  H197  1  0.92697000  0.93354000  0.38834000  0.25 0.0520997649
H  H198  1  0.06646000  0.92697000  0.38834000  0.25 0.0520997649
H  H199  1  0.93354000  0.07303000  0.38834000  0.25 0.0520997649
H  H200  1  0.07303000  0.06646000  0.38834000  0.25 0.0520997649
H  H201  1  0.57303000  0.56646000  0.11166000  0.25 0.0520997649
H  H202  1  0.43354000  0.57303000  0.11166000  0.25 0.0520997649
H  H203  1  0.56646000  0.42697000  0.11166000  0.25 0.0520997649
H  H204  1  0.42697000  0.43354000  0.11166000  0.25 0.0520997649
H  H205  1  0.07303000  0.06646000  0.61166000  0.25 0.0520997649
H  H206  1  0.93354000  0.07303000  0.61166000  0.25 0.0520997649
H  H207  1  0.06646000  0.92697000  0.61166000  0.25 0.0520997649
H  H208  1  0.92697000  0.93354000  0.61166000  0.25 0.0520997649
H  H1  1  0.70337000  0.11764000  0.37248000  0.5 0.1785813317
H  H2  1  0.88236000  0.70337000  0.37248000  0.5 0.1785813317
H  H3  1  0.11764000  0.29663000  0.37248000  0.5 0.1785813317
H  H4  1  0.29663000  0.88236000  0.37248000  0.5 0.1785813317
H  H5  1  0.20337000  0.61764000  0.87248000  0.5 0.1785813317
H  H6  1  0.38236000  0.20337000  0.87248000  0.5 0.1785813317
H  H7  1  0.61764000  0.79663000  0.87248000  0.5 0.1785813317
H  H8  1  0.79663000  0.38236000  0.87248000  0.5 0.1785813317
H  H9  1  0.29663000  0.88236000  0.62752000  0.5 0.1785813317
H  H10  1  0.11764000  0.29663000  0.62752000  0.5 0.1785813317
H  H11  1  0.88236000  0.70337000  0.62752000  0.5 0.1785813317
H  H12  1  0.70337000  0.11764000  0.62752000  0.5 0.1785813317
H  H13  1  0.79663000  0.38236000  0.12752000  0.5 0.1785813317
H  H14  1  0.61764000  0.79663000  0.12752000  0.5 0.1785813317
H  H15  1  0.38236000  0.20337000  0.12752000  0.5 0.1785813317
H  H16  1  0.20337000  0.61764000  0.12752000  0.5 0.1785813317
H  H17  1  0.69018000  0.04203000  0.33678000  0.5 0.1876550418
H  H18  1  0.95797000  0.69018000  0.33678000  0.5 0.1876550418
H  H19  1  0.04203000  0.30982000  0.33678000  0.5 0.1876550418
H  H20  1  0.30982000  0.95797000  0.33678000  0.5 0.1876550418
H  H21  1  0.19018000  0.54203000  0.83678000  0.5 0.1876550418
H  H22  1  0.45797000  0.19018000  0.83678000  0.5 0.1876550418
H  H23  1  0.54203000  0.80982000  0.83678000  0.5 0.1876550418
H  H24  1  0.80982000  0.45797000  0.83678000  0.5 0.1876550418
H  H25  1  0.30982000  0.95797000  0.66322000  0.5 0.1876550418
H  H26  1  0.04203000  0.30982000  0.66322000  0.5 0.1876550418
H  H27  1  0.95797000  0.69018000  0.66322000  0.5 0.1876550418
H  H28  1  0.69018000  0.04203000  0.66322000  0.5 0.1876550418
H  H29  1  0.80982000  0.45797000  0.16322000  0.5 0.1876550418
H  H30  1  0.54203000  0.80982000  0.16322000  0.5 0.1876550418
H  H31  1  0.45797000  0.19018000  0.16322000  0.5 0.1876550418
H  H32  1  0.19018000  0.54203000  0.16322000  0.5 0.1876550418
H  H33  1  0.80409000  0.06066000  0.35877000  0.5 0.034902891
H  H34  1  0.93934000  0.80409000  0.35877000  0.5 0.034902891
H  H35  1  0.06066000  0.19591000  0.35877000  0.5 0.0405755497
H  H36  1  0.19591000  0.93934000  0.35877000  0.5 0.0405755497
H  H37  1  0.30409000  0.56066000  0.85877000  0.5 0.034902891
H  H38  1  0.43934000  0.30409000  0.85877000  0.5 0.034902891
H  H39  1  0.56066000  0.69591000  0.85877000  0.5 0.034902891
H  H40  1  0.69591000  0.43934000  0.85877000  0.5 0.034902891
H  H41  1  0.19591000  0.93934000  0.64123000  0.5 0.0405755497
H  H42  1  0.06066000  0.19591000  0.64123000  0.5 0.0405755497
H  H43  1  0.93934000  0.80409000  0.64123000  0.5 0.034902891
H  H44  1  0.80409000  0.06066000  0.64123000  0.5 0.034902891
H  H45  1  0.69591000  0.43934000  0.14123000  0.5 0.034902891
H  H46  1  0.56066000  0.69591000  0.14123000  0.5 0.034902891
H  H47  1  0.43934000  0.30409000  0.14123000  0.5 0.034902891
H  H48  1  0.30409000  0.56066000  0.14123000  0.5 0.034902891
H  H49  1  0.79386000  0.08675000  0.51243000  0.5 0.1118271629
H  H50  1  0.91325000  0.79386000  0.51243000  0.5 0.1118271629
H  H51  1  0.08675000  0.20614000  0.51243000  0.5 0.1118271629
H  H52  1  0.20614000  0.91325000  0.51243000  0.5 0.1118271629
H  H53  1  0.29386000  0.58675000  0.01243000  0.5 0.1118271629
H  H54  1  0.41325000  0.29386000  0.01243000  0.5 0.1118271629
H  H55  1  0.58675000  0.70614000  0.01243000  0.5 0.1118271629
H  H56  1  0.70614000  0.41325000  0.01243000  0.5 0.1118271629
H  H57  1  0.20614000  0.91325000  0.48757000  0.5 0.1118271629
H  H58  1  0.08675000  0.20614000  0.48757000  0.5 0.1118271629
H  H59  1  0.91325000  0.79386000  0.48757000  0.5 0.1118271629
H  H60  1  0.79386000  0.08675000  0.48757000  0.5 0.1118271629
H  H61  1  0.70614000  0.41325000  0.98757000  0.5 0.1118271629
H  H62  1  0.58675000  0.70614000  0.98757000  0.5 0.1118271629
H  H63  1  0.41325000  0.29386000  0.98757000  0.5 0.1118271629
H  H64  1  0.29386000  0.58675000  0.98757000  0.5 0.1118271629
H  H65  1  0.78065000  0.01105000  0.47668000  0.5 0.0984159502
H  H66  1  0.98895000  0.78065000  0.47668000  0.5 0.0984159502
H  H67  1  0.01105000  0.21935000  0.47668000  0.5 0.0984159502
H  H68  1  0.21935000  0.98895000  0.47668000  0.5 0.0984159502
H  H69  1  0.28065000  0.51105000  0.97668000  0.5 0.0984159502
H  H70  1  0.48895000  0.28065000  0.97668000  0.5 0.0984159502
H  H71  1  0.51105000  0.71935000  0.97668000  0.5 0.0984159502
H  H72  1  0.71935000  0.48895000  0.97668000  0.5 0.0984159502
H  H73  1  0.21935000  0.98895000  0.52332000  0.5 0.0984159502
H  H74  1  0.01105000  0.21935000  0.52332000  0.5 0.0984159502
H  H75  1  0.98895000  0.78065000  0.52332000  0.5 0.0984159502
H  H76  1  0.78065000  0.01105000  0.52332000  0.5 0.0984159502
H  H77  1  0.71935000  0.48895000  0.02332000  0.5 0.0984159502
H  H78  1  0.51105000  0.71935000  0.02332000  0.5 0.0984159502
H  H79  1  0.48895000  0.28065000  0.02332000  0.5 0.0984159502
H  H80  1  0.28065000  0.51105000  0.02332000  0.5 0.0984159502
C  C33  1  0.57120000  0.16410000  0.50000000  1.0 -0.227418216
C  C34  1  0.83590000  0.57120000  0.50000000  1.0 -0.227418216
C  C35  1  0.16410000  0.42880000  0.50000000  1.0 -0.227418216
C  C36  1  0.42880000  0.83590000  0.50000000  1.0 -0.227418216
C  C37  1  0.07120000  0.66410000  0.00000000  1.0 -0.227418216
C  C38  1  0.33590000  0.07120000  0.00000000  1.0 -0.227418216
C  C39  1  0.66410000  0.92880000  0.00000000  1.0 -0.227418216
C  C40  1  0.92880000  0.33590000  0.00000000  1.0 -0.227418216
C  C41  1  0.56700000  0.19920000  0.62180000  1.0 -0.1219936562
C  C42  1  0.80080000  0.56700000  0.62180000  1.0 -0.1219936562
C  C43  1  0.19920000  0.43300000  0.62180000  1.0 -0.1219936562
C  C44  1  0.43300000  0.80080000  0.62180000  1.0 -0.1219936562
C  C45  1  0.06700000  0.69920000  0.12180000  1.0 -0.1219936562
C  C46  1  0.30080000  0.06700000  0.12180000  1.0 -0.1219936562
C  C47  1  0.69920000  0.93300000  0.12180000  1.0 -0.1219936562
C  C48  1  0.93300000  0.30080000  0.12180000  1.0 -0.1219936562
C  C49  1  0.43300000  0.80080000  0.37820000  1.0 -0.1219936562
C  C50  1  0.19920000  0.43300000  0.37820000  1.0 -0.1219936562
C  C51  1  0.80080000  0.56700000  0.37820000  1.0 -0.1219936562
C  C52  1  0.56700000  0.19920000  0.37820000  1.0 -0.1219936562
C  C53  1  0.93300000  0.30080000  0.87820000  1.0 -0.1219936562
C  C54  1  0.69920000  0.93300000  0.87820000  1.0 -0.1219936562
C  C55  1  0.30080000  0.06700000  0.87820000  1.0 -0.1219936562
C  C56  1  0.06700000  0.69920000  0.87820000  1.0 -0.1219936562
C  C57  1  0.55400000  0.26640000  0.62330000  1.0 -0.1989096124
C  C58  1  0.73360000  0.55400000  0.62330000  1.0 -0.1989096124
C  C59  1  0.26640000  0.44600000  0.62330000  1.0 -0.1989096124
C  C60  1  0.44600000  0.73360000  0.62330000  1.0 -0.1989096124
C  C61  1  0.05400000  0.76640000  0.12330000  1.0 -0.1989096124
C  C62  1  0.23360000  0.05400000  0.12330000  1.0 -0.1989096124
C  C63  1  0.76640000  0.94600000  0.12330000  1.0 -0.1989096124
C  C64  1  0.94600000  0.23360000  0.12330000  1.0 -0.1989096124
C  C65  1  0.44600000  0.73360000  0.37670000  1.0 -0.1989096124
C  C66  1  0.26640000  0.44600000  0.37670000  1.0 -0.1989096124
C  C67  1  0.73360000  0.55400000  0.37670000  1.0 -0.1989096124
C  C68  1  0.55400000  0.26640000  0.37670000  1.0 -0.1989096124
C  C69  1  0.94600000  0.23360000  0.87670000  1.0 -0.1989096124
C  C70  1  0.76640000  0.94600000  0.87670000  1.0 -0.1989096124
C  C71  1  0.23360000  0.05400000  0.87670000  1.0 -0.1989096124
C  C72  1  0.05400000  0.76640000  0.87670000  1.0 -0.1989096124
C  C73  1  0.54730000  0.30070000  0.50000000  1.0 0.034902891
C  C74  1  0.69930000  0.54730000  0.50000000  1.0 0.034902891
C  C75  1  0.30070000  0.45270000  0.50000000  1.0 0.034902891
C  C76  1  0.45270000  0.69930000  0.50000000  1.0 0.034902891
C  C77  1  0.04730000  0.80070000  0.00000000  1.0 0.034902891
C  C78  1  0.19930000  0.04730000  0.00000000  1.0 0.034902891
C  C79  1  0.80070000  0.95270000  0.00000000  1.0 0.034902891
C  C80  1  0.95270000  0.19930000  0.00000000  1.0 0.0405755497
C  C81  1  0.53080000  0.37560000  0.50000000  1.0 0.1698093767
C  C82  1  0.62440000  0.53080000  0.50000000  1.0 0.1698093767
C  C83  1  0.37560000  0.46920000  0.50000000  1.0 0.1698093767
C  C84  1  0.46920000  0.62440000  0.50000000  1.0 0.1698093767
C  C85  1  0.03080000  0.87560000  0.00000000  1.0 0.1698093767
C  C86  1  0.12440000  0.03080000  0.00000000  1.0 0.1698093767
C  C87  1  0.87560000  0.96920000  0.00000000  1.0 0.1698093767
C  C88  1  0.96920000  0.12440000  0.00000000  1.0 0.1698093767
C  C89  1  0.56750000  0.51300000  0.92000000  0.25 -0.0807729175
C  C90  1  0.48700000  0.56750000  0.92000000  0.25 -0.0807729175
C  C91  1  0.51300000  0.43250000  0.92000000  0.25 -0.0807729175
C  C92  1  0.43250000  0.48700000  0.92000000  0.25 -0.0807729175
C  C93  1  0.06750000  0.01300000  0.42000000  0.25 -0.0807729175
C  C94  1  0.98700000  0.06750000  0.42000000  0.25 -0.0807729175
C  C95  1  0.01300000  0.93250000  0.42000000  0.25 -0.0807729175
C  C96  1  0.93250000  0.98700000  0.42000000  0.25 -0.0807729175
C  C97  1  0.43250000  0.48700000  0.08000000  0.25 -0.0807729175
C  C98  1  0.51300000  0.43250000  0.08000000  0.25 -0.0807729175
C  C99  1  0.48700000  0.56750000  0.08000000  0.25 -0.0807729175
C  C100  1  0.56750000  0.51300000  0.08000000  0.25 -0.0807729175
C  C101  1  0.93250000  0.98700000  0.58000000  0.25 -0.0807729175
C  C102  1  0.01300000  0.93250000  0.58000000  0.25 -0.0807729175
C  C103  1  0.98700000  0.06750000  0.58000000  0.25 -0.0807729175
C  C104  1  0.06750000  0.01300000  0.58000000  0.25 -0.0807729175
C  C105  1  0.45700000  0.55730000  0.91500000  0.25 -0.0858690036
C  C106  1  0.44270000  0.45700000  0.91500000  0.25 -0.0858690036
C  C107  1  0.55730000  0.54300000  0.91500000  0.25 -0.0858690036
C  C108  1  0.54300000  0.44270000  0.91500000  0.25 -0.0858690036
C  C109  1  0.95700000  0.05730000  0.41500000  0.25 -0.0858690036
C  C110  1  0.94270000  0.95700000  0.41500000  0.25 -0.0858690036
C  C111  1  0.05730000  0.04300000  0.41500000  0.25 -0.0858690036
C  C112  1  0.04300000  0.94270000  0.41500000  0.25 -0.0858690036
C  C113  1  0.54300000  0.44270000  0.08500000  0.25 -0.0858690036
C  C114  1  0.55730000  0.54300000  0.08500000  0.25 -0.0858690036
C  C115  1  0.44270000  0.45700000  0.08500000  0.25 -0.0858690036
C  C116  1  0.45700000  0.55730000  0.08500000  0.25 -0.0858690036
C  C117  1  0.04300000  0.94270000  0.58500000  0.25 -0.0858690036
C  C118  1  0.05730000  0.04300000  0.58500000  0.25 -0.0858690036
C  C119  1  0.94270000  0.95700000  0.58500000  0.25 -0.0858690036
C  C120  1  0.95700000  0.05730000  0.58500000  0.25 -0.0858690036
C  C121  1  0.47300000  0.43840000  0.92300000  0.25 -0.0807729175
C  C122  1  0.56160000  0.47300000  0.92300000  0.25 -0.0807729175
C  C123  1  0.43840000  0.52700000  0.92300000  0.25 -0.0807729175
C  C124  1  0.52700000  0.56160000  0.92300000  0.25 -0.0807729175
C  C125  1  0.97300000  0.93840000  0.42300000  0.25 -0.0807729175
C  C126  1  0.06160000  0.97300000  0.42300000  0.25 -0.0807729175
C  C127  1  0.93840000  0.02700000  0.42300000  0.25 -0.0807729175
C  C128  1  0.02700000  0.06160000  0.42300000  0.25 -0.0807729175
C  C129  1  0.52700000  0.56160000  0.07700000  0.25 -0.0807729175
C  C130  1  0.43840000  0.52700000  0.07700000  0.25 -0.0807729175
C  C131  1  0.56160000  0.47300000  0.07700000  0.25 -0.0807729175
C  C132  1  0.47300000  0.43840000  0.07700000  0.25 -0.0807729175
C  C133  1  0.02700000  0.06160000  0.57700000  0.25 -0.0807729175
C  C134  1  0.93840000  0.02700000  0.57700000  0.25 -0.0807729175
C  C135  1  0.06160000  0.97300000  0.57700000  0.25 -0.0807729175
C  C136  1  0.97300000  0.93840000  0.57700000  0.25 -0.0807729175
C  C1  1  0.70570000  0.07230000  0.41000000  0.5 0.1306583177
C  C2  1  0.92770000  0.70570000  0.41000000  0.5 0.1306583177
C  C3  1  0.07230000  0.29430000  0.41000000  0.5 0.1306583177
C  C4  1  0.29430000  0.92770000  0.41000000  0.5 0.1306583177
C  C5  1  0.20570000  0.57230000  0.91000000  0.5 0.1306583177
C  C6  1  0.42770000  0.20570000  0.91000000  0.5 0.1306583177
C  C7  1  0.57230000  0.79430000  0.91000000  0.5 0.1306583177
C  C8  1  0.79430000  0.42770000  0.91000000  0.5 0.1306583177
C  C9  1  0.29430000  0.92770000  0.59000000  0.5 0.1306583177
C  C10  1  0.07230000  0.29430000  0.59000000  0.5 0.1306583177
C  C11  1  0.92770000  0.70570000  0.59000000  0.5 0.1306583177
C  C12  1  0.70570000  0.07230000  0.59000000  0.5 0.1306583177
C  C13  1  0.79430000  0.42770000  0.09000000  0.5 0.1306583177
C  C14  1  0.57230000  0.79430000  0.09000000  0.5 0.1306583177
C  C15  1  0.42770000  0.20570000  0.09000000  0.5 0.1306583177
C  C16  1  0.20570000  0.57230000  0.09000000  0.5 0.1306583177
C  C17  1  0.77750000  0.05630000  0.44200000  0.5 -0.2814386972
C  C18  1  0.94370000  0.77750000  0.44200000  0.5 -0.2814386972
C  C19  1  0.05630000  0.22250000  0.44200000  0.5 -0.2814386972
C  C20  1  0.22250000  0.94370000  0.44200000  0.5 -0.2814386972
C  C21  1  0.27750000  0.55630000  0.94200000  0.5 -0.2814386972
C  C22  1  0.44370000  0.27750000  0.94200000  0.5 -0.2814386972
C  C23  1  0.55630000  0.72250000  0.94200000  0.5 -0.2814386972
C  C24  1  0.72250000  0.44370000  0.94200000  0.5 -0.2814386972
C  C25  1  0.22250000  0.94370000  0.55800000  0.5 -0.2814386972
C  C26  1  0.05630000  0.22250000  0.55800000  0.5 -0.2814386972
C  C27  1  0.94370000  0.77750000  0.55800000  0.5 -0.2814386972
C  C28  1  0.77750000  0.05630000  0.55800000  0.5 -0.2814386972
C  C29  1  0.72250000  0.44370000  0.05800000  0.5 -0.2814386972
C  C30  1  0.55630000  0.72250000  0.05800000  0.5 -0.2814386972
C  C31  1  0.44370000  0.27750000  0.05800000  0.5 -0.2814386972
C  C32  1  0.27750000  0.55630000  0.05800000  0.5 -0.2814386972
N  N1  1  0.50000000  0.50000000  0.86500000  1.0 -0.1219936562
N  N2  1  0.00000000  0.00000000  0.36500000  1.0 -0.1219936562
N  N3  1  0.50000000  0.50000000  0.13500000  1.0 -0.1219936562
N  N4  1  0.00000000  0.00000000  0.63500000  1.0 -0.1219936562
O  O1  1  0.56330000  0.04640000  0.63430000  1.0 -0.7502788325
O  O2  1  0.95360000  0.56330000  0.63430000  1.0 -0.7502788325
O  O3  1  0.04640000  0.43670000  0.63430000  1.0 -0.7502788325
O  O4  1  0.43670000  0.95360000  0.63430000  1.0 -0.7502788325
O  O5  1  0.06330000  0.54640000  0.13430000  1.0 -0.7502788325
O  O6  1  0.45360000  0.06330000  0.13430000  1.0 -0.7502788325
O  O7  1  0.54640000  0.93670000  0.13430000  1.0 -0.7502788325
O  O8  1  0.93670000  0.45360000  0.13430000  1.0 -0.7502788325
O  O9  1  0.43670000  0.95360000  0.36570000  1.0 -0.7502788325
O  O10  1  0.04640000  0.43670000  0.36570000  1.0 -0.7502788325
O  O11  1  0.95360000  0.56330000  0.36570000  1.0 -0.7502788325
O  O12  1  0.56330000  0.04640000  0.36570000  1.0 -0.7502788325
O  O13  1  0.93670000  0.45360000  0.86570000  1.0 -0.7502788325
O  O14  1  0.54640000  0.93670000  0.86570000  1.0 -0.7502788325
O  O15  1  0.45360000  0.06330000  0.86570000  1.0 -0.7502788325
O  O16  1  0.06330000  0.54640000  0.86570000  1.0 -0.7502788325
O  O33  1  0.52480000  0.40310000  0.61490000  1.0 -0.4708624744
O  O34  1  0.59690000  0.52480000  0.61490000  1.0 -0.4708624744
O  O35  1  0.40310000  0.47520000  0.61490000  1.0 -0.4708624744
O  O36  1  0.47520000  0.59690000  0.61490000  1.0 -0.4708624744
O  O37  1  0.02480000  0.90310000  0.11490000  1.0 -0.4708624744
O  O38  1  0.09690000  0.02480000  0.11490000  1.0 -0.4708624744
O  O39  1  0.90310000  0.97520000  0.11490000  1.0 -0.4708624744
O  O40  1  0.97520000  0.09690000  0.11490000  1.0 -0.4708624744
O  O41  1  0.47520000  0.59690000  0.38510000  1.0 -0.4708624744
O  O42  1  0.40310000  0.47520000  0.38510000  1.0 -0.4708624744
O  O43  1  0.59690000  0.52480000  0.38510000  1.0 -0.4708624744
O  O44  1  0.52480000  0.40310000  0.38510000  1.0 -0.4708624744
O  O45  1  0.97520000  0.09690000  0.88510000  1.0 -0.4708624744
O  O46  1  0.90310000  0.97520000  0.88510000  1.0 -0.4708624744
O  O47  1  0.09690000  0.02480000  0.88510000  1.0 -0.4708624744
O  O48  1  0.02480000  0.90310000  0.88510000  1.0 -0.4708624744
O  O17  1  0.66260000  0.06750000  0.52410000  0.5 -0.1125553419
O  O18  1  0.93250000  0.66260000  0.52410000  0.5 -0.1125553419
O  O19  1  0.06750000  0.33740000  0.52410000  0.5 -0.1125553419
O  O20  1  0.33740000  0.93250000  0.52410000  0.5 -0.1125553419
O  O21  1  0.16260000  0.56750000  0.02410000  0.5 -0.1125553419
O  O22  1  0.43250000  0.16260000  0.02410000  0.5 -0.1125553419
O  O23  1  0.56750000  0.83740000  0.02410000  0.5 -0.1125553419
O  O24  1  0.83740000  0.43250000  0.02410000  0.5 -0.1125553419
O  O25  1  0.33740000  0.93250000  0.47590000  0.5 -0.1125553419
O  O26  1  0.06750000  0.33740000  0.47590000  0.5 -0.1125553419
O  O27  1  0.93250000  0.66260000  0.47590000  0.5 -0.1125553419
O  O28  1  0.66260000  0.06750000  0.47590000  0.5 -0.1125553419
O  O29  1  0.83740000  0.43250000  0.97590000  0.5 -0.1125553419
O  O30  1  0.56750000  0.83740000  0.97590000  0.5 -0.1125553419
O  O31  1  0.43250000  0.16260000  0.97590000  0.5 -0.1125553419
O  O32  1  0.16260000  0.56750000  0.97590000  0.5 -0.1125553419
