# DDEC6 charges by PACMAN v1.1 (https://github.com/mtap-research/PACMAN-charge/)
data_2020[Fe][nuc]3[ASR]1
_chemical_formula_sum              "Fe12 H120 C192 N48 O52"
_cell_length_a       19.519
_cell_length_b       19.519
_cell_length_c       49.1068
_cell_angle_alpha    90
_cell_angle_beta     90
_cell_angle_gamma    90

_symmetry_space_group_name_H-M    "P 1"
_symmetry_Int_Tables_number       1

loop_
  _symmetry_equiv_pos_as_xyz
  'x, y, z'

loop_
  _atom_site_type_symbol
  _atom_site_label
  _atom_site_symmetry_multiplicity
  _atom_site_fract_x
  _atom_site_fract_y
  _atom_site_fract_z
  _atom_site_occupancy
  _atom_site_charge
Fe  Fe1       1.0  0.46911  0.43315  0.53166  1.0000 1.1724040991
Fe  Fe2       1.0  0.53089  0.56685  0.03166  1.0000 1.1724040991
Fe  Fe3       1.0  0.06685  0.96911  0.78166  1.0000 1.1724040991
Fe  Fe4       1.0  0.93315  0.03089  0.28166  1.0000 1.1724040991
Fe  Fe5       1.0  0.03089  0.93315  0.71834  1.0000 1.1724040991
Fe  Fe6       1.0  0.96911  0.06685  0.21834  1.0000 1.1724040991
Fe  Fe7       1.0  0.43315  0.46911  0.46834  1.0000 1.1724040991
Fe  Fe8       1.0  0.56685  0.53089  0.96834  1.0000 1.1724040991
Fe  Fe9       1.0  0.55676  0.55676  0.50000  1.0000 1.2143325096
Fe  Fe10      1.0  0.44324  0.44324  0.00000  1.0000 1.2157252317
Fe  Fe11      1.0  0.94324  0.05676  0.75000  1.0000 1.2143325096
Fe  Fe12      1.0  0.05676  0.94324  0.25000  1.0000 1.2157252317
H   H1        1.0  0.39500  0.56750  0.59490  1.0000 0.1359969562
H   H2        1.0  0.60500  0.43250  0.09490  1.0000 0.1359969562
H   H3        1.0  0.93250  0.89500  0.84490  1.0000 0.1359969562
H   H4        1.0  0.06750  0.10500  0.34490  1.0000 0.1359969562
H   H5        1.0  0.10500  0.06750  0.65510  1.0000 0.1359969562
H   H6        1.0  0.89500  0.93250  0.15510  1.0000 0.1359969562
H   H7        1.0  0.56750  0.39500  0.40510  1.0000 0.1359969562
H   H8        1.0  0.43250  0.60500  0.90510  1.0000 0.1359969562
H   H9        1.0  0.37060  0.64490  0.62820  1.0000 0.1241822092
H   H10       1.0  0.62940  0.35510  0.12820  1.0000 0.1241822092
H   H11       1.0  0.85510  0.87060  0.87820  1.0000 0.1241822092
H   H12       1.0  0.14490  0.12940  0.37820  1.0000 0.1241822092
H   H13       1.0  0.12940  0.14490  0.62180  1.0000 0.1241822092
H   H14       1.0  0.87060  0.85510  0.12180  1.0000 0.1241822092
H   H15       1.0  0.64490  0.37060  0.37180  1.0000 0.1241822092
H   H16       1.0  0.35510  0.62940  0.87180  1.0000 0.1241822092
H   H17       1.0  0.53060  0.76000  0.60570  1.0000 0.1241822092
H   H18       1.0  0.46940  0.24000  0.10570  1.0000 0.1241822092
H   H19       1.0  0.74000  0.03060  0.85570  1.0000 0.1241822092
H   H20       1.0  0.26000  0.96940  0.35570  1.0000 0.1241822092
H   H21       1.0  0.96940  0.26000  0.64430  1.0000 0.1241822092
H   H22       1.0  0.03060  0.74000  0.14430  1.0000 0.1241822092
H   H23       1.0  0.76000  0.53060  0.39430  1.0000 0.1241822092
H   H24       1.0  0.24000  0.46940  0.89430  1.0000 0.1241822092
H   H25       1.0  0.54730  0.68780  0.56980  1.0000 0.1273044751
H   H26       1.0  0.45270  0.31220  0.06980  1.0000 0.1273044751
H   H27       1.0  0.81220  0.04730  0.81980  1.0000 0.1273044751
H   H28       1.0  0.18780  0.95270  0.31980  1.0000 0.1273044751
H   H29       1.0  0.95270  0.18780  0.68020  1.0000 0.1273044751
H   H30       1.0  0.04730  0.81220  0.18020  1.0000 0.1273044751
H   H31       1.0  0.68780  0.54730  0.43020  1.0000 0.1273044751
H   H32       1.0  0.31220  0.45270  0.93020  1.0000 0.1273044751
H   H33       1.0  0.76760  0.80680  0.65990  1.0000 0.1273044751
H   H34       1.0  0.23240  0.19320  0.15990  1.0000 0.1273044751
H   H35       1.0  0.69320  0.26760  0.90990  1.0000 0.1273044751
H   H36       1.0  0.30680  0.73240  0.40990  1.0000 0.1273044751
H   H37       1.0  0.73240  0.30680  0.59010  1.0000 0.1273044751
H   H38       1.0  0.26760  0.69320  0.09010  1.0000 0.1273044751
H   H39       1.0  0.80680  0.76760  0.34010  1.0000 0.1273044751
H   H40       1.0  0.19320  0.23240  0.84010  1.0000 0.1273044751
H   H41       1.0  0.86190  0.85660  0.67850  1.0000 0.1273044751
H   H42       1.0  0.13810  0.14340  0.17850  1.0000 0.1273044751
H   H43       1.0  0.64340  0.36190  0.92850  1.0000 0.1273044751
H   H44       1.0  0.35660  0.63810  0.42850  1.0000 0.1273044751
H   H45       1.0  0.63810  0.35660  0.57150  1.0000 0.1273044751
H   H46       1.0  0.36190  0.64340  0.07150  1.0000 0.1273044751
H   H47       1.0  0.85660  0.86190  0.32150  1.0000 0.1273044751
H   H48       1.0  0.14340  0.13810  0.82150  1.0000 0.1273044751
H   H49       1.0  0.74630  0.97640  0.72330  1.0000 0.1273044751
H   H50       1.0  0.25370  0.02360  0.22330  1.0000 0.1273044751
H   H51       1.0  0.52360  0.24630  0.97330  1.0000 0.1273044751
H   H52       1.0  0.47640  0.75370  0.47330  1.0000 0.1273044751
H   H53       1.0  0.75370  0.47640  0.52670  1.0000 0.1273044751
H   H54       1.0  0.24630  0.52360  0.02670  1.0000 0.1273044751
H   H55       1.0  0.97640  0.74630  0.27670  1.0000 0.1273044751
H   H56       1.0  0.02360  0.25370  0.77670  1.0000 0.1273044751
H   H57       1.0  0.65060  0.92980  0.70380  1.0000 0.1273044751
H   H58       1.0  0.34940  0.07020  0.20380  1.0000 0.1273044751
H   H59       1.0  0.57020  0.15060  0.95380  1.0000 0.1273044751
H   H60       1.0  0.42980  0.84940  0.45380  1.0000 0.1273044751
H   H61       1.0  0.84940  0.42980  0.54620  1.0000 0.1273044751
H   H62       1.0  0.15060  0.57020  0.04620  1.0000 0.1273044751
H   H63       1.0  0.92980  0.65060  0.29620  1.0000 0.1273044751
H   H64       1.0  0.07020  0.34940  0.79620  1.0000 0.1273044751
H   H65       1.0  0.34180  0.89010  0.68160  1.0000 0.1241822092
H   H66       1.0  0.65820  0.10990  0.18160  1.0000 0.1241822092
H   H67       1.0  0.60990  0.84180  0.93160  1.0000 0.1241822092
H   H68       1.0  0.39010  0.15820  0.43160  1.0000 0.1241822092
H   H69       1.0  0.15820  0.39010  0.56840  1.0000 0.1241822092
H   H70       1.0  0.84180  0.60990  0.06840  1.0000 0.1241822092
H   H71       1.0  0.89010  0.34180  0.31840  1.0000 0.1241822092
H   H72       1.0  0.10990  0.65820  0.81840  1.0000 0.1241822092
H   H73       1.0  0.22930  0.91080  0.69480  1.0000 0.1241822092
H   H74       1.0  0.77070  0.08920  0.19480  1.0000 0.1241822092
H   H75       1.0  0.58920  0.72930  0.94480  1.0000 0.1241822092
H   H76       1.0  0.41080  0.27070  0.44480  1.0000 0.1241822092
H   H77       1.0  0.27070  0.41080  0.55520  1.0000 0.1241822092
H   H78       1.0  0.72930  0.58920  0.05520  1.0000 0.1241822092
H   H79       1.0  0.91080  0.22930  0.30520  1.0000 0.1241822092
H   H80       1.0  0.08920  0.77070  0.80520  1.0000 0.1241822092
H   H81       1.0  0.29290  0.98140  0.76660  1.0000 0.1273044751
H   H82       1.0  0.70710  0.01860  0.26660  1.0000 0.1273044751
H   H83       1.0  0.51860  0.79290  0.01660  1.0000 0.1273044751
H   H84       1.0  0.48140  0.20710  0.51660  1.0000 0.1273044751
H   H85       1.0  0.20710  0.48140  0.48340  1.0000 0.1273044751
H   H86       1.0  0.79290  0.51860  0.98340  1.0000 0.1273044751
H   H87       1.0  0.98140  0.29290  0.23340  1.0000 0.1273044751
H   H88       1.0  0.01860  0.70710  0.73340  1.0000 0.1273044751
H   H89       1.0  0.40340  0.95880  0.75470  1.0000 0.1273044751
H   H90       1.0  0.59660  0.04120  0.25470  1.0000 0.1273044751
H   H91       1.0  0.54120  0.90340  0.00470  1.0000 0.1273044751
H   H92       1.0  0.45880  0.09660  0.50470  1.0000 0.1273044751
H   H93       1.0  0.09660  0.45880  0.49530  1.0000 0.1273044751
H   H94       1.0  0.90340  0.54120  0.99530  1.0000 0.1273044751
H   H95       1.0  0.95880  0.40340  0.24530  1.0000 0.1273044751
H   H96       1.0  0.04120  0.59660  0.74530  1.0000 0.1273044751
H   H97       1.0  0.65580  0.80830  0.65180  1.0000 0.2906991862
H   H98       1.0  0.34420  0.19170  0.15180  1.0000 0.2906991862
H   H99       1.0  0.69170  0.15580  0.90180  1.0000 0.2906991862
H   H100      1.0  0.30830  0.84420  0.40180  1.0000 0.2906991862
H   H101      1.0  0.84420  0.30830  0.59820  1.0000 0.2906991862
H   H102      1.0  0.15580  0.69170  0.09820  1.0000 0.2906991862
H   H103      1.0  0.80830  0.65580  0.34820  1.0000 0.2906991862
H   H104      1.0  0.19170  0.34420  0.84820  1.0000 0.2906991862
H   H105      1.0  0.48110  0.93400  0.72080  1.0000 0.2906991862
H   H106      1.0  0.51890  0.06600  0.22080  1.0000 0.2906991862
H   H107      1.0  0.56600  0.98110  0.97080  1.0000 0.2906991862
H   H108      1.0  0.43400  0.01890  0.47080  1.0000 0.2906991862
H   H109      1.0  0.01890  0.43400  0.52920  1.0000 0.2906991862
H   H110      1.0  0.98110  0.56600  0.02920  1.0000 0.2906991862
H   H111      1.0  0.93400  0.48110  0.27920  1.0000 0.2906991862
H   H112      1.0  0.06600  0.51890  0.77920  1.0000 0.2906991862
H   H113      1.0  0.39080  0.75380  0.64780  1.0000 0.2906991862
H   H114      1.0  0.60920  0.24620  0.14780  1.0000 0.2906991862
H   H115      1.0  0.74620  0.89080  0.89780  1.0000 0.2906991862
H   H116      1.0  0.25380  0.10920  0.39780  1.0000 0.2906991862
H   H117      1.0  0.10920  0.25380  0.60220  1.0000 0.2906991862
H   H118      1.0  0.89080  0.74620  0.10220  1.0000 0.2906991862
H   H119      1.0  0.75380  0.39080  0.35220  1.0000 0.2906991862
H   H120      1.0  0.24620  0.60920  0.85220  1.0000 0.2906991862
C   C1        1.0  0.48720  0.57180  0.55492  1.0000 0.5999295598
C   C2        1.0  0.51280  0.42820  0.05492  1.0000 0.5999295598
C   C3        1.0  0.92820  0.98720  0.80492  1.0000 0.5999295598
C   C4        1.0  0.07180  0.01280  0.30492  1.0000 0.5999295598
C   C5        1.0  0.01280  0.07180  0.69508  1.0000 0.5999295598
C   C6        1.0  0.98720  0.92820  0.19508  1.0000 0.5999295598
C   C7        1.0  0.57180  0.48720  0.44508  1.0000 0.5999295598
C   C8        1.0  0.42820  0.51280  0.94508  1.0000 0.5999295598
C   C9        1.0  0.47240  0.62060  0.57772  1.0000 -0.0500720578
C   C10       1.0  0.52760  0.37940  0.07772  1.0000 -0.0500720578
C   C11       1.0  0.87940  0.97240  0.82772  1.0000 -0.0500720578
C   C12       1.0  0.12060  0.02760  0.32772  1.0000 -0.0500720578
C   C13       1.0  0.02760  0.12060  0.67228  1.0000 -0.0500720578
C   C14       1.0  0.97240  0.87940  0.17228  1.0000 -0.0500720578
C   C15       1.0  0.62060  0.47240  0.42228  1.0000 -0.0500720578
C   C16       1.0  0.37940  0.52760  0.92228  1.0000 -0.0500720578
C   C17       1.0  0.42070  0.60750  0.59629  1.0000 -0.0750024134
C   C18       1.0  0.57930  0.39250  0.09629  1.0000 -0.0750024134
C   C19       1.0  0.89250  0.92070  0.84629  1.0000 -0.0685133111
C   C20       1.0  0.10750  0.07930  0.34629  1.0000 -0.0750024134
C   C21       1.0  0.07930  0.10750  0.65371  1.0000 -0.0750024134
C   C22       1.0  0.92070  0.89250  0.15371  1.0000 -0.0750024134
C   C23       1.0  0.60750  0.42070  0.40371  1.0000 -0.0750024134
C   C24       1.0  0.39250  0.57930  0.90371  1.0000 -0.0685133111
C   C25       1.0  0.40720  0.65320  0.61655  1.0000 -0.1954051929
C   C26       1.0  0.59280  0.34680  0.11655  1.0000 -0.1954051929
C   C27       1.0  0.84680  0.90720  0.86655  1.0000 -0.1954051929
C   C28       1.0  0.15320  0.09280  0.36655  1.0000 -0.1954051929
C   C29       1.0  0.09280  0.15320  0.63345  1.0000 -0.1954051929
C   C30       1.0  0.90720  0.84680  0.13345  1.0000 -0.1954051929
C   C31       1.0  0.65320  0.40720  0.38345  1.0000 -0.1954051929
C   C32       1.0  0.34680  0.59280  0.88345  1.0000 -0.1954051929
C   C33       1.0  0.44760  0.71310  0.62039  1.0000 0.2210328465
C   C34       1.0  0.55240  0.28690  0.12039  1.0000 0.2210328465
C   C35       1.0  0.78690  0.94760  0.87039  1.0000 0.2210328465
C   C36       1.0  0.21310  0.05240  0.37039  1.0000 0.2210328465
C   C37       1.0  0.05240  0.21310  0.62961  1.0000 0.2210328465
C   C38       1.0  0.94760  0.78690  0.12961  1.0000 0.2210328465
C   C39       1.0  0.71310  0.44760  0.37961  1.0000 0.2210328465
C   C40       1.0  0.28690  0.55240  0.87961  1.0000 0.2210328465
C   C41       1.0  0.50120  0.72310  0.60310  1.0000 -0.1875751905
C   C42       1.0  0.49880  0.27690  0.10310  1.0000 -0.1875751905
C   C43       1.0  0.77690  0.00120  0.85310  1.0000 -0.1875751905
C   C44       1.0  0.22310  0.99880  0.35310  1.0000 -0.1875751905
C   C45       1.0  0.99880  0.22310  0.64690  1.0000 -0.1875751905
C   C46       1.0  0.00120  0.77690  0.14690  1.0000 -0.1875751905
C   C47       1.0  0.72310  0.50120  0.39690  1.0000 -0.1875751905
C   C48       1.0  0.27690  0.49880  0.89690  1.0000 -0.1875751905
C   C49       1.0  0.51190  0.67860  0.58196  1.0000 -0.0685133111
C   C50       1.0  0.48810  0.32140  0.08196  1.0000 -0.0750024134
C   C51       1.0  0.82140  0.01190  0.83196  1.0000 -0.0685133111
C   C52       1.0  0.17860  0.98810  0.33196  1.0000 -0.0750024134
C   C53       1.0  0.98810  0.17860  0.66804  1.0000 -0.0685133111
C   C54       1.0  0.01190  0.82140  0.16804  1.0000 -0.0750024134
C   C55       1.0  0.67860  0.51190  0.41804  1.0000 -0.0750024134
C   C56       1.0  0.32140  0.48810  0.91804  1.0000 -0.0685133111
C   C57       1.0  0.47250  0.79700  0.65617  1.0000 0.5324749684
C   C58       1.0  0.52750  0.20300  0.15617  1.0000 0.5324749684
C   C59       1.0  0.70300  0.97250  0.90617  1.0000 0.5324749684
C   C60       1.0  0.29700  0.02750  0.40617  1.0000 0.5324749684
C   C61       1.0  0.02750  0.29700  0.59383  1.0000 0.5324749684
C   C62       1.0  0.97250  0.70300  0.09383  1.0000 0.5324749684
C   C63       1.0  0.79700  0.47250  0.34383  1.0000 0.5324749684
C   C64       1.0  0.20300  0.52750  0.84383  1.0000 0.5324749684
C   C65       1.0  0.57420  0.83580  0.66994  1.0000 0.5232858731
C   C66       1.0  0.42580  0.16420  0.16994  1.0000 0.5232858731
C   C67       1.0  0.66420  0.07420  0.91994  1.0000 0.5232858731
C   C68       1.0  0.33580  0.92580  0.41994  1.0000 0.5232858731
C   C69       1.0  0.92580  0.33580  0.58006  1.0000 0.5232858731
C   C70       1.0  0.07420  0.66420  0.08006  1.0000 0.5232858731
C   C71       1.0  0.83580  0.57420  0.33006  1.0000 0.5232858731
C   C72       1.0  0.16420  0.42580  0.83006  1.0000 0.5232858731
C   C73       1.0  0.48180  0.87280  0.69080  1.0000 0.5232858731
C   C74       1.0  0.51820  0.12720  0.19080  1.0000 0.5232858731
C   C75       1.0  0.62720  0.98180  0.94080  1.0000 0.5232858731
C   C76       1.0  0.37280  0.01820  0.44080  1.0000 0.5232858731
C   C77       1.0  0.01820  0.37280  0.55920  1.0000 0.5232858731
C   C78       1.0  0.98180  0.62720  0.05920  1.0000 0.5232858731
C   C79       1.0  0.87280  0.48180  0.30920  1.0000 0.5232858731
C   C80       1.0  0.12720  0.51820  0.80920  1.0000 0.5232858731
C   C81       1.0  0.69960  0.86330  0.67899  1.0000 0.2119220978
C   C82       1.0  0.30040  0.13670  0.17899  1.0000 0.2119220978
C   C83       1.0  0.63670  0.19960  0.92899  1.0000 0.2119220978
C   C84       1.0  0.36330  0.80040  0.42899  1.0000 0.2119220978
C   C85       1.0  0.80040  0.36330  0.57101  1.0000 0.2119220978
C   C86       1.0  0.19960  0.63670  0.07101  1.0000 0.2119220978
C   C87       1.0  0.86330  0.69960  0.32101  1.0000 0.2119220978
C   C88       1.0  0.13670  0.30040  0.82101  1.0000 0.2119220978
C   C89       1.0  0.76220  0.84200  0.67245  1.0000 -0.2091834845
C   C90       1.0  0.23780  0.15800  0.17245  1.0000 -0.2091834845
C   C91       1.0  0.65800  0.26220  0.92245  1.0000 -0.2091834845
C   C92       1.0  0.34200  0.73780  0.42245  1.0000 -0.2091834845
C   C93       1.0  0.73780  0.34200  0.57755  1.0000 -0.2091834845
C   C94       1.0  0.26220  0.65800  0.07755  1.0000 -0.2091834845
C   C95       1.0  0.84200  0.76220  0.32755  1.0000 -0.2091834845
C   C96       1.0  0.15800  0.23780  0.82755  1.0000 -0.2091834845
C   C97       1.0  0.81880  0.87130  0.68404  1.0000 -0.0596047169
C   C98       1.0  0.18120  0.12870  0.18404  1.0000 -0.0596047169
C   C99       1.0  0.62870  0.31880  0.93404  1.0000 -0.0596047169
C   C100      1.0  0.37130  0.68120  0.43404  1.0000 -0.0596047169
C   C101      1.0  0.68120  0.37130  0.56596  1.0000 -0.0596047169
C   C102      1.0  0.31880  0.62870  0.06596  1.0000 -0.0596047169
C   C103      1.0  0.87130  0.81880  0.31596  1.0000 -0.0596047169
C   C104      1.0  0.12870  0.18120  0.81596  1.0000 -0.0596047169
C   C105      1.0  0.81450  0.92180  0.70360  1.0000 -0.0881017858
C   C106      1.0  0.18550  0.07820  0.20360  1.0000 -0.0881017858
C   C107      1.0  0.57820  0.31450  0.95360  1.0000 -0.0881017858
C   C108      1.0  0.42180  0.68550  0.45360  1.0000 -0.0881017858
C   C109      1.0  0.68550  0.42180  0.54640  1.0000 -0.0881017858
C   C110      1.0  0.31450  0.57820  0.04640  1.0000 -0.0881017858
C   C111      1.0  0.92180  0.81450  0.29640  1.0000 -0.0881017858
C   C112      1.0  0.07820  0.18550  0.79640  1.0000 -0.0881017858
C   C113      1.0  0.75140  0.94220  0.71030  1.0000 -0.0685133111
C   C114      1.0  0.24860  0.05780  0.21030  1.0000 -0.0685133111
C   C115      1.0  0.55780  0.25140  0.96030  1.0000 -0.0685133111
C   C116      1.0  0.44220  0.74860  0.46030  1.0000 -0.0685133111
C   C117      1.0  0.74860  0.44220  0.53970  1.0000 -0.0685133111
C   C118      1.0  0.25140  0.55780  0.03970  1.0000 -0.0685133111
C   C119      1.0  0.94220  0.75140  0.28970  1.0000 -0.0685133111
C   C120      1.0  0.05780  0.24860  0.78970  1.0000 -0.0685133111
C   C121      1.0  0.69370  0.91440  0.69859  1.0000 -0.1831556225
C   C122      1.0  0.30630  0.08560  0.19859  1.0000 -0.1831556225
C   C123      1.0  0.58560  0.19370  0.94859  1.0000 -0.1831556225
C   C124      1.0  0.41440  0.80630  0.44859  1.0000 -0.1831556225
C   C125      1.0  0.80630  0.41440  0.55141  1.0000 -0.1831556225
C   C126      1.0  0.19370  0.58560  0.05141  1.0000 -0.1831556225
C   C127      1.0  0.91440  0.69370  0.30141  1.0000 -0.1831556225
C   C128      1.0  0.08560  0.30630  0.80141  1.0000 -0.1831556225
C   C129      1.0  0.38490  0.92250  0.71778  1.0000 0.227552112
C   C130      1.0  0.61510  0.07750  0.21778  1.0000 0.227552112
C   C131      1.0  0.57750  0.88490  0.96778  1.0000 0.227552112
C   C132      1.0  0.42250  0.11510  0.46778  1.0000 0.227552112
C   C133      1.0  0.11510  0.42250  0.53222  1.0000 0.227552112
C   C134      1.0  0.88490  0.57750  0.03222  1.0000 0.227552112
C   C135      1.0  0.92250  0.38490  0.28222  1.0000 0.227552112
C   C136      1.0  0.07750  0.61510  0.78222  1.0000 0.227552112
C   C137      1.0  0.33190  0.90730  0.69885  1.0000 -0.1875751905
C   C138      1.0  0.66810  0.09270  0.19885  1.0000 -0.1875751905
C   C139      1.0  0.59270  0.83190  0.94885  1.0000 -0.1875751905
C   C140      1.0  0.40730  0.16810  0.44885  1.0000 -0.1875751905
C   C141      1.0  0.16810  0.40730  0.55115  1.0000 -0.1875751905
C   C142      1.0  0.83190  0.59270  0.05115  1.0000 -0.1875751905
C   C143      1.0  0.90730  0.33190  0.30115  1.0000 -0.1875751905
C   C144      1.0  0.09270  0.66810  0.80115  1.0000 -0.1875751905
C   C145      1.0  0.26460  0.91910  0.70707  1.0000 -0.0685133111
C   C146      1.0  0.73540  0.08090  0.20707  1.0000 -0.0685133111
C   C147      1.0  0.58090  0.76460  0.95707  1.0000 -0.0685133111
C   C148      1.0  0.41910  0.23540  0.45707  1.0000 -0.0685133111
C   C149      1.0  0.23540  0.41910  0.54293  1.0000 -0.0685133111
C   C150      1.0  0.76460  0.58090  0.04293  1.0000 -0.0685133111
C   C151      1.0  0.91910  0.26460  0.29293  1.0000 -0.0685133111
C   C152      1.0  0.08090  0.73540  0.79293  1.0000 -0.0685133111
C   C153      1.0  0.24760  0.94340  0.73357  1.0000 -0.0971730614
C   C154      1.0  0.75240  0.05660  0.23357  1.0000 -0.0971730614
C   C155      1.0  0.55660  0.74760  0.98357  1.0000 -0.0971730614
C   C156      1.0  0.44340  0.25240  0.48357  1.0000 -0.0971730614
C   C157      1.0  0.25240  0.44340  0.51643  1.0000 -0.0971730614
C   C158      1.0  0.74760  0.55660  0.01643  1.0000 -0.0971730614
C   C159      1.0  0.94340  0.24760  0.26643  1.0000 -0.0971730614
C   C160      1.0  0.05660  0.75240  0.76643  1.0000 -0.0971730614
C   C161      1.0  0.30160  0.96070  0.74985  1.0000 -0.0596047169
C   C162      1.0  0.69840  0.03930  0.24985  1.0000 -0.0596047169
C   C163      1.0  0.53930  0.80160  0.99985  1.0000 -0.0596047169
C   C164      1.0  0.46070  0.19840  0.49985  1.0000 -0.0596047169
C   C165      1.0  0.19840  0.46070  0.50015  1.0000 -0.0596047169
C   C166      1.0  0.80160  0.53930  0.00015  1.0000 -0.0596047169
C   C167      1.0  0.96070  0.30160  0.25015  1.0000 -0.0596047169
C   C168      1.0  0.03930  0.69840  0.75015  1.0000 -0.0596047169
C   C169      1.0  0.36850  0.94870  0.74240  1.0000 -0.2091834845
C   C170      1.0  0.63150  0.05130  0.24240  1.0000 -0.2091834845
C   C171      1.0  0.55130  0.86850  0.99240  1.0000 -0.2091834845
C   C172      1.0  0.44870  0.13150  0.49240  1.0000 -0.2091834845
C   C173      1.0  0.13150  0.44870  0.50760  1.0000 -0.2091834845
C   C174      1.0  0.86850  0.55130  0.00760  1.0000 -0.2091834845
C   C175      1.0  0.94870  0.36850  0.25760  1.0000 -0.2091834845
C   C176      1.0  0.05130  0.63150  0.75760  1.0000 -0.2091834845
C   C177      1.0  0.87600  0.94910  0.71556  1.0000 0.5887025854
C   C178      1.0  0.12400  0.05090  0.21556  1.0000 0.5887025854
C   C179      1.0  0.55090  0.37600  0.96556  1.0000 0.5887025854
C   C180      1.0  0.44910  0.62400  0.46556  1.0000 0.5887025854
C   C181      1.0  0.62400  0.44910  0.53444  1.0000 0.5887025854
C   C182      1.0  0.37600  0.55090  0.03444  1.0000 0.5887025854
C   C183      1.0  0.94910  0.87600  0.28444  1.0000 0.5887025854
C   C184      1.0  0.05090  0.12400  0.78444  1.0000 0.5887025854
C   C185      1.0  0.17620  0.95070  0.74115  1.0000 0.5887025854
C   C186      1.0  0.82380  0.04930  0.24115  1.0000 0.5887025854
C   C187      1.0  0.54930  0.67620  0.99115  1.0000 0.5887025854
C   C188      1.0  0.45070  0.32380  0.49115  1.0000 0.5887025854
C   C189      1.0  0.32380  0.45070  0.50885  1.0000 0.5887025854
C   C190      1.0  0.67620  0.54930  0.00885  1.0000 0.5887025854
C   C191      1.0  0.95070  0.17620  0.25885  1.0000 0.5887025854
C   C192      1.0  0.04930  0.82380  0.75885  1.0000 0.5887025854
N   N1        1.0  0.53870  0.79570  0.65220  1.0000 -0.5216789955
N   N2        1.0  0.46130  0.20430  0.15220  1.0000 -0.5216789955
N   N3        1.0  0.70430  0.03870  0.90220  1.0000 -0.5216789955
N   N4        1.0  0.29570  0.96130  0.40220  1.0000 -0.5216789955
N   N5        1.0  0.96130  0.29570  0.59780  1.0000 -0.5216789955
N   N6        1.0  0.03870  0.70430  0.09780  1.0000 -0.5216789955
N   N7        1.0  0.79570  0.53870  0.34780  1.0000 -0.5216789955
N   N8        1.0  0.20430  0.46130  0.84780  1.0000 -0.5216789955
N   N9        1.0  0.55050  0.87480  0.68919  1.0000 -0.4935223015
N   N10       1.0  0.44950  0.12520  0.18919  1.0000 -0.4935223015
N   N11       1.0  0.62520  0.05050  0.93919  1.0000 -0.4935223015
N   N12       1.0  0.37480  0.94950  0.43919  1.0000 -0.4935223015
N   N13       1.0  0.94950  0.37480  0.56081  1.0000 -0.4935223015
N   N14       1.0  0.05050  0.62520  0.06081  1.0000 -0.4935223015
N   N15       1.0  0.87480  0.55050  0.31081  1.0000 -0.4935223015
N   N16       1.0  0.12520  0.44950  0.81081  1.0000 -0.4935223015
N   N17       1.0  0.43850  0.83420  0.67506  1.0000 -0.5400813087
N   N18       1.0  0.56150  0.16580  0.17506  1.0000 -0.5400813087
N   N19       1.0  0.66580  0.93850  0.92506  1.0000 -0.5400813087
N   N20       1.0  0.33420  0.06150  0.42506  1.0000 -0.5400813087
N   N21       1.0  0.06150  0.33420  0.57494  1.0000 -0.5400813087
N   N22       1.0  0.93850  0.66580  0.07494  1.0000 -0.5400813087
N   N23       1.0  0.83420  0.43850  0.32494  1.0000 -0.5400813087
N   N24       1.0  0.16580  0.56150  0.82494  1.0000 -0.5400813087
N   N25       1.0  0.64420  0.83310  0.66546  1.0000 -0.3821245881
N   N26       1.0  0.35580  0.16690  0.16546  1.0000 -0.3821245881
N   N27       1.0  0.66690  0.14420  0.91546  1.0000 -0.3821245881
N   N28       1.0  0.33310  0.85580  0.41546  1.0000 -0.3821245881
N   N29       1.0  0.85580  0.33310  0.58454  1.0000 -0.3821245881
N   N30       1.0  0.14420  0.66690  0.08454  1.0000 -0.3821245881
N   N31       1.0  0.83310  0.64420  0.33454  1.0000 -0.3821245881
N   N32       1.0  0.16690  0.35580  0.83454  1.0000 -0.3821245881
N   N33       1.0  0.45230  0.91200  0.71081  1.0000 -0.3481971586
N   N34       1.0  0.54770  0.08800  0.21081  1.0000 -0.3481971586
N   N35       1.0  0.58800  0.95230  0.96081  1.0000 -0.3481971586
N   N36       1.0  0.41200  0.04770  0.46081  1.0000 -0.3481971586
N   N37       1.0  0.04770  0.41200  0.53919  1.0000 -0.3481971586
N   N38       1.0  0.95230  0.58800  0.03919  1.0000 -0.3481971586
N   N39       1.0  0.91200  0.45230  0.28919  1.0000 -0.3481971586
N   N40       1.0  0.08800  0.54770  0.78919  1.0000 -0.3481971586
N   N41       1.0  0.43270  0.75520  0.64235  1.0000 -0.3435804063
N   N42       1.0  0.56730  0.24480  0.14235  1.0000 -0.3435804063
N   N43       1.0  0.74480  0.93270  0.89235  1.0000 -0.3435804063
N   N44       1.0  0.25520  0.06730  0.39235  1.0000 -0.3435804063
N   N45       1.0  0.06730  0.25520  0.60765  1.0000 -0.3435804063
N   N46       1.0  0.93270  0.74480  0.10765  1.0000 -0.3435804063
N   N47       1.0  0.75520  0.43270  0.35765  1.0000 -0.3435804063
N   N48       1.0  0.24480  0.56730  0.85765  1.0000 -0.3435804063
O   O1        1.0  0.53073  0.59075  0.53708  1.0000 -0.5645806605
O   O2        1.0  0.46927  0.40925  0.03708  1.0000 -0.5645806605
O   O3        1.0  0.90925  0.03073  0.78708  1.0000 -0.5645806605
O   O4        1.0  0.09075  0.96927  0.28708  1.0000 -0.5645806605
O   O5        1.0  0.96927  0.09075  0.71292  1.0000 -0.5645806605
O   O6        1.0  0.03073  0.90925  0.21292  1.0000 -0.5645806605
O   O7        1.0  0.59075  0.53073  0.46292  1.0000 -0.5645806605
O   O8        1.0  0.40925  0.46927  0.96292  1.0000 -0.5645806605
O   O9        1.0  0.45532  0.51600  0.55547  1.0000 -0.5400813087
O   O10       1.0  0.54468  0.48400  0.05547  1.0000 -0.5400813087
O   O11       1.0  0.98400  0.95532  0.80547  1.0000 -0.5400813087
O   O12       1.0  0.01600  0.04468  0.30547  1.0000 -0.5400813087
O   O13       1.0  0.04468  0.01600  0.69453  1.0000 -0.5400813087
O   O14       1.0  0.95532  0.98400  0.19453  1.0000 -0.5400813087
O   O15       1.0  0.51600  0.45532  0.44453  1.0000 -0.5400813087
O   O16       1.0  0.48400  0.54468  0.94453  1.0000 -0.5400813087
O   O17       1.0  0.93352  0.92618  0.70702  1.0000 -0.5520990604
O   O18       1.0  0.06648  0.07382  0.20702  1.0000 -0.5520990604
O   O19       1.0  0.57382  0.43352  0.95702  1.0000 -0.5520990604
O   O20       1.0  0.42618  0.56648  0.45702  1.0000 -0.5520990604
O   O21       1.0  0.56648  0.42618  0.54298  1.0000 -0.5520990604
O   O22       1.0  0.43352  0.57382  0.04298  1.0000 -0.5520990604
O   O23       1.0  0.92618  0.93352  0.29298  1.0000 -0.5520990604
O   O24       1.0  0.07382  0.06648  0.79298  1.0000 -0.5520990604
O   O25       1.0  0.87019  0.99419  0.73351  1.0000 -0.5400813087
O   O26       1.0  0.12981  0.00581  0.23351  1.0000 -0.5400813087
O   O27       1.0  0.50581  0.37019  0.98351  1.0000 -0.5400813087
O   O28       1.0  0.49419  0.62981  0.48351  1.0000 -0.5400813087
O   O29       1.0  0.62981  0.49419  0.51649  1.0000 -0.5400813087
O   O30       1.0  0.37019  0.50581  0.01649  1.0000 -0.5400813087
O   O31       1.0  0.99419  0.87019  0.26649  1.0000 -0.5400813087
O   O32       1.0  0.00581  0.12981  0.76649  1.0000 -0.5400813087
O   O33       1.0  0.16031  0.97616  0.76338  1.0000 -0.5261174405
O   O34       1.0  0.83969  0.02384  0.26338  1.0000 -0.5261174405
O   O35       1.0  0.52384  0.66031  0.01338  1.0000 -0.5261174405
O   O36       1.0  0.47616  0.33969  0.51338  1.0000 -0.5261174405
O   O37       1.0  0.33969  0.47616  0.48662  1.0000 -0.5261174405
O   O38       1.0  0.66031  0.52384  0.98662  1.0000 -0.5261174405
O   O39       1.0  0.97616  0.16031  0.23662  1.0000 -0.5261174405
O   O40       1.0  0.02384  0.83969  0.73662  1.0000 -0.5261174405
O   O41       1.0  0.13277  0.92916  0.72339  1.0000 -0.5683242568
O   O42       1.0  0.86723  0.07084  0.22339  1.0000 -0.5683242568
O   O43       1.0  0.57084  0.63277  0.97339  1.0000 -0.5683242568
O   O44       1.0  0.42916  0.36723  0.47339  1.0000 -0.5683242568
O   O45       1.0  0.36723  0.42916  0.52661  1.0000 -0.5683242568
O   O46       1.0  0.63277  0.57084  0.02661  1.0000 -0.5683242568
O   O47       1.0  0.92916  0.13277  0.27661  1.0000 -0.5683242568
O   O48       1.0  0.07084  0.86723  0.77661  1.0000 -0.5683242568
O   O49       1.0  0.48697  0.48697  0.50000  1.0000 -0.9269875849
O   O50       1.0  0.51303  0.51303  0.00000  1.0000 -0.9269875849
O   O51       1.0  0.01303  0.98697  0.75000  1.0000 -0.9269875849
O   O52       1.0  0.98697  0.01303  0.25000  1.0000 -0.9269875849
