# DDEC6 charges by PACMAN v1.1 (https://github.com/mtap-research/PACMAN-charge/)
data_2015[Zn][ith]3[FSR]2
_chemical_formula_sum              "Zn24 H348 C402 O78"
_cell_length_a       29.9508
_cell_length_b       29.9508
_cell_length_c       29.9508
_cell_angle_alpha    90
_cell_angle_beta     90
_cell_angle_gamma    90

_symmetry_space_group_name_H-M    "P 1"
_symmetry_Int_Tables_number       1

loop_
  _symmetry_equiv_pos_as_xyz
  'x, y, z'

loop_
  _atom_site_type_symbol
  _atom_site_label
  _atom_site_symmetry_multiplicity
  _atom_site_fract_x
  _atom_site_fract_y
  _atom_site_fract_z
  _atom_site_occupancy
  _atom_site_charge
Zn  Zn1       1.0  0.32269  0.44658  0.00000  1.0000 0.9477607615
Zn  Zn2       1.0  0.67731  0.55342  0.00000  1.0000 0.9477607615
Zn  Zn3       1.0  0.67731  0.44658  0.00000  1.0000 0.9477607615
Zn  Zn4       1.0  0.32269  0.55342  0.00000  1.0000 0.9477607615
Zn  Zn5       1.0  0.00000  0.32269  0.44658  1.0000 0.9477607615
Zn  Zn6       1.0  0.00000  0.67731  0.55342  1.0000 0.9477607615
Zn  Zn7       1.0  0.00000  0.67731  0.44658  1.0000 0.9477607615
Zn  Zn8       1.0  0.00000  0.32269  0.55342  1.0000 0.9477607615
Zn  Zn9       1.0  0.44658  0.00000  0.32269  1.0000 0.9477607615
Zn  Zn10      1.0  0.55342  0.00000  0.67731  1.0000 0.9477607615
Zn  Zn11      1.0  0.44658  0.00000  0.67731  1.0000 0.9477607615
Zn  Zn12      1.0  0.55342  0.00000  0.32269  1.0000 0.9477607615
Zn  Zn13      1.0  0.24861  0.50000  0.05306  1.0000 0.9477607615
Zn  Zn14      1.0  0.75139  0.50000  0.05306  1.0000 0.9477607615
Zn  Zn15      1.0  0.75139  0.50000  0.94694  1.0000 0.9477607615
Zn  Zn16      1.0  0.24861  0.50000  0.94694  1.0000 0.9477607615
Zn  Zn17      1.0  0.05306  0.24861  0.50000  1.0000 0.9477607615
Zn  Zn18      1.0  0.05306  0.75139  0.50000  1.0000 0.9477607615
Zn  Zn19      1.0  0.94694  0.75139  0.50000  1.0000 0.9477607615
Zn  Zn20      1.0  0.94694  0.24861  0.50000  1.0000 0.9477607615
Zn  Zn21      1.0  0.50000  0.05306  0.24861  1.0000 0.9477607615
Zn  Zn22      1.0  0.50000  0.05306  0.75139  1.0000 0.9477607615
Zn  Zn23      1.0  0.50000  0.94694  0.75139  1.0000 0.9477607615
Zn  Zn24      1.0  0.50000  0.94694  0.24861  1.0000 0.9477607615
H   H1        1.0  0.23290  0.40260  0.15330  1.0000 0.1306216134
H   H2        1.0  0.76710  0.59740  0.15330  1.0000 0.1306216134
H   H3        1.0  0.76710  0.40260  0.84670  1.0000 0.1306216134
H   H4        1.0  0.23290  0.59740  0.84670  1.0000 0.1306216134
H   H5        1.0  0.15330  0.23290  0.40260  1.0000 0.1306216134
H   H6        1.0  0.15330  0.76710  0.59740  1.0000 0.1306216134
H   H7        1.0  0.84670  0.76710  0.40260  1.0000 0.1306216134
H   H8        1.0  0.84670  0.23290  0.59740  1.0000 0.1306216134
H   H9        1.0  0.40260  0.15330  0.23290  1.0000 0.1306216134
H   H10       1.0  0.59740  0.15330  0.76710  1.0000 0.1306216134
H   H11       1.0  0.40260  0.84670  0.76710  1.0000 0.1306216134
H   H12       1.0  0.59740  0.84670  0.23290  1.0000 0.1306216134
H   H13       1.0  0.76710  0.59740  0.84670  1.0000 0.1306216134
H   H14       1.0  0.23290  0.40260  0.84670  1.0000 0.1306216134
H   H15       1.0  0.23290  0.59740  0.15330  1.0000 0.1306216134
H   H16       1.0  0.76710  0.40260  0.15330  1.0000 0.1306216134
H   H17       1.0  0.84670  0.76710  0.59740  1.0000 0.1306216134
H   H18       1.0  0.84670  0.23290  0.40260  1.0000 0.1306216134
H   H19       1.0  0.15330  0.23290  0.59740  1.0000 0.1306216134
H   H20       1.0  0.15330  0.76710  0.40260  1.0000 0.1306216134
H   H21       1.0  0.59740  0.84670  0.76710  1.0000 0.1306216134
H   H22       1.0  0.40260  0.84670  0.23290  1.0000 0.1306216134
H   H23       1.0  0.59740  0.15330  0.23290  1.0000 0.1306216134
H   H24       1.0  0.40260  0.15330  0.76710  1.0000 0.1306216134
H   H25       1.0  0.46140  0.43380  0.00000  1.0000 0.1306216134
H   H26       1.0  0.53860  0.56620  0.00000  1.0000 0.1306216134
H   H27       1.0  0.53860  0.43380  0.00000  1.0000 0.1306216134
H   H28       1.0  0.46140  0.56620  0.00000  1.0000 0.1306216134
H   H29       1.0  0.00000  0.46140  0.43380  1.0000 0.1306216134
H   H30       1.0  0.00000  0.53860  0.56620  1.0000 0.1306216134
H   H31       1.0  0.00000  0.53860  0.43380  1.0000 0.1306216134
H   H32       1.0  0.00000  0.46140  0.56620  1.0000 0.1306216134
H   H33       1.0  0.43380  0.00000  0.46140  1.0000 0.1306216134
H   H34       1.0  0.56620  0.00000  0.53860  1.0000 0.1306216134
H   H35       1.0  0.43380  0.00000  0.53860  1.0000 0.1306216134
H   H36       1.0  0.56620  0.00000  0.46140  1.0000 0.1306216134
H   H37       1.0  0.33950  0.34650  0.09630  1.0000 0.1200350024
H   H38       1.0  0.66050  0.65350  0.09630  1.0000 0.1200350024
H   H39       1.0  0.66050  0.34650  0.90370  1.0000 0.1200350024
H   H40       1.0  0.33950  0.65350  0.90370  1.0000 0.1200350024
H   H41       1.0  0.09630  0.33950  0.34650  1.0000 0.1200350024
H   H42       1.0  0.09630  0.66050  0.65350  1.0000 0.1200350024
H   H43       1.0  0.90370  0.66050  0.34650  1.0000 0.1200350024
H   H44       1.0  0.90370  0.33950  0.65350  1.0000 0.1200350024
H   H45       1.0  0.34650  0.09630  0.33950  1.0000 0.1200350024
H   H46       1.0  0.65350  0.09630  0.66050  1.0000 0.1200350024
H   H47       1.0  0.34650  0.90370  0.66050  1.0000 0.1200350024
H   H48       1.0  0.65350  0.90370  0.33950  1.0000 0.1200350024
H   H49       1.0  0.66050  0.65350  0.90370  1.0000 0.1200350024
H   H50       1.0  0.33950  0.34650  0.90370  1.0000 0.1200350024
H   H51       1.0  0.33950  0.65350  0.09630  1.0000 0.1200350024
H   H52       1.0  0.66050  0.34650  0.09630  1.0000 0.1200350024
H   H53       1.0  0.90370  0.66050  0.65350  1.0000 0.1200350024
H   H54       1.0  0.90370  0.33950  0.34650  1.0000 0.1200350024
H   H55       1.0  0.09630  0.33950  0.65350  1.0000 0.1200350024
H   H56       1.0  0.09630  0.66050  0.34650  1.0000 0.1200350024
H   H57       1.0  0.65350  0.90370  0.66050  1.0000 0.1200350024
H   H58       1.0  0.34650  0.90370  0.33950  1.0000 0.1200350024
H   H59       1.0  0.65350  0.09630  0.33950  1.0000 0.1200350024
H   H60       1.0  0.34650  0.09630  0.66050  1.0000 0.1200350024
H   H61       1.0  0.34130  0.29200  0.15110  1.0000 0.1200350024
H   H62       1.0  0.65870  0.70800  0.15110  1.0000 0.1200350024
H   H63       1.0  0.65870  0.29200  0.84890  1.0000 0.1200350024
H   H64       1.0  0.34130  0.70800  0.84890  1.0000 0.1200350024
H   H65       1.0  0.15110  0.34130  0.29200  1.0000 0.1200350024
H   H66       1.0  0.15110  0.65870  0.70800  1.0000 0.1200350024
H   H67       1.0  0.84890  0.65870  0.29200  1.0000 0.1200350024
H   H68       1.0  0.84890  0.34130  0.70800  1.0000 0.1200350024
H   H69       1.0  0.29200  0.15110  0.34130  1.0000 0.1200350024
H   H70       1.0  0.70800  0.15110  0.65870  1.0000 0.1200350024
H   H71       1.0  0.29200  0.84890  0.65870  1.0000 0.1200350024
H   H72       1.0  0.70800  0.84890  0.34130  1.0000 0.1200350024
H   H73       1.0  0.65870  0.70800  0.84890  1.0000 0.1200350024
H   H74       1.0  0.34130  0.29200  0.84890  1.0000 0.1200350024
H   H75       1.0  0.34130  0.70800  0.15110  1.0000 0.1200350024
H   H76       1.0  0.65870  0.29200  0.15110  1.0000 0.1200350024
H   H77       1.0  0.84890  0.65870  0.70800  1.0000 0.1200350024
H   H78       1.0  0.84890  0.34130  0.29200  1.0000 0.1200350024
H   H79       1.0  0.15110  0.34130  0.70800  1.0000 0.1200350024
H   H80       1.0  0.15110  0.65870  0.29200  1.0000 0.1200350024
H   H81       1.0  0.70800  0.84890  0.65870  1.0000 0.1200350024
H   H82       1.0  0.29200  0.84890  0.34130  1.0000 0.1200350024
H   H83       1.0  0.70800  0.15110  0.34130  1.0000 0.1200350024
H   H84       1.0  0.29200  0.15110  0.65870  1.0000 0.1200350024
H   H85       1.0  0.10970  0.50000  0.06510  1.0000 0.1306216134
H   H86       1.0  0.89030  0.50000  0.06510  1.0000 0.1306216134
H   H87       1.0  0.89030  0.50000  0.93490  1.0000 0.1306216134
H   H88       1.0  0.10970  0.50000  0.93490  1.0000 0.1306216134
H   H89       1.0  0.06510  0.10970  0.50000  1.0000 0.1306216134
H   H90       1.0  0.06510  0.89030  0.50000  1.0000 0.1306216134
H   H91       1.0  0.93490  0.89030  0.50000  1.0000 0.1306216134
H   H92       1.0  0.93490  0.10970  0.50000  1.0000 0.1306216134
H   H93       1.0  0.50000  0.06510  0.10970  1.0000 0.1306216134
H   H94       1.0  0.50000  0.06510  0.89030  1.0000 0.1306216134
H   H95       1.0  0.50000  0.93490  0.89030  1.0000 0.1306216134
H   H96       1.0  0.50000  0.93490  0.10970  1.0000 0.1306216134
H   H97       1.0  0.03310  0.50000  0.06470  1.0000 0.1200350024
H   H98       1.0  0.96690  0.50000  0.06470  1.0000 0.1200350024
H   H99       1.0  0.96690  0.50000  0.93530  1.0000 0.1200350024
H   H100      1.0  0.03310  0.50000  0.93530  1.0000 0.1200350024
H   H101      1.0  0.06470  0.03310  0.50000  1.0000 0.1200350024
H   H102      1.0  0.06470  0.96690  0.50000  1.0000 0.1200350024
H   H103      1.0  0.93530  0.96690  0.50000  1.0000 0.1200350024
H   H104      1.0  0.93530  0.03310  0.50000  1.0000 0.1200350024
H   H105      1.0  0.50000  0.06470  0.03310  1.0000 0.1200350024
H   H106      1.0  0.50000  0.06470  0.96690  1.0000 0.1200350024
H   H107      1.0  0.50000  0.93530  0.96690  1.0000 0.1200350024
H   H108      1.0  0.50000  0.93530  0.03310  1.0000 0.1200350024
H   H109      1.0  0.15360  0.33210  0.22660  1.0000 0.0930886313
H   H110      1.0  0.84640  0.66790  0.22660  1.0000 0.0930886313
H   H111      1.0  0.84640  0.33210  0.77340  1.0000 0.0930886313
H   H112      1.0  0.15360  0.66790  0.77340  1.0000 0.0930886313
H   H113      1.0  0.22660  0.15360  0.33210  1.0000 0.0930886313
H   H114      1.0  0.22660  0.84640  0.66790  1.0000 0.0930886313
H   H115      1.0  0.77340  0.84640  0.33210  1.0000 0.0930886313
H   H116      1.0  0.77340  0.15360  0.66790  1.0000 0.0930886313
H   H117      1.0  0.33210  0.22660  0.15360  1.0000 0.0930886313
H   H118      1.0  0.66790  0.22660  0.84640  1.0000 0.0930886313
H   H119      1.0  0.33210  0.77340  0.84640  1.0000 0.0930886313
H   H120      1.0  0.66790  0.77340  0.15360  1.0000 0.0930886313
H   H121      1.0  0.84640  0.66790  0.77340  1.0000 0.0930886313
H   H122      1.0  0.15360  0.33210  0.77340  1.0000 0.0930886313
H   H123      1.0  0.15360  0.66790  0.22660  1.0000 0.0930886313
H   H124      1.0  0.84640  0.33210  0.22660  1.0000 0.0930886313
H   H125      1.0  0.77340  0.84640  0.66790  1.0000 0.0930886313
H   H126      1.0  0.77340  0.15360  0.33210  1.0000 0.0930886313
H   H127      1.0  0.22660  0.15360  0.66790  1.0000 0.0930886313
H   H128      1.0  0.22660  0.84640  0.33210  1.0000 0.0930886313
H   H129      1.0  0.66790  0.77340  0.84640  1.0000 0.0930886313
H   H130      1.0  0.33210  0.77340  0.15360  1.0000 0.0930886313
H   H131      1.0  0.66790  0.22660  0.15360  1.0000 0.0930886313
H   H132      1.0  0.33210  0.22660  0.84640  1.0000 0.0930886313
H   H133      1.0  0.16710  0.36100  0.18520  1.0000 0.0960617097
H   H134      1.0  0.83290  0.63900  0.18520  1.0000 0.0960617097
H   H135      1.0  0.83290  0.36100  0.81480  1.0000 0.0960617097
H   H136      1.0  0.16710  0.63900  0.81480  1.0000 0.0960617097
H   H137      1.0  0.18520  0.16710  0.36100  1.0000 0.0960617097
H   H138      1.0  0.18520  0.83290  0.63900  1.0000 0.0960617097
H   H139      1.0  0.81480  0.83290  0.36100  1.0000 0.0960617097
H   H140      1.0  0.81480  0.16710  0.63900  1.0000 0.0960617097
H   H141      1.0  0.36100  0.18520  0.16710  1.0000 0.0960617097
H   H142      1.0  0.63900  0.18520  0.83290  1.0000 0.0960617097
H   H143      1.0  0.36100  0.81480  0.83290  1.0000 0.0960617097
H   H144      1.0  0.63900  0.81480  0.16710  1.0000 0.0960617097
H   H145      1.0  0.83290  0.63900  0.81480  1.0000 0.0960617097
H   H146      1.0  0.16710  0.36100  0.81480  1.0000 0.0960617097
H   H147      1.0  0.16710  0.63900  0.18520  1.0000 0.0960617097
H   H148      1.0  0.83290  0.36100  0.18520  1.0000 0.0960617097
H   H149      1.0  0.81480  0.83290  0.63900  1.0000 0.0960617097
H   H150      1.0  0.81480  0.16710  0.36100  1.0000 0.0960617097
H   H151      1.0  0.18520  0.16710  0.63900  1.0000 0.0960617097
H   H152      1.0  0.18520  0.83290  0.36100  1.0000 0.0960617097
H   H153      1.0  0.63900  0.81480  0.83290  1.0000 0.0960617097
H   H154      1.0  0.36100  0.81480  0.16710  1.0000 0.0960617097
H   H155      1.0  0.63900  0.18520  0.16710  1.0000 0.0960617097
H   H156      1.0  0.36100  0.18520  0.83290  1.0000 0.0960617097
H   H157      1.0  0.21510  0.40920  0.23460  1.0000 0.0960617097
H   H158      1.0  0.78490  0.59080  0.23460  1.0000 0.0960617097
H   H159      1.0  0.78490  0.40920  0.76540  1.0000 0.0960617097
H   H160      1.0  0.21510  0.59080  0.76540  1.0000 0.0960617097
H   H161      1.0  0.23460  0.21510  0.40920  1.0000 0.0960617097
H   H162      1.0  0.23460  0.78490  0.59080  1.0000 0.0960617097
H   H163      1.0  0.76540  0.78490  0.40920  1.0000 0.0960617097
H   H164      1.0  0.76540  0.21510  0.59080  1.0000 0.0960617097
H   H165      1.0  0.40920  0.23460  0.21510  1.0000 0.0960617097
H   H166      1.0  0.59080  0.23460  0.78490  1.0000 0.0960617097
H   H167      1.0  0.40920  0.76540  0.78490  1.0000 0.0960617097
H   H168      1.0  0.59080  0.76540  0.21510  1.0000 0.0960617097
H   H169      1.0  0.78490  0.59080  0.76540  1.0000 0.0960617097
H   H170      1.0  0.21510  0.40920  0.76540  1.0000 0.0960617097
H   H171      1.0  0.21510  0.59080  0.23460  1.0000 0.0960617097
H   H172      1.0  0.78490  0.40920  0.23460  1.0000 0.0960617097
H   H173      1.0  0.76540  0.78490  0.59080  1.0000 0.0960617097
H   H174      1.0  0.76540  0.21510  0.40920  1.0000 0.0960617097
H   H175      1.0  0.23460  0.21510  0.59080  1.0000 0.0960617097
H   H176      1.0  0.23460  0.78490  0.40920  1.0000 0.0960617097
H   H177      1.0  0.59080  0.76540  0.78490  1.0000 0.0960617097
H   H178      1.0  0.40920  0.76540  0.21510  1.0000 0.0960617097
H   H179      1.0  0.59080  0.23460  0.21510  1.0000 0.0960617097
H   H180      1.0  0.40920  0.23460  0.78490  1.0000 0.0960617097
H   H181      1.0  0.20200  0.38020  0.27610  1.0000 0.0930886313
H   H182      1.0  0.79800  0.61980  0.27610  1.0000 0.0930886313
H   H183      1.0  0.79800  0.38020  0.72390  1.0000 0.0930886313
H   H184      1.0  0.20200  0.61980  0.72390  1.0000 0.0930886313
H   H185      1.0  0.27610  0.20200  0.38020  1.0000 0.0930886313
H   H186      1.0  0.27610  0.79800  0.61980  1.0000 0.0930886313
H   H187      1.0  0.72390  0.79800  0.38020  1.0000 0.0930886313
H   H188      1.0  0.72390  0.20200  0.61980  1.0000 0.0930886313
H   H189      1.0  0.38020  0.27610  0.20200  1.0000 0.0930886313
H   H190      1.0  0.61980  0.27610  0.79800  1.0000 0.0930886313
H   H191      1.0  0.38020  0.72390  0.79800  1.0000 0.0930886313
H   H192      1.0  0.61980  0.72390  0.20200  1.0000 0.0930886313
H   H193      1.0  0.79800  0.61980  0.72390  1.0000 0.0930886313
H   H194      1.0  0.20200  0.38020  0.72390  1.0000 0.0930886313
H   H195      1.0  0.20200  0.61980  0.27610  1.0000 0.0930886313
H   H196      1.0  0.79800  0.38020  0.27610  1.0000 0.0930886313
H   H197      1.0  0.72390  0.79800  0.61980  1.0000 0.0930886313
H   H198      1.0  0.72390  0.20200  0.38020  1.0000 0.0930886313
H   H199      1.0  0.27610  0.20200  0.61980  1.0000 0.0930886313
H   H200      1.0  0.27610  0.79800  0.38020  1.0000 0.0930886313
H   H201      1.0  0.61980  0.72390  0.79800  1.0000 0.0930886313
H   H202      1.0  0.38020  0.72390  0.20200  1.0000 0.0930886313
H   H203      1.0  0.61980  0.27610  0.20200  1.0000 0.0930886313
H   H204      1.0  0.38020  0.27610  0.79800  1.0000 0.0930886313
H   H205      1.0  0.27660  0.36920  0.29330  1.0000 0.1200350024
H   H206      1.0  0.72340  0.63080  0.29330  1.0000 0.1200350024
H   H207      1.0  0.72340  0.36920  0.70670  1.0000 0.1200350024
H   H208      1.0  0.27660  0.63080  0.70670  1.0000 0.1200350024
H   H209      1.0  0.29330  0.27660  0.36920  1.0000 0.1200350024
H   H210      1.0  0.29330  0.72340  0.63080  1.0000 0.1200350024
H   H211      1.0  0.70670  0.72340  0.36920  1.0000 0.1200350024
H   H212      1.0  0.70670  0.27660  0.63080  1.0000 0.1200350024
H   H213      1.0  0.36920  0.29330  0.27660  1.0000 0.1200350024
H   H214      1.0  0.63080  0.29330  0.72340  1.0000 0.1200350024
H   H215      1.0  0.36920  0.70670  0.72340  1.0000 0.1200350024
H   H216      1.0  0.63080  0.70670  0.27660  1.0000 0.1200350024
H   H217      1.0  0.72340  0.63080  0.70670  1.0000 0.1200350024
H   H218      1.0  0.27660  0.36920  0.70670  1.0000 0.1200350024
H   H219      1.0  0.27660  0.63080  0.29330  1.0000 0.1200350024
H   H220      1.0  0.72340  0.36920  0.29330  1.0000 0.1200350024
H   H221      1.0  0.70670  0.72340  0.63080  1.0000 0.1200350024
H   H222      1.0  0.70670  0.27660  0.36920  1.0000 0.1200350024
H   H223      1.0  0.29330  0.27660  0.63080  1.0000 0.1200350024
H   H224      1.0  0.29330  0.72340  0.36920  1.0000 0.1200350024
H   H225      1.0  0.63080  0.70670  0.72340  1.0000 0.1200350024
H   H226      1.0  0.36920  0.70670  0.27660  1.0000 0.1200350024
H   H227      1.0  0.63080  0.29330  0.27660  1.0000 0.1200350024
H   H228      1.0  0.36920  0.29330  0.72340  1.0000 0.1200350024
H   H229      1.0  0.26780  0.42060  0.28920  1.0000 0.1200350024
H   H230      1.0  0.73220  0.57940  0.28920  1.0000 0.1200350024
H   H231      1.0  0.73220  0.42060  0.71080  1.0000 0.1200350024
H   H232      1.0  0.26780  0.57940  0.71080  1.0000 0.1200350024
H   H233      1.0  0.28920  0.26780  0.42060  1.0000 0.1200350024
H   H234      1.0  0.28920  0.73220  0.57940  1.0000 0.1200350024
H   H235      1.0  0.71080  0.73220  0.42060  1.0000 0.1200350024
H   H236      1.0  0.71080  0.26780  0.57940  1.0000 0.1200350024
H   H237      1.0  0.42060  0.28920  0.26780  1.0000 0.1200350024
H   H238      1.0  0.57940  0.28920  0.73220  1.0000 0.1200350024
H   H239      1.0  0.42060  0.71080  0.73220  1.0000 0.1200350024
H   H240      1.0  0.57940  0.71080  0.26780  1.0000 0.1200350024
H   H241      1.0  0.73220  0.57940  0.71080  1.0000 0.1200350024
H   H242      1.0  0.26780  0.42060  0.71080  1.0000 0.1200350024
H   H243      1.0  0.26780  0.57940  0.28920  1.0000 0.1200350024
H   H244      1.0  0.73220  0.42060  0.28920  1.0000 0.1200350024
H   H245      1.0  0.71080  0.73220  0.57940  1.0000 0.1200350024
H   H246      1.0  0.71080  0.26780  0.42060  1.0000 0.1200350024
H   H247      1.0  0.28920  0.26780  0.57940  1.0000 0.1200350024
H   H248      1.0  0.28920  0.73220  0.42060  1.0000 0.1200350024
H   H249      1.0  0.57940  0.71080  0.73220  1.0000 0.1200350024
H   H250      1.0  0.42060  0.71080  0.26780  1.0000 0.1200350024
H   H251      1.0  0.57940  0.28920  0.26780  1.0000 0.1200350024
H   H252      1.0  0.42060  0.28920  0.73220  1.0000 0.1200350024
H   H253      1.0  0.29110  0.39480  0.25000  1.0000 0.1200350024
H   H254      1.0  0.70890  0.60520  0.25000  1.0000 0.1200350024
H   H255      1.0  0.70890  0.39480  0.75000  1.0000 0.1200350024
H   H256      1.0  0.29110  0.60520  0.75000  1.0000 0.1200350024
H   H257      1.0  0.25000  0.29110  0.39480  1.0000 0.1200350024
H   H258      1.0  0.25000  0.70890  0.60520  1.0000 0.1200350024
H   H259      1.0  0.75000  0.70890  0.39480  1.0000 0.1200350024
H   H260      1.0  0.75000  0.29110  0.60520  1.0000 0.1200350024
H   H261      1.0  0.39480  0.25000  0.29110  1.0000 0.1200350024
H   H262      1.0  0.60520  0.25000  0.70890  1.0000 0.1200350024
H   H263      1.0  0.39480  0.75000  0.70890  1.0000 0.1200350024
H   H264      1.0  0.60520  0.75000  0.29110  1.0000 0.1200350024
H   H265      1.0  0.70890  0.60520  0.75000  1.0000 0.1200350024
H   H266      1.0  0.29110  0.39480  0.75000  1.0000 0.1200350024
H   H267      1.0  0.29110  0.60520  0.25000  1.0000 0.1200350024
H   H268      1.0  0.70890  0.39480  0.25000  1.0000 0.1200350024
H   H269      1.0  0.75000  0.70890  0.60520  1.0000 0.1200350024
H   H270      1.0  0.75000  0.29110  0.39480  1.0000 0.1200350024
H   H271      1.0  0.25000  0.29110  0.60520  1.0000 0.1200350024
H   H272      1.0  0.25000  0.70890  0.39480  1.0000 0.1200350024
H   H273      1.0  0.60520  0.75000  0.70890  1.0000 0.1200350024
H   H274      1.0  0.39480  0.75000  0.29110  1.0000 0.1200350024
H   H275      1.0  0.60520  0.25000  0.29110  1.0000 0.1200350024
H   H276      1.0  0.39480  0.25000  0.70890  1.0000 0.1200350024
H   H277      1.0  0.19210  0.29470  0.14850  1.0000 0.1200350024
H   H278      1.0  0.80790  0.70530  0.14850  1.0000 0.1200350024
H   H279      1.0  0.80790  0.29470  0.85150  1.0000 0.1200350024
H   H280      1.0  0.19210  0.70530  0.85150  1.0000 0.1200350024
H   H281      1.0  0.14850  0.19210  0.29470  1.0000 0.1200350024
H   H282      1.0  0.14850  0.80790  0.70530  1.0000 0.1200350024
H   H283      1.0  0.85150  0.80790  0.29470  1.0000 0.1200350024
H   H284      1.0  0.85150  0.19210  0.70530  1.0000 0.1200350024
H   H285      1.0  0.29470  0.14850  0.19210  1.0000 0.1200350024
H   H286      1.0  0.70530  0.14850  0.80790  1.0000 0.1200350024
H   H287      1.0  0.29470  0.85150  0.80790  1.0000 0.1200350024
H   H288      1.0  0.70530  0.85150  0.19210  1.0000 0.1200350024
H   H289      1.0  0.80790  0.70530  0.85150  1.0000 0.1200350024
H   H290      1.0  0.19210  0.29470  0.85150  1.0000 0.1200350024
H   H291      1.0  0.19210  0.70530  0.14850  1.0000 0.1200350024
H   H292      1.0  0.80790  0.29470  0.14850  1.0000 0.1200350024
H   H293      1.0  0.85150  0.80790  0.70530  1.0000 0.1200350024
H   H294      1.0  0.85150  0.19210  0.29470  1.0000 0.1200350024
H   H295      1.0  0.14850  0.19210  0.70530  1.0000 0.1200350024
H   H296      1.0  0.14850  0.80790  0.29470  1.0000 0.1200350024
H   H297      1.0  0.70530  0.85150  0.80790  1.0000 0.1200350024
H   H298      1.0  0.29470  0.85150  0.19210  1.0000 0.1200350024
H   H299      1.0  0.70530  0.14850  0.19210  1.0000 0.1200350024
H   H300      1.0  0.29470  0.14850  0.80790  1.0000 0.1200350024
H   H301      1.0  0.14090  0.29280  0.15910  1.0000 0.1200350024
H   H302      1.0  0.85910  0.70720  0.15910  1.0000 0.1200350024
H   H303      1.0  0.85910  0.29280  0.84090  1.0000 0.1200350024
H   H304      1.0  0.14090  0.70720  0.84090  1.0000 0.1200350024
H   H305      1.0  0.15910  0.14090  0.29280  1.0000 0.1200350024
H   H306      1.0  0.15910  0.85910  0.70720  1.0000 0.1200350024
H   H307      1.0  0.84090  0.85910  0.29280  1.0000 0.1200350024
H   H308      1.0  0.84090  0.14090  0.70720  1.0000 0.1200350024
H   H309      1.0  0.29280  0.15910  0.14090  1.0000 0.1200350024
H   H310      1.0  0.70720  0.15910  0.85910  1.0000 0.1200350024
H   H311      1.0  0.29280  0.84090  0.85910  1.0000 0.1200350024
H   H312      1.0  0.70720  0.84090  0.14090  1.0000 0.1200350024
H   H313      1.0  0.85910  0.70720  0.84090  1.0000 0.1200350024
H   H314      1.0  0.14090  0.29280  0.84090  1.0000 0.1200350024
H   H315      1.0  0.14090  0.70720  0.15910  1.0000 0.1200350024
H   H316      1.0  0.85910  0.29280  0.15910  1.0000 0.1200350024
H   H317      1.0  0.84090  0.85910  0.70720  1.0000 0.1200350024
H   H318      1.0  0.84090  0.14090  0.29280  1.0000 0.1200350024
H   H319      1.0  0.15910  0.14090  0.70720  1.0000 0.1200350024
H   H320      1.0  0.15910  0.85910  0.29280  1.0000 0.1200350024
H   H321      1.0  0.70720  0.84090  0.85910  1.0000 0.1200350024
H   H322      1.0  0.29280  0.84090  0.14090  1.0000 0.1200350024
H   H323      1.0  0.70720  0.15910  0.14090  1.0000 0.1200350024
H   H324      1.0  0.29280  0.15910  0.85910  1.0000 0.1200350024
H   H325      1.0  0.17480  0.26670  0.18920  1.0000 0.1200350024
H   H326      1.0  0.82520  0.73330  0.18920  1.0000 0.1200350024
H   H327      1.0  0.82520  0.26670  0.81080  1.0000 0.1200350024
H   H328      1.0  0.17480  0.73330  0.81080  1.0000 0.1200350024
H   H329      1.0  0.18920  0.17480  0.26670  1.0000 0.1200350024
H   H330      1.0  0.18920  0.82520  0.73330  1.0000 0.1200350024
H   H331      1.0  0.81080  0.82520  0.26670  1.0000 0.1200350024
H   H332      1.0  0.81080  0.17480  0.73330  1.0000 0.1200350024
H   H333      1.0  0.26670  0.18920  0.17480  1.0000 0.1200350024
H   H334      1.0  0.73330  0.18920  0.82520  1.0000 0.1200350024
H   H335      1.0  0.26670  0.81080  0.82520  1.0000 0.1200350024
H   H336      1.0  0.73330  0.81080  0.17480  1.0000 0.1200350024
H   H337      1.0  0.82520  0.73330  0.81080  1.0000 0.1200350024
H   H338      1.0  0.17480  0.26670  0.81080  1.0000 0.1200350024
H   H339      1.0  0.17480  0.73330  0.18920  1.0000 0.1200350024
H   H340      1.0  0.82520  0.26670  0.18920  1.0000 0.1200350024
H   H341      1.0  0.81080  0.82520  0.73330  1.0000 0.1200350024
H   H342      1.0  0.81080  0.17480  0.26670  1.0000 0.1200350024
H   H343      1.0  0.18920  0.17480  0.73330  1.0000 0.1200350024
H   H344      1.0  0.18920  0.82520  0.26670  1.0000 0.1200350024
H   H345      1.0  0.73330  0.81080  0.82520  1.0000 0.1200350024
H   H346      1.0  0.26670  0.81080  0.17480  1.0000 0.1200350024
H   H347      1.0  0.73330  0.18920  0.17480  1.0000 0.1200350024
H   H348      1.0  0.26670  0.18920  0.82520  1.0000 0.1200350024
C   C1        1.0  0.40397  0.50000  0.00000  1.0000 0.6018798879
C   C2        1.0  0.59603  0.50000  0.00000  1.0000 0.6018798879
C   C3        1.0  0.00000  0.40397  0.50000  1.0000 0.6018798879
C   C4        1.0  0.00000  0.59603  0.50000  1.0000 0.6018798879
C   C5        1.0  0.50000  0.00000  0.40397  1.0000 0.6018798879
C   C6        1.0  0.50000  0.00000  0.59603  1.0000 0.6018798879
C   C7        1.0  0.16747  0.50000  0.00000  1.0000 0.6074042253
C   C8        1.0  0.83253  0.50000  0.00000  1.0000 0.6074042253
C   C9        1.0  0.00000  0.16747  0.50000  1.0000 0.6074042253
C   C10       1.0  0.00000  0.83253  0.50000  1.0000 0.6074042253
C   C11       1.0  0.50000  0.00000  0.16747  1.0000 0.6074042253
C   C12       1.0  0.50000  0.00000  0.83253  1.0000 0.6074042253
C   C13       1.0  0.28586  0.41532  0.08417  1.0000 0.6018798879
C   C14       1.0  0.71414  0.58468  0.08417  1.0000 0.6018798879
C   C15       1.0  0.71414  0.41532  0.91583  1.0000 0.6018798879
C   C16       1.0  0.28586  0.58468  0.91583  1.0000 0.6018798879
C   C17       1.0  0.08417  0.28586  0.41532  1.0000 0.6018798879
C   C18       1.0  0.08417  0.71414  0.58468  1.0000 0.6018798879
C   C19       1.0  0.91583  0.71414  0.41532  1.0000 0.6018798879
C   C20       1.0  0.91583  0.28586  0.58468  1.0000 0.6018798879
C   C21       1.0  0.41532  0.08417  0.28586  1.0000 0.6018798879
C   C22       1.0  0.58468  0.08417  0.71414  1.0000 0.6018798879
C   C23       1.0  0.41532  0.91583  0.71414  1.0000 0.6018798879
C   C24       1.0  0.58468  0.91583  0.28586  1.0000 0.6018798879
C   C25       1.0  0.71414  0.58468  0.91583  1.0000 0.6018798879
C   C26       1.0  0.28586  0.41532  0.91583  1.0000 0.6018798879
C   C27       1.0  0.28586  0.58468  0.08417  1.0000 0.6018798879
C   C28       1.0  0.71414  0.41532  0.08417  1.0000 0.6018798879
C   C29       1.0  0.91583  0.71414  0.58468  1.0000 0.6018798879
C   C30       1.0  0.91583  0.28586  0.41532  1.0000 0.6018798879
C   C31       1.0  0.08417  0.28586  0.58468  1.0000 0.6018798879
C   C32       1.0  0.08417  0.71414  0.41532  1.0000 0.6018798879
C   C33       1.0  0.58468  0.91583  0.71414  1.0000 0.6018798879
C   C34       1.0  0.41532  0.91583  0.28586  1.0000 0.6018798879
C   C35       1.0  0.58468  0.08417  0.28586  1.0000 0.6018798879
C   C36       1.0  0.41532  0.08417  0.71414  1.0000 0.6018798879
C   C37       1.0  0.45384  0.50000  0.00000  1.0000 -0.0462693093
C   C38       1.0  0.54616  0.50000  0.00000  1.0000 -0.0462693093
C   C39       1.0  0.00000  0.45384  0.50000  1.0000 -0.0462693093
C   C40       1.0  0.00000  0.54616  0.50000  1.0000 -0.0462693093
C   C41       1.0  0.50000  0.00000  0.45384  1.0000 -0.0462693093
C   C42       1.0  0.50000  0.00000  0.54616  1.0000 -0.0462693093
C   C43       1.0  0.28716  0.31401  0.18450  1.0000 0.0423370085
C   C44       1.0  0.71284  0.68599  0.18450  1.0000 0.0423370085
C   C45       1.0  0.71284  0.31401  0.81550  1.0000 0.0423370085
C   C46       1.0  0.28716  0.68599  0.81550  1.0000 0.0423370085
C   C47       1.0  0.18450  0.28716  0.31401  1.0000 0.0423370085
C   C48       1.0  0.18450  0.71284  0.68599  1.0000 0.0423370085
C   C49       1.0  0.81550  0.71284  0.31401  1.0000 0.0423370085
C   C50       1.0  0.81550  0.28716  0.68599  1.0000 0.0423370085
C   C51       1.0  0.31401  0.18450  0.28716  1.0000 0.0423370085
C   C52       1.0  0.68599  0.18450  0.71284  1.0000 0.0423370085
C   C53       1.0  0.31401  0.81550  0.71284  1.0000 0.0423370085
C   C54       1.0  0.68599  0.81550  0.28716  1.0000 0.0423370085
C   C55       1.0  0.71284  0.68599  0.81550  1.0000 0.0423370085
C   C56       1.0  0.28716  0.31401  0.81550  1.0000 0.0423370085
C   C57       1.0  0.28716  0.68599  0.18450  1.0000 0.0423370085
C   C58       1.0  0.71284  0.31401  0.18450  1.0000 0.0423370085
C   C59       1.0  0.81550  0.71284  0.68599  1.0000 0.0423370085
C   C60       1.0  0.81550  0.28716  0.31401  1.0000 0.0423370085
C   C61       1.0  0.18450  0.28716  0.68599  1.0000 0.0423370085
C   C62       1.0  0.18450  0.71284  0.31401  1.0000 0.0423370085
C   C63       1.0  0.68599  0.81550  0.71284  1.0000 0.0423370085
C   C64       1.0  0.31401  0.81550  0.28716  1.0000 0.0423370085
C   C65       1.0  0.68599  0.18450  0.28716  1.0000 0.0423370085
C   C66       1.0  0.31401  0.18450  0.71284  1.0000 0.0423370085
C   C67       1.0  0.11783  0.50000  0.00000  1.0000 -0.0678025241
C   C68       1.0  0.88217  0.50000  0.00000  1.0000 -0.0678025241
C   C69       1.0  0.00000  0.11783  0.50000  1.0000 -0.0678025241
C   C70       1.0  0.00000  0.88217  0.50000  1.0000 -0.0678025241
C   C71       1.0  0.50000  0.00000  0.11783  1.0000 -0.0678025241
C   C72       1.0  0.50000  0.00000  0.88217  1.0000 -0.0678025241
C   C73       1.0  0.25462  0.34666  0.18499  1.0000 0.0288630992
C   C74       1.0  0.74538  0.65334  0.18499  1.0000 0.0288630992
C   C75       1.0  0.74538  0.34666  0.81501  1.0000 0.0288630992
C   C76       1.0  0.25462  0.65334  0.81501  1.0000 0.0288630992
C   C77       1.0  0.18499  0.25462  0.34666  1.0000 0.0288630992
C   C78       1.0  0.18499  0.74538  0.65334  1.0000 0.0288630992
C   C79       1.0  0.81501  0.74538  0.34666  1.0000 0.0288630992
C   C80       1.0  0.81501  0.25462  0.65334  1.0000 0.0288630992
C   C81       1.0  0.34666  0.18499  0.25462  1.0000 0.0288630992
C   C82       1.0  0.65334  0.18499  0.74538  1.0000 0.0288630992
C   C83       1.0  0.34666  0.81501  0.74538  1.0000 0.0288630992
C   C84       1.0  0.65334  0.81501  0.25462  1.0000 0.0288630992
C   C85       1.0  0.74538  0.65334  0.81501  1.0000 0.0288630992
C   C86       1.0  0.25462  0.34666  0.81501  1.0000 0.0288630992
C   C87       1.0  0.25462  0.65334  0.18499  1.0000 0.0288630992
C   C88       1.0  0.74538  0.34666  0.18499  1.0000 0.0288630992
C   C89       1.0  0.81501  0.74538  0.65334  1.0000 0.0288630992
C   C90       1.0  0.81501  0.25462  0.34666  1.0000 0.0288630992
C   C91       1.0  0.18499  0.25462  0.65334  1.0000 0.0288630992
C   C92       1.0  0.18499  0.74538  0.34666  1.0000 0.0288630992
C   C93       1.0  0.65334  0.81501  0.74538  1.0000 0.0288630992
C   C94       1.0  0.34666  0.81501  0.25462  1.0000 0.0288630992
C   C95       1.0  0.65334  0.18499  0.25462  1.0000 0.0288630992
C   C96       1.0  0.34666  0.18499  0.74538  1.0000 0.0288630992
C   C97       1.0  0.25440  0.38023  0.15247  1.0000 -0.1579342434
C   C98       1.0  0.74560  0.61977  0.15247  1.0000 -0.1579342434
C   C99       1.0  0.74560  0.38023  0.84753  1.0000 -0.1579342434
C   C100      1.0  0.25440  0.61977  0.84753  1.0000 -0.1579342434
C   C101      1.0  0.15247  0.25440  0.38023  1.0000 -0.1579342434
C   C102      1.0  0.15247  0.74560  0.61977  1.0000 -0.1579342434
C   C103      1.0  0.84753  0.74560  0.38023  1.0000 -0.1579342434
C   C104      1.0  0.84753  0.25440  0.61977  1.0000 -0.1579342434
C   C105      1.0  0.38023  0.15247  0.25440  1.0000 -0.1579342434
C   C106      1.0  0.61977  0.15247  0.74560  1.0000 -0.1579342434
C   C107      1.0  0.38023  0.84753  0.74560  1.0000 -0.1579342434
C   C108      1.0  0.61977  0.84753  0.25440  1.0000 -0.1579342434
C   C109      1.0  0.74560  0.61977  0.84753  1.0000 -0.1579342434
C   C110      1.0  0.25440  0.38023  0.84753  1.0000 -0.1579342434
C   C111      1.0  0.25440  0.61977  0.15247  1.0000 -0.1579342434
C   C112      1.0  0.74560  0.38023  0.15247  1.0000 -0.1579342434
C   C113      1.0  0.84753  0.74560  0.61977  1.0000 -0.1579342434
C   C114      1.0  0.84753  0.25440  0.38023  1.0000 -0.1579342434
C   C115      1.0  0.15247  0.25440  0.61977  1.0000 -0.1579342434
C   C116      1.0  0.15247  0.74560  0.38023  1.0000 -0.1579342434
C   C117      1.0  0.61977  0.84753  0.74560  1.0000 -0.1579342434
C   C118      1.0  0.38023  0.84753  0.25440  1.0000 -0.1579342434
C   C119      1.0  0.61977  0.15247  0.25440  1.0000 -0.1579342434
C   C120      1.0  0.38023  0.15247  0.74560  1.0000 -0.1579342434
C   C121      1.0  0.47683  0.46073  0.00000  1.0000 -0.0848462128
C   C122      1.0  0.52317  0.53927  0.00000  1.0000 -0.0848462128
C   C123      1.0  0.52317  0.46073  0.00000  1.0000 -0.0848462128
C   C124      1.0  0.47683  0.53927  0.00000  1.0000 -0.0848462128
C   C125      1.0  0.00000  0.47683  0.46073  1.0000 -0.0848462128
C   C126      1.0  0.00000  0.52317  0.53927  1.0000 -0.0848462128
C   C127      1.0  0.00000  0.52317  0.46073  1.0000 -0.0848462128
C   C128      1.0  0.00000  0.47683  0.53927  1.0000 -0.0848462128
C   C129      1.0  0.46073  0.00000  0.47683  1.0000 -0.0848462128
C   C130      1.0  0.53927  0.00000  0.52317  1.0000 -0.0848462128
C   C131      1.0  0.46073  0.00000  0.52317  1.0000 -0.0848462128
C   C132      1.0  0.53927  0.00000  0.47683  1.0000 -0.0848462128
C   C133      1.0  0.02485  0.50000  0.00000  1.0000 0.080167288
C   C134      1.0  0.97515  0.50000  0.00000  1.0000 0.080167288
C   C135      1.0  0.00000  0.02485  0.50000  1.0000 0.080167288
C   C136      1.0  0.00000  0.97515  0.50000  1.0000 0.080167288
C   C137      1.0  0.50000  0.00000  0.02485  1.0000 0.080167288
C   C138      1.0  0.50000  0.00000  0.97515  1.0000 0.080167288
C   C139      1.0  0.31823  0.34672  0.11890  1.0000 -0.0934685866
C   C140      1.0  0.68177  0.65328  0.11890  1.0000 -0.0934685866
C   C141      1.0  0.68177  0.34672  0.88110  1.0000 -0.0934685866
C   C142      1.0  0.31823  0.65328  0.88110  1.0000 -0.0934685866
C   C143      1.0  0.11890  0.31823  0.34672  1.0000 -0.0934685866
C   C144      1.0  0.11890  0.68177  0.65328  1.0000 -0.0934685866
C   C145      1.0  0.88110  0.68177  0.34672  1.0000 -0.0934685866
C   C146      1.0  0.88110  0.31823  0.65328  1.0000 -0.0934685866
C   C147      1.0  0.34672  0.11890  0.31823  1.0000 -0.0934685866
C   C148      1.0  0.65328  0.11890  0.68177  1.0000 -0.0934685866
C   C149      1.0  0.34672  0.88110  0.68177  1.0000 -0.0934685866
C   C150      1.0  0.65328  0.88110  0.31823  1.0000 -0.0934685866
C   C151      1.0  0.68177  0.65328  0.88110  1.0000 -0.0934685866
C   C152      1.0  0.31823  0.34672  0.88110  1.0000 -0.0934685866
C   C153      1.0  0.31823  0.65328  0.11890  1.0000 -0.0934685866
C   C154      1.0  0.68177  0.34672  0.11890  1.0000 -0.0934685866
C   C155      1.0  0.88110  0.68177  0.65328  1.0000 -0.0934685866
C   C156      1.0  0.88110  0.31823  0.34672  1.0000 -0.0934685866
C   C157      1.0  0.11890  0.31823  0.65328  1.0000 -0.0934685866
C   C158      1.0  0.11890  0.68177  0.34672  1.0000 -0.0934685866
C   C159      1.0  0.65328  0.88110  0.68177  1.0000 -0.0934685866
C   C160      1.0  0.34672  0.88110  0.31823  1.0000 -0.0934685866
C   C161      1.0  0.65328  0.11890  0.31823  1.0000 -0.0934685866
C   C162      1.0  0.34672  0.11890  0.68177  1.0000 -0.0934685866
C   C163      1.0  0.28602  0.37995  0.11938  1.0000 -0.0354116589
C   C164      1.0  0.71398  0.62005  0.11938  1.0000 -0.0354116589
C   C165      1.0  0.71398  0.37995  0.88062  1.0000 -0.0354116589
C   C166      1.0  0.28602  0.62005  0.88062  1.0000 -0.0354116589
C   C167      1.0  0.11938  0.28602  0.37995  1.0000 -0.0354116589
C   C168      1.0  0.11938  0.71398  0.62005  1.0000 -0.0354116589
C   C169      1.0  0.88062  0.71398  0.37995  1.0000 -0.0354116589
C   C170      1.0  0.88062  0.28602  0.62005  1.0000 -0.0354116589
C   C171      1.0  0.37995  0.11938  0.28602  1.0000 -0.0354116589
C   C172      1.0  0.62005  0.11938  0.71398  1.0000 -0.0354116589
C   C173      1.0  0.37995  0.88062  0.71398  1.0000 -0.0354116589
C   C174      1.0  0.62005  0.88062  0.28602  1.0000 -0.0354116589
C   C175      1.0  0.71398  0.62005  0.88062  1.0000 -0.0354116589
C   C176      1.0  0.28602  0.37995  0.88062  1.0000 -0.0354116589
C   C177      1.0  0.28602  0.62005  0.11938  1.0000 -0.0354116589
C   C178      1.0  0.71398  0.37995  0.11938  1.0000 -0.0354116589
C   C179      1.0  0.88062  0.71398  0.62005  1.0000 -0.0354116589
C   C180      1.0  0.88062  0.28602  0.37995  1.0000 -0.0354116589
C   C181      1.0  0.11938  0.28602  0.62005  1.0000 -0.0354116589
C   C182      1.0  0.11938  0.71398  0.37995  1.0000 -0.0354116589
C   C183      1.0  0.62005  0.88062  0.71398  1.0000 -0.0354116589
C   C184      1.0  0.37995  0.88062  0.28602  1.0000 -0.0354116589
C   C185      1.0  0.62005  0.11938  0.28602  1.0000 -0.0354116589
C   C186      1.0  0.37995  0.11938  0.71398  1.0000 -0.0354116589
C   C187      1.0  0.27829  0.28315  0.22372  1.0000 -0.0462693093
C   C188      1.0  0.72171  0.71685  0.22372  1.0000 -0.0462693093
C   C189      1.0  0.72171  0.28315  0.77628  1.0000 -0.0462693093
C   C190      1.0  0.27829  0.71685  0.77628  1.0000 -0.0462693093
C   C191      1.0  0.22372  0.27829  0.28315  1.0000 -0.0462693093
C   C192      1.0  0.22372  0.72171  0.71685  1.0000 -0.0462693093
C   C193      1.0  0.77628  0.72171  0.28315  1.0000 -0.0462693093
C   C194      1.0  0.77628  0.27829  0.71685  1.0000 -0.0462693093
C   C195      1.0  0.28315  0.22372  0.27829  1.0000 -0.0462693093
C   C196      1.0  0.71685  0.22372  0.72171  1.0000 -0.0462693093
C   C197      1.0  0.28315  0.77628  0.72171  1.0000 -0.0462693093
C   C198      1.0  0.71685  0.77628  0.27829  1.0000 -0.0462693093
C   C199      1.0  0.72171  0.71685  0.77628  1.0000 -0.0462693093
C   C200      1.0  0.27829  0.28315  0.77628  1.0000 -0.0462693093
C   C201      1.0  0.27829  0.71685  0.22372  1.0000 -0.0462693093
C   C202      1.0  0.72171  0.28315  0.22372  1.0000 -0.0462693093
C   C203      1.0  0.77628  0.72171  0.71685  1.0000 -0.0462693093
C   C204      1.0  0.77628  0.27829  0.28315  1.0000 -0.0462693093
C   C205      1.0  0.22372  0.27829  0.71685  1.0000 -0.0462693093
C   C206      1.0  0.22372  0.72171  0.28315  1.0000 -0.0462693093
C   C207      1.0  0.71685  0.77628  0.72171  1.0000 -0.0462693093
C   C208      1.0  0.28315  0.77628  0.27829  1.0000 -0.0462693093
C   C209      1.0  0.71685  0.22372  0.27829  1.0000 -0.0462693093
C   C210      1.0  0.28315  0.22372  0.72171  1.0000 -0.0462693093
C   C211      1.0  0.31927  0.31385  0.15148  1.0000 -0.1710638758
C   C212      1.0  0.68073  0.68615  0.15148  1.0000 -0.1710638758
C   C213      1.0  0.68073  0.31385  0.84852  1.0000 -0.1710638758
C   C214      1.0  0.31927  0.68615  0.84852  1.0000 -0.1710638758
C   C215      1.0  0.15148  0.31927  0.31385  1.0000 -0.1710638758
C   C216      1.0  0.15148  0.68073  0.68615  1.0000 -0.1710638758
C   C217      1.0  0.84852  0.68073  0.31385  1.0000 -0.1710638758
C   C218      1.0  0.84852  0.31927  0.68615  1.0000 -0.1710638758
C   C219      1.0  0.31385  0.15148  0.31927  1.0000 -0.1710638758
C   C220      1.0  0.68615  0.15148  0.68073  1.0000 -0.1710638758
C   C221      1.0  0.31385  0.84852  0.68073  1.0000 -0.1710638758
C   C222      1.0  0.68615  0.84852  0.31927  1.0000 -0.1710638758
C   C223      1.0  0.68073  0.68615  0.84852  1.0000 -0.1710638758
C   C224      1.0  0.31927  0.31385  0.84852  1.0000 -0.1710638758
C   C225      1.0  0.31927  0.68615  0.15148  1.0000 -0.1710638758
C   C226      1.0  0.68073  0.31385  0.15148  1.0000 -0.1710638758
C   C227      1.0  0.84852  0.68073  0.68615  1.0000 -0.1710638758
C   C228      1.0  0.84852  0.31927  0.31385  1.0000 -0.1710638758
C   C229      1.0  0.15148  0.31927  0.68615  1.0000 -0.1710638758
C   C230      1.0  0.15148  0.68073  0.31385  1.0000 -0.1710638758
C   C231      1.0  0.68615  0.84852  0.68073  1.0000 -0.1710638758
C   C232      1.0  0.31385  0.84852  0.31927  1.0000 -0.1710638758
C   C233      1.0  0.68615  0.15148  0.31927  1.0000 -0.1710638758
C   C234      1.0  0.31385  0.15148  0.68073  1.0000 -0.1710638758
C   C235      1.0  0.09464  0.50000  0.03796  1.0000 -0.0934685866
C   C236      1.0  0.90536  0.50000  0.03796  1.0000 -0.0934685866
C   C237      1.0  0.90536  0.50000  0.96204  1.0000 -0.0934685866
C   C238      1.0  0.09464  0.50000  0.96204  1.0000 -0.0934685866
C   C239      1.0  0.03796  0.09464  0.50000  1.0000 -0.0934685866
C   C240      1.0  0.03796  0.90536  0.50000  1.0000 -0.0934685866
C   C241      1.0  0.96204  0.90536  0.50000  1.0000 -0.0934685866
C   C242      1.0  0.96204  0.09464  0.50000  1.0000 -0.0934685866
C   C243      1.0  0.50000  0.03796  0.09464  1.0000 -0.0934685866
C   C244      1.0  0.50000  0.03796  0.90536  1.0000 -0.0934685866
C   C245      1.0  0.50000  0.96204  0.90536  1.0000 -0.0934685866
C   C246      1.0  0.50000  0.96204  0.09464  1.0000 -0.0934685866
C   C247      1.0  0.04826  0.50000  0.03765  1.0000 -0.1710638758
C   C248      1.0  0.95174  0.50000  0.03765  1.0000 -0.1579342434
C   C249      1.0  0.95174  0.50000  0.96235  1.0000 -0.1579342434
C   C250      1.0  0.04826  0.50000  0.96235  1.0000 -0.1710638758
C   C251      1.0  0.03765  0.04826  0.50000  1.0000 -0.1579342434
C   C252      1.0  0.03765  0.95174  0.50000  1.0000 -0.1579342434
C   C253      1.0  0.96235  0.95174  0.50000  1.0000 -0.1579342434
C   C254      1.0  0.96235  0.04826  0.50000  1.0000 -0.1579342434
C   C255      1.0  0.50000  0.03765  0.04826  1.0000 -0.1579342434
C   C256      1.0  0.50000  0.03765  0.95174  1.0000 -0.1579342434
C   C257      1.0  0.50000  0.96235  0.95174  1.0000 -0.1579342434
C   C258      1.0  0.50000  0.96235  0.04826  1.0000 -0.1579342434
C   C259      1.0  0.24013  0.29969  0.24539  1.0000 -0.0214134625
C   C260      1.0  0.75987  0.70031  0.24539  1.0000 -0.0214134625
C   C261      1.0  0.75987  0.29969  0.75461  1.0000 -0.0214134625
C   C262      1.0  0.24013  0.70031  0.75461  1.0000 -0.0214134625
C   C263      1.0  0.24539  0.24013  0.29969  1.0000 -0.0214134625
C   C264      1.0  0.24539  0.75987  0.70031  1.0000 -0.0214134625
C   C265      1.0  0.75461  0.75987  0.29969  1.0000 -0.0214134625
C   C266      1.0  0.75461  0.24013  0.70031  1.0000 -0.0214134625
C   C267      1.0  0.29969  0.24539  0.24013  1.0000 -0.0214134625
C   C268      1.0  0.70031  0.24539  0.75987  1.0000 -0.0214134625
C   C269      1.0  0.29969  0.75461  0.75987  1.0000 -0.0214134625
C   C270      1.0  0.70031  0.75461  0.24013  1.0000 -0.0214134625
C   C271      1.0  0.75987  0.70031  0.75461  1.0000 -0.0214134625
C   C272      1.0  0.24013  0.29969  0.75461  1.0000 -0.0214134625
C   C273      1.0  0.24013  0.70031  0.24539  1.0000 -0.0214134625
C   C274      1.0  0.75987  0.29969  0.24539  1.0000 -0.0214134625
C   C275      1.0  0.75461  0.75987  0.70031  1.0000 -0.0214134625
C   C276      1.0  0.75461  0.24013  0.29969  1.0000 -0.0214134625
C   C277      1.0  0.24539  0.24013  0.70031  1.0000 -0.0214134625
C   C278      1.0  0.24539  0.75987  0.29969  1.0000 -0.0214134625
C   C279      1.0  0.70031  0.75461  0.75987  1.0000 -0.0214134625
C   C280      1.0  0.29969  0.75461  0.24013  1.0000 -0.0214134625
C   C281      1.0  0.70031  0.24539  0.24013  1.0000 -0.0214134625
C   C282      1.0  0.29969  0.24539  0.75987  1.0000 -0.0214134625
C   C283      1.0  0.22212  0.34178  0.22261  1.0000 0.0960617097
C   C284      1.0  0.77788  0.65822  0.22261  1.0000 0.0960617097
C   C285      1.0  0.77788  0.34178  0.77739  1.0000 0.0960617097
C   C286      1.0  0.22212  0.65822  0.77739  1.0000 0.0960617097
C   C287      1.0  0.22261  0.22212  0.34178  1.0000 0.0960617097
C   C288      1.0  0.22261  0.77788  0.65822  1.0000 0.0960617097
C   C289      1.0  0.77739  0.77788  0.34178  1.0000 0.0960617097
C   C290      1.0  0.77739  0.22212  0.65822  1.0000 0.0960617097
C   C291      1.0  0.34178  0.22261  0.22212  1.0000 0.0960617097
C   C292      1.0  0.65822  0.22261  0.77788  1.0000 0.0960617097
C   C293      1.0  0.34178  0.77739  0.77788  1.0000 0.0960617097
C   C294      1.0  0.65822  0.77739  0.22212  1.0000 0.0960617097
C   C295      1.0  0.77788  0.65822  0.77739  1.0000 0.0960617097
C   C296      1.0  0.22212  0.34178  0.77739  1.0000 0.0960617097
C   C297      1.0  0.22212  0.65822  0.22261  1.0000 0.0960617097
C   C298      1.0  0.77788  0.34178  0.22261  1.0000 0.0960617097
C   C299      1.0  0.77739  0.77788  0.65822  1.0000 0.0960617097
C   C300      1.0  0.77739  0.22212  0.34178  1.0000 0.0960617097
C   C301      1.0  0.22261  0.22212  0.65822  1.0000 0.0960617097
C   C302      1.0  0.22261  0.77788  0.34178  1.0000 0.0960617097
C   C303      1.0  0.65822  0.77739  0.77788  1.0000 0.0960617097
C   C304      1.0  0.34178  0.77739  0.22212  1.0000 0.0960617097
C   C305      1.0  0.65822  0.22261  0.22212  1.0000 0.0960617097
C   C306      1.0  0.34178  0.22261  0.77788  1.0000 0.0960617097
C   C307      1.0  0.17496  0.33469  0.20237  1.0000 -0.194934807
C   C308      1.0  0.82504  0.66531  0.20237  1.0000 -0.194934807
C   C309      1.0  0.82504  0.33469  0.79763  1.0000 -0.194934807
C   C310      1.0  0.17496  0.66531  0.79763  1.0000 -0.194934807
C   C311      1.0  0.20237  0.17496  0.33469  1.0000 -0.194934807
C   C312      1.0  0.20237  0.82504  0.66531  1.0000 -0.1996408071
C   C313      1.0  0.79763  0.82504  0.33469  1.0000 -0.194934807
C   C314      1.0  0.79763  0.17496  0.66531  1.0000 -0.194934807
C   C315      1.0  0.33469  0.20237  0.17496  1.0000 -0.194934807
C   C316      1.0  0.66531  0.20237  0.82504  1.0000 -0.194934807
C   C317      1.0  0.33469  0.79763  0.82504  1.0000 -0.194934807
C   C318      1.0  0.66531  0.79763  0.17496  1.0000 -0.194934807
C   C319      1.0  0.82504  0.66531  0.79763  1.0000 -0.194934807
C   C320      1.0  0.17496  0.33469  0.79763  1.0000 -0.194934807
C   C321      1.0  0.17496  0.66531  0.20237  1.0000 -0.194934807
C   C322      1.0  0.82504  0.33469  0.20237  1.0000 -0.194934807
C   C323      1.0  0.79763  0.82504  0.66531  1.0000 -0.194934807
C   C324      1.0  0.79763  0.17496  0.33469  1.0000 -0.194934807
C   C325      1.0  0.20237  0.17496  0.66531  1.0000 -0.194934807
C   C326      1.0  0.20237  0.82504  0.33469  1.0000 -0.194934807
C   C327      1.0  0.66531  0.79763  0.82504  1.0000 -0.194934807
C   C328      1.0  0.33469  0.79763  0.17496  1.0000 -0.194934807
C   C329      1.0  0.66531  0.20237  0.17496  1.0000 -0.194934807
C   C330      1.0  0.33469  0.20237  0.82504  1.0000 -0.194934807
C   C331      1.0  0.22377  0.38357  0.25234  1.0000 -0.1996408071
C   C332      1.0  0.77623  0.61643  0.25234  1.0000 -0.1996408071
C   C333      1.0  0.77623  0.38357  0.74766  1.0000 -0.1996408071
C   C334      1.0  0.22377  0.61643  0.74766  1.0000 -0.1996408071
C   C335      1.0  0.25234  0.22377  0.38357  1.0000 -0.1996408071
C   C336      1.0  0.25234  0.77623  0.61643  1.0000 -0.1996408071
C   C337      1.0  0.74766  0.77623  0.38357  1.0000 -0.1996408071
C   C338      1.0  0.74766  0.22377  0.61643  1.0000 -0.1996408071
C   C339      1.0  0.38357  0.25234  0.22377  1.0000 -0.1996408071
C   C340      1.0  0.61643  0.25234  0.77623  1.0000 -0.1996408071
C   C341      1.0  0.38357  0.74766  0.77623  1.0000 -0.1996408071
C   C342      1.0  0.61643  0.74766  0.22377  1.0000 -0.1996408071
C   C343      1.0  0.77623  0.61643  0.74766  1.0000 -0.1996408071
C   C344      1.0  0.22377  0.38357  0.74766  1.0000 -0.1996408071
C   C345      1.0  0.22377  0.61643  0.25234  1.0000 -0.1996408071
C   C346      1.0  0.77623  0.38357  0.25234  1.0000 -0.1996408071
C   C347      1.0  0.74766  0.77623  0.61643  1.0000 -0.1996408071
C   C348      1.0  0.74766  0.22377  0.38357  1.0000 -0.1996408071
C   C349      1.0  0.25234  0.22377  0.61643  1.0000 -0.1996408071
C   C350      1.0  0.25234  0.77623  0.38357  1.0000 -0.1996408071
C   C351      1.0  0.61643  0.74766  0.77623  1.0000 -0.1996408071
C   C352      1.0  0.38357  0.74766  0.22377  1.0000 -0.1996408071
C   C353      1.0  0.61643  0.25234  0.22377  1.0000 -0.1996408071
C   C354      1.0  0.38357  0.25234  0.77623  1.0000 -0.1996408071
C   C355      1.0  0.26900  0.39290  0.27310  1.0000 -0.3580564999
C   C356      1.0  0.73100  0.60710  0.27310  1.0000 -0.3580564999
C   C357      1.0  0.73100  0.39290  0.72690  1.0000 -0.3580564999
C   C358      1.0  0.26900  0.60710  0.72690  1.0000 -0.3580564999
C   C359      1.0  0.27310  0.26900  0.39290  1.0000 -0.3580564999
C   C360      1.0  0.27310  0.73100  0.60710  1.0000 -0.3580564999
C   C361      1.0  0.72690  0.73100  0.39290  1.0000 -0.3580564999
C   C362      1.0  0.72690  0.26900  0.60710  1.0000 -0.3580564999
C   C363      1.0  0.39290  0.27310  0.26900  1.0000 -0.3580564999
C   C364      1.0  0.60710  0.27310  0.73100  1.0000 -0.3580564999
C   C365      1.0  0.39290  0.72690  0.73100  1.0000 -0.3580564999
C   C366      1.0  0.60710  0.72690  0.26900  1.0000 -0.3580564999
C   C367      1.0  0.73100  0.60710  0.72690  1.0000 -0.3580564999
C   C368      1.0  0.26900  0.39290  0.72690  1.0000 -0.3580564999
C   C369      1.0  0.26900  0.60710  0.27310  1.0000 -0.3580564999
C   C370      1.0  0.73100  0.39290  0.27310  1.0000 -0.3580564999
C   C371      1.0  0.72690  0.73100  0.60710  1.0000 -0.3580564999
C   C372      1.0  0.72690  0.26900  0.39290  1.0000 -0.3580564999
C   C373      1.0  0.27310  0.26900  0.60710  1.0000 -0.3580564999
C   C374      1.0  0.27310  0.73100  0.39290  1.0000 -0.3580564999
C   C375      1.0  0.60710  0.72690  0.73100  1.0000 -0.3580564999
C   C376      1.0  0.39290  0.72690  0.26900  1.0000 -0.3580564999
C   C377      1.0  0.60710  0.27310  0.26900  1.0000 -0.3580564999
C   C378      1.0  0.39290  0.27310  0.73100  1.0000 -0.3580564999
C   C379      1.0  0.17024  0.29329  0.17190  1.0000 -0.3580564999
C   C380      1.0  0.82976  0.70671  0.17190  1.0000 -0.3580564999
C   C381      1.0  0.82976  0.29329  0.82810  1.0000 -0.3580564999
C   C382      1.0  0.17024  0.70671  0.82810  1.0000 -0.3580564999
C   C383      1.0  0.17190  0.17024  0.29329  1.0000 -0.3580564999
C   C384      1.0  0.17190  0.82976  0.70671  1.0000 -0.3580564999
C   C385      1.0  0.82810  0.82976  0.29329  1.0000 -0.3580564999
C   C386      1.0  0.82810  0.17024  0.70671  1.0000 -0.3580564999
C   C387      1.0  0.29329  0.17190  0.17024  1.0000 -0.3580564999
C   C388      1.0  0.70671  0.17190  0.82976  1.0000 -0.3580564999
C   C389      1.0  0.29329  0.82810  0.82976  1.0000 -0.3580564999
C   C390      1.0  0.70671  0.82810  0.17024  1.0000 -0.3580564999
C   C391      1.0  0.82976  0.70671  0.82810  1.0000 -0.3580564999
C   C392      1.0  0.17024  0.29329  0.82810  1.0000 -0.3580564999
C   C393      1.0  0.17024  0.70671  0.17190  1.0000 -0.3580564999
C   C394      1.0  0.82976  0.29329  0.17190  1.0000 -0.3580564999
C   C395      1.0  0.82810  0.82976  0.70671  1.0000 -0.3580564999
C   C396      1.0  0.82810  0.17024  0.29329  1.0000 -0.3580564999
C   C397      1.0  0.17190  0.17024  0.70671  1.0000 -0.3580564999
C   C398      1.0  0.17190  0.82976  0.29329  1.0000 -0.3580564999
C   C399      1.0  0.70671  0.82810  0.82976  1.0000 -0.3580564999
C   C400      1.0  0.29329  0.82810  0.17024  1.0000 -0.3580564999
C   C401      1.0  0.70671  0.17190  0.17024  1.0000 -0.3580564999
C   C402      1.0  0.29329  0.17190  0.82976  1.0000 -0.3580564999
O   O1        1.0  0.28576  0.50000  0.00000  1.0000 -1.0347499021
O   O2        1.0  0.71424  0.50000  0.00000  1.0000 -1.0347499021
O   O3        1.0  0.00000  0.28576  0.50000  1.0000 -1.0347499021
O   O4        1.0  0.00000  0.71424  0.50000  1.0000 -1.0347499021
O   O5        1.0  0.50000  0.00000  0.28576  1.0000 -1.0347499021
O   O6        1.0  0.50000  0.00000  0.71424  1.0000 -1.0347499021
O   O7        1.0  0.31243  0.41069  0.05243  1.0000 -0.5419732897
O   O8        1.0  0.68757  0.58931  0.05243  1.0000 -0.5419732897
O   O9        1.0  0.68757  0.41069  0.94757  1.0000 -0.5419732897
O   O10       1.0  0.31243  0.58931  0.94757  1.0000 -0.5419732897
O   O11       1.0  0.05243  0.31243  0.41069  1.0000 -0.5419732897
O   O12       1.0  0.05243  0.68757  0.58931  1.0000 -0.5419732897
O   O13       1.0  0.94757  0.68757  0.41069  1.0000 -0.5419732897
O   O14       1.0  0.94757  0.31243  0.58931  1.0000 -0.5419732897
O   O15       1.0  0.41069  0.05243  0.31243  1.0000 -0.5419732897
O   O16       1.0  0.58931  0.05243  0.68757  1.0000 -0.5419732897
O   O17       1.0  0.41069  0.94757  0.68757  1.0000 -0.5419732897
O   O18       1.0  0.58931  0.94757  0.31243  1.0000 -0.5419732897
O   O19       1.0  0.68757  0.58931  0.94757  1.0000 -0.5419732897
O   O20       1.0  0.31243  0.41069  0.94757  1.0000 -0.5419732897
O   O21       1.0  0.31243  0.58931  0.05243  1.0000 -0.5419732897
O   O22       1.0  0.68757  0.41069  0.05243  1.0000 -0.5419732897
O   O23       1.0  0.94757  0.68757  0.58931  1.0000 -0.5419732897
O   O24       1.0  0.94757  0.31243  0.41069  1.0000 -0.5419732897
O   O25       1.0  0.05243  0.31243  0.58931  1.0000 -0.5419732897
O   O26       1.0  0.05243  0.68757  0.41069  1.0000 -0.5419732897
O   O27       1.0  0.58931  0.94757  0.68757  1.0000 -0.5419732897
O   O28       1.0  0.41069  0.94757  0.31243  1.0000 -0.5419732897
O   O29       1.0  0.58931  0.05243  0.31243  1.0000 -0.5419732897
O   O30       1.0  0.41069  0.05243  0.68757  1.0000 -0.5419732897
O   O31       1.0  0.38510  0.46300  0.00000  1.0000 -0.5255567201
O   O32       1.0  0.61490  0.53700  0.00000  1.0000 -0.5255567201
O   O33       1.0  0.61490  0.46300  0.00000  1.0000 -0.5255567201
O   O34       1.0  0.38510  0.53700  0.00000  1.0000 -0.5255567201
O   O35       1.0  0.00000  0.38510  0.46300  1.0000 -0.5255567201
O   O36       1.0  0.00000  0.61490  0.53700  1.0000 -0.5255567201
O   O37       1.0  0.00000  0.61490  0.46300  1.0000 -0.5255567201
O   O38       1.0  0.00000  0.38510  0.53700  1.0000 -0.5255567201
O   O39       1.0  0.46300  0.00000  0.38510  1.0000 -0.5255567201
O   O40       1.0  0.53700  0.00000  0.61490  1.0000 -0.5255567201
O   O41       1.0  0.46300  0.00000  0.61490  1.0000 -0.5255567201
O   O42       1.0  0.53700  0.00000  0.38510  1.0000 -0.5255567201
O   O43       1.0  0.18636  0.50000  0.03703  1.0000 -0.5190237629
O   O44       1.0  0.81364  0.50000  0.03703  1.0000 -0.5190237629
O   O45       1.0  0.81364  0.50000  0.96297  1.0000 -0.5190237629
O   O46       1.0  0.18636  0.50000  0.96297  1.0000 -0.5190237629
O   O47       1.0  0.03703  0.18636  0.50000  1.0000 -0.5190237629
O   O48       1.0  0.03703  0.81364  0.50000  1.0000 -0.5190237629
O   O49       1.0  0.96297  0.81364  0.50000  1.0000 -0.5190237629
O   O50       1.0  0.96297  0.18636  0.50000  1.0000 -0.5190237629
O   O51       1.0  0.50000  0.03703  0.18636  1.0000 -0.5190237629
O   O52       1.0  0.50000  0.03703  0.81364  1.0000 -0.5190237629
O   O53       1.0  0.50000  0.96297  0.81364  1.0000 -0.5190237629
O   O54       1.0  0.50000  0.96297  0.18636  1.0000 -0.5190237629
O   O55       1.0  0.25901  0.44724  0.08885  1.0000 -0.5419732897
O   O56       1.0  0.74099  0.55276  0.08885  1.0000 -0.5419732897
O   O57       1.0  0.74099  0.44724  0.91115  1.0000 -0.5419732897
O   O58       1.0  0.25901  0.55276  0.91115  1.0000 -0.5419732897
O   O59       1.0  0.08885  0.25901  0.44724  1.0000 -0.5419732897
O   O60       1.0  0.08885  0.74099  0.55276  1.0000 -0.5419732897
O   O61       1.0  0.91115  0.74099  0.44724  1.0000 -0.5419732897
O   O62       1.0  0.91115  0.25901  0.55276  1.0000 -0.5419732897
O   O63       1.0  0.44724  0.08885  0.25901  1.0000 -0.5419732897
O   O64       1.0  0.55276  0.08885  0.74099  1.0000 -0.5419732897
O   O65       1.0  0.44724  0.91115  0.74099  1.0000 -0.5419732897
O   O66       1.0  0.55276  0.91115  0.25901  1.0000 -0.5419732897
O   O67       1.0  0.74099  0.55276  0.91115  1.0000 -0.5419732897
O   O68       1.0  0.25901  0.44724  0.91115  1.0000 -0.5419732897
O   O69       1.0  0.25901  0.55276  0.08885  1.0000 -0.5419732897
O   O70       1.0  0.74099  0.44724  0.08885  1.0000 -0.5419732897
O   O71       1.0  0.91115  0.74099  0.55276  1.0000 -0.5419732897
O   O72       1.0  0.91115  0.25901  0.44724  1.0000 -0.5419732897
O   O73       1.0  0.08885  0.25901  0.55276  1.0000 -0.5419732897
O   O74       1.0  0.08885  0.74099  0.44724  1.0000 -0.5419732897
O   O75       1.0  0.55276  0.91115  0.74099  1.0000 -0.5419732897
O   O76       1.0  0.44724  0.91115  0.25901  1.0000 -0.5419732897
O   O77       1.0  0.55276  0.08885  0.25901  1.0000 -0.5419732897
O   O78       1.0  0.44724  0.08885  0.74099  1.0000 -0.5419732897
