# DDEC6 charges by PACMAN v1.1 (https://github.com/mtap-research/PACMAN-charge/)
data_ja512311a_si_012_ASR_pacman
_symmetry_space_group_name_H-M   'P 1'
_cell_length_a   25.96390000
_cell_length_b   25.96390000
_cell_length_c   25.96390000
_cell_angle_alpha   90.00000000
_cell_angle_beta   90.00000000
_cell_angle_gamma   90.00000000
_symmetry_Int_Tables_number   1
_chemical_formula_structural   Zn4H18C54O13F12
_chemical_formula_sum   'Zn32 H144 C432 O104 F96'
_cell_volume   17502.89080333
_cell_formula_units_Z   8
loop_
 _symmetry_equiv_pos_site_id
 _symmetry_equiv_pos_as_xyz
  1  'x, y, z'
loop_
 _atom_site_type_symbol
 _atom_site_label
 _atom_site_symmetry_multiplicity
 _atom_site_fract_x
 _atom_site_fract_y
 _atom_site_fract_z
 _atom_site_occupancy
 _atom_site_charge
Zn  Zn1  1  0.70577000  0.79423000  0.20577000  0.5 0.4752530061
Zn  Zn2  1  0.20577000  0.70577000  0.79423000  0.5 0.4752530061
Zn  Zn3  1  0.29423000  0.29423000  0.29423000  0.5 0.474432507
Zn  Zn4  1  0.79423000  0.20577000  0.70577000  0.5 0.4752530061
Zn  Zn5  1  0.79423000  0.70577000  0.29423000  0.5 0.4752530061
Zn  Zn6  1  0.29423000  0.79423000  0.70577000  0.5 0.4752530061
Zn  Zn7  1  0.70577000  0.29423000  0.79423000  0.5 0.4752530061
Zn  Zn8  1  0.20577000  0.20577000  0.20577000  0.5 0.474432507
Zn  Zn9  1  0.73376000  0.71571000  0.18559000  0.5 0.4976424041
Zn  Zn10  1  0.78429000  0.81441000  0.23376000  0.5 0.4976424041
Zn  Zn11  1  0.23376000  0.78429000  0.81441000  0.5 0.4976424041
Zn  Zn12  1  0.21571000  0.31441000  0.26624000  0.5 0.4976424041
Zn  Zn13  1  0.71571000  0.18559000  0.73376000  0.5 0.4976424041
Zn  Zn14  1  0.26624000  0.21571000  0.31441000  0.5 0.4976424041
Zn  Zn15  1  0.81441000  0.23376000  0.78429000  0.5 0.4976424041
Zn  Zn16  1  0.18559000  0.73376000  0.71571000  0.5 0.4976424041
Zn  Zn17  1  0.31441000  0.26624000  0.21571000  0.5 0.4976424041
Zn  Zn18  1  0.68559000  0.76624000  0.28429000  0.5 0.4976424041
Zn  Zn19  1  0.28429000  0.68559000  0.76624000  0.5 0.4976424041
Zn  Zn20  1  0.76624000  0.28429000  0.68559000  0.5 0.4976424041
Zn  Zn21  1  0.81441000  0.73376000  0.21571000  0.5 0.4976424041
Zn  Zn22  1  0.21571000  0.81441000  0.73376000  0.5 0.4976424041
Zn  Zn23  1  0.73376000  0.21571000  0.81441000  0.5 0.4976424041
Zn  Zn24  1  0.76624000  0.78429000  0.31441000  0.5 0.4976424041
Zn  Zn25  1  0.71571000  0.68559000  0.26624000  0.5 0.4976424041
Zn  Zn26  1  0.26624000  0.71571000  0.68559000  0.5 0.4976424041
Zn  Zn27  1  0.28429000  0.18559000  0.23376000  0.5 0.4976424041
Zn  Zn28  1  0.78429000  0.31441000  0.76624000  0.5 0.4976424041
Zn  Zn29  1  0.23376000  0.28429000  0.18559000  0.5 0.4976424041
Zn  Zn30  1  0.68559000  0.26624000  0.71571000  0.5 0.4976424041
Zn  Zn31  1  0.31441000  0.76624000  0.78429000  0.5 0.4976424041
Zn  Zn32  1  0.18559000  0.23376000  0.28429000  0.5 0.4976424041
Zn  Zn33  1  0.20577000  0.29423000  0.70577000  0.5 0.474432507
Zn  Zn34  1  0.70577000  0.20577000  0.29423000  0.5 0.4752530061
Zn  Zn35  1  0.29423000  0.70577000  0.20577000  0.5 0.4752530061
Zn  Zn36  1  0.79423000  0.79423000  0.79423000  0.5 0.4752530061
Zn  Zn37  1  0.29423000  0.20577000  0.79423000  0.5 0.4752530061
Zn  Zn38  1  0.79423000  0.29423000  0.20577000  0.5 0.4752530061
Zn  Zn39  1  0.70577000  0.70577000  0.70577000  0.5 0.4752530061
Zn  Zn40  1  0.20577000  0.79423000  0.29423000  0.5 0.4752530061
Zn  Zn41  1  0.18559000  0.26624000  0.78429000  0.5 0.4976424041
Zn  Zn42  1  0.78429000  0.18559000  0.26624000  0.5 0.4976424041
Zn  Zn43  1  0.26624000  0.78429000  0.18559000  0.5 0.4976424041
Zn  Zn44  1  0.23376000  0.21571000  0.68559000  0.5 0.4976424041
Zn  Zn45  1  0.28429000  0.31441000  0.73376000  0.5 0.4976424041
Zn  Zn46  1  0.73376000  0.28429000  0.31441000  0.5 0.4976424041
Zn  Zn47  1  0.71571000  0.81441000  0.76624000  0.5 0.4976424041
Zn  Zn48  1  0.21571000  0.68559000  0.23376000  0.5 0.4976424041
Zn  Zn49  1  0.76624000  0.71571000  0.81441000  0.5 0.4976424041
Zn  Zn50  1  0.31441000  0.73376000  0.28429000  0.5 0.4976424041
Zn  Zn51  1  0.68559000  0.23376000  0.21571000  0.5 0.4976424041
Zn  Zn52  1  0.81441000  0.76624000  0.71571000  0.5 0.4976424041
Zn  Zn53  1  0.26624000  0.28429000  0.81441000  0.5 0.4976424041
Zn  Zn54  1  0.21571000  0.18559000  0.76624000  0.5 0.4976424041
Zn  Zn55  1  0.76624000  0.21571000  0.18559000  0.5 0.4976424041
Zn  Zn56  1  0.78429000  0.68559000  0.73376000  0.5 0.4976424041
Zn  Zn57  1  0.28429000  0.81441000  0.26624000  0.5 0.4976424041
Zn  Zn58  1  0.73376000  0.78429000  0.68559000  0.5 0.4976424041
Zn  Zn59  1  0.18559000  0.76624000  0.21571000  0.5 0.4976424041
Zn  Zn60  1  0.81441000  0.26624000  0.28429000  0.5 0.4976424041
Zn  Zn61  1  0.68559000  0.73376000  0.78429000  0.5 0.4976424041
Zn  Zn62  1  0.31441000  0.23376000  0.71571000  0.5 0.4976424041
Zn  Zn63  1  0.71571000  0.31441000  0.23376000  0.5 0.4976424041
Zn  Zn64  1  0.23376000  0.71571000  0.31441000  0.5 0.4976424041
H  H1  1  0.84550000  0.77330000  0.96390000  1.0 0.1412871269
H  H2  1  0.72670000  0.03610000  0.34550000  1.0 0.1412871269
H  H3  1  0.34550000  0.72670000  0.03610000  1.0 0.1412871269
H  H4  1  0.27330000  0.53610000  0.15450000  1.0 0.1412871269
H  H5  1  0.77330000  0.96390000  0.84550000  1.0 0.1412871269
H  H6  1  0.15450000  0.27330000  0.53610000  1.0 0.1412871269
H  H7  1  0.03610000  0.34550000  0.72670000  1.0 0.1412871269
H  H8  1  0.96390000  0.84550000  0.77330000  1.0 0.1412871269
H  H9  1  0.53610000  0.15450000  0.27330000  1.0 0.1412871269
H  H10  1  0.46390000  0.65450000  0.22670000  1.0 0.1412871269
H  H11  1  0.22670000  0.46390000  0.65450000  1.0 0.1412871269
H  H12  1  0.65450000  0.22670000  0.46390000  1.0 0.1412871269
H  H13  1  0.03610000  0.84550000  0.27330000  1.0 0.1412871269
H  H14  1  0.27330000  0.03610000  0.84550000  1.0 0.1412871269
H  H15  1  0.84550000  0.27330000  0.03610000  1.0 0.1412871269
H  H16  1  0.65450000  0.72670000  0.53610000  1.0 0.1412871269
H  H17  1  0.77330000  0.46390000  0.15450000  1.0 0.1412871269
H  H18  1  0.15450000  0.77330000  0.46390000  1.0 0.1412871269
H  H19  1  0.22670000  0.96390000  0.34550000  1.0 0.1412871269
H  H20  1  0.72670000  0.53610000  0.65450000  1.0 0.1412871269
H  H21  1  0.34550000  0.22670000  0.96390000  1.0 0.1412871269
H  H22  1  0.46390000  0.15450000  0.77330000  1.0 0.1412871269
H  H23  1  0.53610000  0.65450000  0.72670000  1.0 0.1412871269
H  H24  1  0.96390000  0.34550000  0.22670000  1.0 0.1412871269
H  H25  1  0.82130000  0.91820000  0.00940000  1.0 0.1311095593
H  H26  1  0.58180000  0.99060000  0.32130000  1.0 0.1311095593
H  H27  1  0.32130000  0.58180000  0.99060000  1.0 0.1311095593
H  H28  1  0.41820000  0.49060000  0.17870000  1.0 0.1311095593
H  H29  1  0.91820000  0.00940000  0.82130000  1.0 0.1311095593
H  H30  1  0.17870000  0.41820000  0.49060000  1.0 0.1311095593
H  H31  1  0.99060000  0.32130000  0.58180000  1.0 0.1311095593
H  H32  1  0.00940000  0.82130000  0.91820000  1.0 0.1311095593
H  H33  1  0.49060000  0.17870000  0.41820000  1.0 0.1311095593
H  H34  1  0.50940000  0.67870000  0.08180000  1.0 0.1311095593
H  H35  1  0.08180000  0.50940000  0.67870000  1.0 0.1311095593
H  H36  1  0.67870000  0.08180000  0.50940000  1.0 0.1311095593
H  H37  1  0.99060000  0.82130000  0.41820000  1.0 0.1311095593
H  H38  1  0.41820000  0.99060000  0.82130000  1.0 0.1311095593
H  H39  1  0.82130000  0.41820000  0.99060000  1.0 0.1311095593
H  H40  1  0.67870000  0.58180000  0.49060000  1.0 0.1311095593
H  H41  1  0.91820000  0.50940000  0.17870000  1.0 0.1311095593
H  H42  1  0.17870000  0.91820000  0.50940000  1.0 0.1311095593
H  H43  1  0.08180000  0.00940000  0.32130000  1.0 0.1311095593
H  H44  1  0.58180000  0.49060000  0.67870000  1.0 0.1311095593
H  H45  1  0.32130000  0.08180000  0.00940000  1.0 0.1311095593
H  H46  1  0.50940000  0.17870000  0.91820000  1.0 0.1311095593
H  H47  1  0.49060000  0.67870000  0.58180000  1.0 0.1311095593
H  H48  1  0.00940000  0.32130000  0.08180000  1.0 0.1311095593
H  H49  1  0.81530000  0.92820000  0.91870000  1.0 0.1136009781
H  H50  1  0.57180000  0.08130000  0.31530000  1.0 0.1136009781
H  H51  1  0.31530000  0.57180000  0.08130000  1.0 0.1136009781
H  H52  1  0.42820000  0.58130000  0.18470000  1.0 0.1136009781
H  H53  1  0.92820000  0.91870000  0.81530000  1.0 0.1136009781
H  H54  1  0.18470000  0.42820000  0.58130000  1.0 0.1136009781
H  H55  1  0.08130000  0.31530000  0.57180000  1.0 0.1136009781
H  H56  1  0.91870000  0.81530000  0.92820000  1.0 0.1136009781
H  H57  1  0.58130000  0.18470000  0.42820000  1.0 0.1136009781
H  H58  1  0.41870000  0.68470000  0.07180000  1.0 0.1136009781
H  H59  1  0.07180000  0.41870000  0.68470000  1.0 0.1136009781
H  H60  1  0.68470000  0.07180000  0.41870000  1.0 0.1136009781
H  H61  1  0.08130000  0.81530000  0.42820000  1.0 0.1136009781
H  H62  1  0.42820000  0.08130000  0.81530000  1.0 0.1136009781
H  H63  1  0.81530000  0.42820000  0.08130000  1.0 0.1136009781
H  H64  1  0.68470000  0.57180000  0.58130000  1.0 0.1136009781
H  H65  1  0.92820000  0.41870000  0.18470000  1.0 0.1136009781
H  H66  1  0.18470000  0.92820000  0.41870000  1.0 0.1136009781
H  H67  1  0.07180000  0.91870000  0.31530000  1.0 0.1136009781
H  H68  1  0.57180000  0.58130000  0.68470000  1.0 0.1136009781
H  H69  1  0.31530000  0.07180000  0.91870000  1.0 0.1136009781
H  H70  1  0.41870000  0.18470000  0.92820000  1.0 0.1136009781
H  H71  1  0.58130000  0.68470000  0.57180000  1.0 0.1136009781
H  H72  1  0.91870000  0.31530000  0.07180000  1.0 0.1136009781
H  H73  1  0.96390000  0.15450000  0.72670000  1.0 0.1412871269
H  H74  1  0.72670000  0.96390000  0.15450000  1.0 0.1412871269
H  H75  1  0.15450000  0.72670000  0.96390000  1.0 0.1412871269
H  H76  1  0.34550000  0.27330000  0.46390000  1.0 0.1412871269
H  H77  1  0.22670000  0.53610000  0.84550000  1.0 0.1412871269
H  H78  1  0.84550000  0.22670000  0.53610000  1.0 0.1412871269
H  H79  1  0.77330000  0.03610000  0.65450000  1.0 0.1412871269
H  H80  1  0.27330000  0.46390000  0.34550000  1.0 0.1412871269
H  H81  1  0.65450000  0.77330000  0.03610000  1.0 0.1412871269
H  H82  1  0.53610000  0.84550000  0.22670000  1.0 0.1412871269
H  H83  1  0.46390000  0.34550000  0.27330000  1.0 0.1412871269
H  H84  1  0.03610000  0.65450000  0.77330000  1.0 0.1412871269
H  H85  1  0.15450000  0.22670000  0.03610000  1.0 0.1412871269
H  H86  1  0.27330000  0.96390000  0.65450000  1.0 0.1412871269
H  H87  1  0.65450000  0.27330000  0.96390000  1.0 0.1412871269
H  H88  1  0.72670000  0.46390000  0.84550000  1.0 0.1412871269
H  H89  1  0.22670000  0.03610000  0.15450000  1.0 0.1412871269
H  H90  1  0.84550000  0.72670000  0.46390000  1.0 0.1412871269
H  H91  1  0.96390000  0.65450000  0.27330000  1.0 0.1412871269
H  H92  1  0.03610000  0.15450000  0.22670000  1.0 0.1412871269
H  H93  1  0.46390000  0.84550000  0.72670000  1.0 0.1412871269
H  H94  1  0.53610000  0.34550000  0.77330000  1.0 0.1412871269
H  H95  1  0.77330000  0.53610000  0.34550000  1.0 0.1412871269
H  H96  1  0.34550000  0.77330000  0.53610000  1.0 0.1412871269
H  H97  1  0.00940000  0.17870000  0.58180000  1.0 0.1311095593
H  H98  1  0.58180000  0.00940000  0.17870000  1.0 0.1311095593
H  H99  1  0.17870000  0.58180000  0.00940000  1.0 0.1311095593
H  H100  1  0.32130000  0.41820000  0.50940000  1.0 0.1311095593
H  H101  1  0.08180000  0.49060000  0.82130000  1.0 0.1311095593
H  H102  1  0.82130000  0.08180000  0.49060000  1.0 0.1311095593
H  H103  1  0.91820000  0.99060000  0.67870000  1.0 0.1311095593
H  H104  1  0.41820000  0.50940000  0.32130000  1.0 0.1311095593
H  H105  1  0.67870000  0.91820000  0.99060000  1.0 0.1311095593
H  H106  1  0.49060000  0.82130000  0.08180000  1.0 0.1311095593
H  H107  1  0.50940000  0.32130000  0.41820000  1.0 0.1311095593
H  H108  1  0.99060000  0.67870000  0.91820000  1.0 0.1311095593
H  H109  1  0.17870000  0.08180000  0.99060000  1.0 0.1311095593
H  H110  1  0.41820000  0.00940000  0.67870000  1.0 0.1311095593
H  H111  1  0.67870000  0.41820000  0.00940000  1.0 0.1311095593
H  H112  1  0.58180000  0.50940000  0.82130000  1.0 0.1311095593
H  H113  1  0.08180000  0.99060000  0.17870000  1.0 0.1311095593
H  H114  1  0.82130000  0.58180000  0.50940000  1.0 0.1311095593
H  H115  1  0.00940000  0.67870000  0.41820000  1.0 0.1311095593
H  H116  1  0.99060000  0.17870000  0.08180000  1.0 0.1311095593
H  H117  1  0.50940000  0.82130000  0.58180000  1.0 0.1311095593
H  H118  1  0.49060000  0.32130000  0.91820000  1.0 0.1311095593
H  H119  1  0.91820000  0.49060000  0.32130000  1.0 0.1311095593
H  H120  1  0.32130000  0.91820000  0.49060000  1.0 0.1311095593
H  H121  1  0.91870000  0.18470000  0.57180000  1.0 0.1136009781
H  H122  1  0.57180000  0.91870000  0.18470000  1.0 0.1136009781
H  H123  1  0.18470000  0.57180000  0.91870000  1.0 0.1136009781
H  H124  1  0.31530000  0.42820000  0.41870000  1.0 0.1136009781
H  H125  1  0.07180000  0.58130000  0.81530000  1.0 0.1136009781
H  H126  1  0.81530000  0.07180000  0.58130000  1.0 0.1136009781
H  H127  1  0.92820000  0.08130000  0.68470000  1.0 0.1136009781
H  H128  1  0.42820000  0.41870000  0.31530000  1.0 0.1136009781
H  H129  1  0.68470000  0.92820000  0.08130000  1.0 0.1136009781
H  H130  1  0.58130000  0.81530000  0.07180000  1.0 0.1136009781
H  H131  1  0.41870000  0.31530000  0.42820000  1.0 0.1136009781
H  H132  1  0.08130000  0.68470000  0.92820000  1.0 0.1136009781
H  H133  1  0.18470000  0.07180000  0.08130000  1.0 0.1136009781
H  H134  1  0.42820000  0.91870000  0.68470000  1.0 0.1136009781
H  H135  1  0.68470000  0.42820000  0.91870000  1.0 0.1136009781
H  H136  1  0.57180000  0.41870000  0.81530000  1.0 0.1136009781
H  H137  1  0.07180000  0.08130000  0.18470000  1.0 0.1136009781
H  H138  1  0.81530000  0.57180000  0.41870000  1.0 0.1136009781
H  H139  1  0.91870000  0.68470000  0.42820000  1.0 0.1136009781
H  H140  1  0.08130000  0.18470000  0.07180000  1.0 0.1136009781
H  H141  1  0.41870000  0.81530000  0.57180000  1.0 0.1136009781
H  H142  1  0.58130000  0.31530000  0.92820000  1.0 0.1136009781
H  H143  1  0.92820000  0.58130000  0.31530000  1.0 0.1136009781
H  H144  1  0.31530000  0.92820000  0.58130000  1.0 0.1136009781
C  C1  1  0.77940000  0.79450000  0.12470000  1.0 0.3916394046
C  C2  1  0.70550000  0.87530000  0.27940000  1.0 0.3916394046
C  C3  1  0.27940000  0.70550000  0.87530000  1.0 0.3916394046
C  C4  1  0.29450000  0.37530000  0.22060000  1.0 0.3916394046
C  C5  1  0.79450000  0.12470000  0.77940000  1.0 0.3916394046
C  C6  1  0.22060000  0.29450000  0.37530000  1.0 0.3916394046
C  C7  1  0.87530000  0.27940000  0.70550000  1.0 0.3916394046
C  C8  1  0.12470000  0.77940000  0.79450000  1.0 0.3916394046
C  C9  1  0.37530000  0.22060000  0.29450000  1.0 0.3916394046
C  C10  1  0.62470000  0.72060000  0.20550000  1.0 0.3916394046
C  C11  1  0.20550000  0.62470000  0.72060000  1.0 0.3916394046
C  C12  1  0.72060000  0.20550000  0.62470000  1.0 0.3916394046
C  C13  1  0.87530000  0.77940000  0.29450000  1.0 0.3916394046
C  C14  1  0.29450000  0.87530000  0.77940000  1.0 0.3916394046
C  C15  1  0.77940000  0.29450000  0.87530000  1.0 0.3916394046
C  C16  1  0.72060000  0.70550000  0.37530000  1.0 0.3916394046
C  C17  1  0.79450000  0.62470000  0.22060000  1.0 0.3916394046
C  C18  1  0.22060000  0.79450000  0.62470000  1.0 0.3916394046
C  C19  1  0.20550000  0.12470000  0.27940000  1.0 0.3916394046
C  C20  1  0.70550000  0.37530000  0.72060000  1.0 0.3916394046
C  C21  1  0.27940000  0.20550000  0.12470000  1.0 0.3916394046
C  C22  1  0.62470000  0.22060000  0.79450000  1.0 0.3916394046
C  C23  1  0.37530000  0.72060000  0.70550000  1.0 0.3916394046
C  C24  1  0.12470000  0.27940000  0.20550000  1.0 0.3916394046
C  C25  1  0.79670000  0.81320000  0.07180000  1.0 -0.1880117151
C  C26  1  0.68680000  0.92820000  0.29670000  1.0 -0.1880117151
C  C27  1  0.29670000  0.68680000  0.92820000  1.0 -0.1880117151
C  C28  1  0.31320000  0.42820000  0.20330000  1.0 -0.1880117151
C  C29  1  0.81320000  0.07180000  0.79670000  1.0 -0.1880117151
C  C30  1  0.20330000  0.31320000  0.42820000  1.0 -0.1880117151
C  C31  1  0.92820000  0.29670000  0.68680000  1.0 -0.1880117151
C  C32  1  0.07180000  0.79670000  0.81320000  1.0 -0.1880117151
C  C33  1  0.42820000  0.20330000  0.31320000  1.0 -0.1880117151
C  C34  1  0.57180000  0.70330000  0.18680000  1.0 -0.1880117151
C  C35  1  0.18680000  0.57180000  0.70330000  1.0 -0.1880117151
C  C36  1  0.70330000  0.18680000  0.57180000  1.0 -0.1880117151
C  C37  1  0.92820000  0.79670000  0.31320000  1.0 -0.1880117151
C  C38  1  0.31320000  0.92820000  0.79670000  1.0 -0.1880117151
C  C39  1  0.79670000  0.31320000  0.92820000  1.0 -0.1880117151
C  C40  1  0.70330000  0.68680000  0.42820000  1.0 -0.1880117151
C  C41  1  0.81320000  0.57180000  0.20330000  1.0 -0.1880117151
C  C42  1  0.20330000  0.81320000  0.57180000  1.0 -0.1880117151
C  C43  1  0.18680000  0.07180000  0.29670000  1.0 -0.1880117151
C  C44  1  0.68680000  0.42820000  0.70330000  1.0 -0.1880117151
C  C45  1  0.29670000  0.18680000  0.07180000  1.0 -0.1880117151
C  C46  1  0.57180000  0.20330000  0.81320000  1.0 -0.1880117151
C  C47  1  0.42820000  0.70330000  0.68680000  1.0 -0.1880117151
C  C48  1  0.07180000  0.29670000  0.18680000  1.0 -0.1880117151
C  C49  1  0.81500000  0.78100000  0.03530000  1.0 0.2812358346
C  C50  1  0.71900000  0.96470000  0.31500000  1.0 0.2812358346
C  C51  1  0.31500000  0.71900000  0.96470000  1.0 0.2812358346
C  C52  1  0.28100000  0.46470000  0.18500000  1.0 0.2812358346
C  C53  1  0.78100000  0.03530000  0.81500000  1.0 0.2812358346
C  C54  1  0.18500000  0.28100000  0.46470000  1.0 0.2812358346
C  C55  1  0.96470000  0.31500000  0.71900000  1.0 0.2812358346
C  C56  1  0.03530000  0.81500000  0.78100000  1.0 0.2812358346
C  C57  1  0.46470000  0.18500000  0.28100000  1.0 0.2812358346
C  C58  1  0.53530000  0.68500000  0.21900000  1.0 0.2812358346
C  C59  1  0.21900000  0.53530000  0.68500000  1.0 0.2812358346
C  C60  1  0.68500000  0.21900000  0.53530000  1.0 0.2812358346
C  C61  1  0.96470000  0.81500000  0.28100000  1.0 0.2812358346
C  C62  1  0.28100000  0.96470000  0.81500000  1.0 0.2812358346
C  C63  1  0.81500000  0.28100000  0.96470000  1.0 0.2812358346
C  C64  1  0.68500000  0.71900000  0.46470000  1.0 0.2812358346
C  C65  1  0.78100000  0.53530000  0.18500000  1.0 0.2812358346
C  C66  1  0.18500000  0.78100000  0.53530000  1.0 0.2812358346
C  C67  1  0.21900000  0.03530000  0.31500000  1.0 0.2812358346
C  C68  1  0.71900000  0.46470000  0.68500000  1.0 0.2812358346
C  C69  1  0.31500000  0.21900000  0.03530000  1.0 0.2812358346
C  C70  1  0.53530000  0.18500000  0.78100000  1.0 0.2812358346
C  C71  1  0.46470000  0.68500000  0.71900000  1.0 0.2812358346
C  C72  1  0.03530000  0.31500000  0.21900000  1.0 0.2812358346
C  C73  1  0.83450000  0.79717000  0.98820000  1.0 -0.272841271
C  C74  1  0.70283000  0.01180000  0.33450000  1.0 -0.272841271
C  C75  1  0.33450000  0.70283000  0.01180000  1.0 -0.272841271
C  C76  1  0.29717000  0.51180000  0.16550000  1.0 -0.272841271
C  C77  1  0.79717000  0.98820000  0.83450000  1.0 -0.272841271
C  C78  1  0.16550000  0.29717000  0.51180000  1.0 -0.272841271
C  C79  1  0.01180000  0.33450000  0.70283000  1.0 -0.272841271
C  C80  1  0.98820000  0.83450000  0.79717000  1.0 -0.272841271
C  C81  1  0.51180000  0.16550000  0.29717000  1.0 -0.272841271
C  C82  1  0.48820000  0.66550000  0.20283000  1.0 -0.272841271
C  C83  1  0.20283000  0.48820000  0.66550000  1.0 -0.272841271
C  C84  1  0.66550000  0.20283000  0.48820000  1.0 -0.272841271
C  C85  1  0.01180000  0.83450000  0.29717000  1.0 -0.272841271
C  C86  1  0.29717000  0.01180000  0.83450000  1.0 -0.272841271
C  C87  1  0.83450000  0.29717000  0.01180000  1.0 -0.272841271
C  C88  1  0.66550000  0.70283000  0.51180000  1.0 -0.272841271
C  C89  1  0.79717000  0.48820000  0.16550000  1.0 -0.272841271
C  C90  1  0.16550000  0.79717000  0.48820000  1.0 -0.272841271
C  C91  1  0.20283000  0.98820000  0.33450000  1.0 -0.272841271
C  C92  1  0.70283000  0.51180000  0.66550000  1.0 -0.272841271
C  C93  1  0.33450000  0.20283000  0.98820000  1.0 -0.272841271
C  C94  1  0.48820000  0.16550000  0.79717000  1.0 -0.272841271
C  C95  1  0.51180000  0.66550000  0.70283000  1.0 -0.272841271
C  C96  1  0.98820000  0.33450000  0.20283000  1.0 -0.272841271
C  C97  1  0.83736000  0.84893000  0.97813000  1.0 0.1199476322
C  C98  1  0.65107000  0.02187000  0.33736000  1.0 0.1199476322
C  C99  1  0.33736000  0.65107000  0.02187000  1.0 0.1199476322
C  C100  1  0.34893000  0.52187000  0.16264000  1.0 0.1199476322
C  C101  1  0.84893000  0.97813000  0.83736000  1.0 0.1199476322
C  C102  1  0.16264000  0.34893000  0.52187000  1.0 0.1199476322
C  C103  1  0.02187000  0.33736000  0.65107000  1.0 0.1199476322
C  C104  1  0.97813000  0.83736000  0.84893000  1.0 0.1199476322
C  C105  1  0.52187000  0.16264000  0.34893000  1.0 0.1199476322
C  C106  1  0.47813000  0.66264000  0.15107000  1.0 0.1199476322
C  C107  1  0.15107000  0.47813000  0.66264000  1.0 0.1199476322
C  C108  1  0.66264000  0.15107000  0.47813000  1.0 0.1199476322
C  C109  1  0.02187000  0.83736000  0.34893000  1.0 0.1199476322
C  C110  1  0.34893000  0.02187000  0.83736000  1.0 0.1199476322
C  C111  1  0.83736000  0.34893000  0.02187000  1.0 0.1199476322
C  C112  1  0.66264000  0.65107000  0.52187000  1.0 0.1199476322
C  C113  1  0.84893000  0.47813000  0.16264000  1.0 0.1199476322
C  C114  1  0.16264000  0.84893000  0.47813000  1.0 0.1199476322
C  C115  1  0.15107000  0.97813000  0.33736000  1.0 0.1199476322
C  C116  1  0.65107000  0.52187000  0.66264000  1.0 0.1199476322
C  C117  1  0.33736000  0.15107000  0.97813000  1.0 0.1199476322
C  C118  1  0.47813000  0.16264000  0.84893000  1.0 0.1199476322
C  C119  1  0.52187000  0.66264000  0.65107000  1.0 0.1199476322
C  C120  1  0.97813000  0.33736000  0.15107000  1.0 0.1199476322
C  C121  1  0.81992000  0.88290000  0.01530000  1.0 -0.272841271
C  C122  1  0.61710000  0.98470000  0.31992000  1.0 -0.272841271
C  C123  1  0.31992000  0.61710000  0.98470000  1.0 -0.272841271
C  C124  1  0.38290000  0.48470000  0.18008000  1.0 -0.272841271
C  C125  1  0.88290000  0.01530000  0.81992000  1.0 -0.272841271
C  C126  1  0.18008000  0.38290000  0.48470000  1.0 -0.272841271
C  C127  1  0.98470000  0.31992000  0.61710000  1.0 -0.272841271
C  C128  1  0.01530000  0.81992000  0.88290000  1.0 -0.272841271
C  C129  1  0.48470000  0.18008000  0.38290000  1.0 -0.272841271
C  C130  1  0.51530000  0.68008000  0.11710000  1.0 -0.272841271
C  C131  1  0.11710000  0.51530000  0.68008000  1.0 -0.272841271
C  C132  1  0.68008000  0.11710000  0.51530000  1.0 -0.272841271
C  C133  1  0.98470000  0.81992000  0.38290000  1.0 -0.272841271
C  C134  1  0.38290000  0.98470000  0.81992000  1.0 -0.272841271
C  C135  1  0.81992000  0.38290000  0.98470000  1.0 -0.272841271
C  C136  1  0.68008000  0.61710000  0.48470000  1.0 -0.272841271
C  C137  1  0.88290000  0.51530000  0.18008000  1.0 -0.272841271
C  C138  1  0.18008000  0.88290000  0.51530000  1.0 -0.272841271
C  C139  1  0.11710000  0.01530000  0.31992000  1.0 -0.272841271
C  C140  1  0.61710000  0.48470000  0.68008000  1.0 -0.272841271
C  C141  1  0.31992000  0.11710000  0.01530000  1.0 -0.272841271
C  C142  1  0.51530000  0.18008000  0.88290000  1.0 -0.272841271
C  C143  1  0.48470000  0.68008000  0.61710000  1.0 -0.272841271
C  C144  1  0.01530000  0.31992000  0.11710000  1.0 -0.272841271
C  C145  1  0.80080000  0.86450000  0.06050000  1.0 0.2812358346
C  C146  1  0.63550000  0.93950000  0.30080000  1.0 0.2812358346
C  C147  1  0.30080000  0.63550000  0.93950000  1.0 0.2812358346
C  C148  1  0.36450000  0.43950000  0.19920000  1.0 0.2812358346
C  C149  1  0.86450000  0.06050000  0.80080000  1.0 0.2812358346
C  C150  1  0.19920000  0.36450000  0.43950000  1.0 0.2812358346
C  C151  1  0.93950000  0.30080000  0.63550000  1.0 0.2812358346
C  C152  1  0.06050000  0.80080000  0.86450000  1.0 0.2812358346
C  C153  1  0.43950000  0.19920000  0.36450000  1.0 0.2812358346
C  C154  1  0.56050000  0.69920000  0.13550000  1.0 0.2812358346
C  C155  1  0.13550000  0.56050000  0.69920000  1.0 0.2812358346
C  C156  1  0.69920000  0.13550000  0.56050000  1.0 0.2812358346
C  C157  1  0.93950000  0.80080000  0.36450000  1.0 0.2812358346
C  C158  1  0.36450000  0.93950000  0.80080000  1.0 0.2812358346
C  C159  1  0.80080000  0.36450000  0.93950000  1.0 0.2812358346
C  C160  1  0.69920000  0.63550000  0.43950000  1.0 0.2812358346
C  C161  1  0.86450000  0.56050000  0.19920000  1.0 0.2812358346
C  C162  1  0.19920000  0.86450000  0.56050000  1.0 0.2812358346
C  C163  1  0.13550000  0.06050000  0.30080000  1.0 0.2812358346
C  C164  1  0.63550000  0.43950000  0.69920000  1.0 0.2812358346
C  C165  1  0.30080000  0.13550000  0.06050000  1.0 0.2812358346
C  C166  1  0.56050000  0.19920000  0.86450000  1.0 0.2812358346
C  C167  1  0.43950000  0.69920000  0.63550000  1.0 0.2812358346
C  C168  1  0.06050000  0.30080000  0.13550000  1.0 0.2812358346
C  C169  1  0.86213000  0.86790000  0.93006000  1.0 0.0875105709
C  C170  1  0.63210000  0.06994000  0.36213000  1.0 0.0875105709
C  C171  1  0.36213000  0.63210000  0.06994000  1.0 0.0875105709
C  C172  1  0.36790000  0.56994000  0.13787000  1.0 0.0875105709
C  C173  1  0.86790000  0.93006000  0.86213000  1.0 0.0875105709
C  C174  1  0.13787000  0.36790000  0.56994000  1.0 0.0875105709
C  C175  1  0.06994000  0.36213000  0.63210000  1.0 0.0875105709
C  C176  1  0.93006000  0.86213000  0.86790000  1.0 0.0875105709
C  C177  1  0.56994000  0.13787000  0.36790000  1.0 0.0875105709
C  C178  1  0.43006000  0.63787000  0.13210000  1.0 0.0875105709
C  C179  1  0.13210000  0.43006000  0.63787000  1.0 0.0875105709
C  C180  1  0.63787000  0.13210000  0.43006000  1.0 0.0875105709
C  C181  1  0.06994000  0.86213000  0.36790000  1.0 0.0875105709
C  C182  1  0.36790000  0.06994000  0.86213000  1.0 0.0875105709
C  C183  1  0.86213000  0.36790000  0.06994000  1.0 0.0875105709
C  C184  1  0.63787000  0.63210000  0.56994000  1.0 0.0875105709
C  C185  1  0.86790000  0.43006000  0.13787000  1.0 0.0875105709
C  C186  1  0.13787000  0.86790000  0.43006000  1.0 0.0875105709
C  C187  1  0.13210000  0.93006000  0.36213000  1.0 0.0875105709
C  C188  1  0.63210000  0.56994000  0.63787000  1.0 0.0875105709
C  C189  1  0.36213000  0.13210000  0.93006000  1.0 0.0875105709
C  C190  1  0.43006000  0.13787000  0.86790000  1.0 0.0875105709
C  C191  1  0.56994000  0.63787000  0.63210000  1.0 0.0875105709
C  C192  1  0.93006000  0.36213000  0.13210000  1.0 0.0875105709
C  C193  1  0.84406000  0.91130000  0.90567000  1.0 -0.1880117151
C  C194  1  0.58870000  0.09433000  0.34406000  1.0 -0.1880117151
C  C195  1  0.34406000  0.58870000  0.09433000  1.0 -0.1880117151
C  C196  1  0.41130000  0.59433000  0.15594000  1.0 -0.1880117151
C  C197  1  0.91130000  0.90567000  0.84406000  1.0 -0.1880117151
C  C198  1  0.15594000  0.41130000  0.59433000  1.0 -0.1880117151
C  C199  1  0.09433000  0.34406000  0.58870000  1.0 -0.1880117151
C  C200  1  0.90567000  0.84406000  0.91130000  1.0 -0.1880117151
C  C201  1  0.59433000  0.15594000  0.41130000  1.0 -0.1880117151
C  C202  1  0.40567000  0.65594000  0.08870000  1.0 -0.1880117151
C  C203  1  0.08870000  0.40567000  0.65594000  1.0 -0.1880117151
C  C204  1  0.65594000  0.08870000  0.40567000  1.0 -0.1880117151
C  C205  1  0.09433000  0.84406000  0.41130000  1.0 -0.1880117151
C  C206  1  0.41130000  0.09433000  0.84406000  1.0 -0.1880117151
C  C207  1  0.84406000  0.41130000  0.09433000  1.0 -0.1880117151
C  C208  1  0.65594000  0.58870000  0.59433000  1.0 -0.1880117151
C  C209  1  0.91130000  0.40567000  0.15594000  1.0 -0.1880117151
C  C210  1  0.15594000  0.91130000  0.40567000  1.0 -0.1880117151
C  C211  1  0.08870000  0.90567000  0.34406000  1.0 -0.1880117151
C  C212  1  0.58870000  0.59433000  0.65594000  1.0 -0.1880117151
C  C213  1  0.34406000  0.08870000  0.90567000  1.0 -0.1880117151
C  C214  1  0.40567000  0.15594000  0.91130000  1.0 -0.1880117151
C  C215  1  0.59433000  0.65594000  0.58870000  1.0 -0.1880117151
C  C216  1  0.90567000  0.34406000  0.08870000  1.0 -0.1880117151
C  C217  1  0.12470000  0.22060000  0.70550000  1.0 0.3916394046
C  C218  1  0.70550000  0.12470000  0.22060000  1.0 0.3916394046
C  C219  1  0.22060000  0.70550000  0.12470000  1.0 0.3916394046
C  C220  1  0.27940000  0.29450000  0.62470000  1.0 0.3916394046
C  C221  1  0.20550000  0.37530000  0.77940000  1.0 0.3916394046
C  C222  1  0.77940000  0.20550000  0.37530000  1.0 0.3916394046
C  C223  1  0.79450000  0.87530000  0.72060000  1.0 0.3916394046
C  C224  1  0.29450000  0.62470000  0.27940000  1.0 0.3916394046
C  C225  1  0.72060000  0.79450000  0.87530000  1.0 0.3916394046
C  C226  1  0.37530000  0.77940000  0.20550000  1.0 0.3916394046
C  C227  1  0.62470000  0.27940000  0.29450000  1.0 0.3916394046
C  C228  1  0.87530000  0.72060000  0.79450000  1.0 0.3916394046
C  C229  1  0.22060000  0.20550000  0.87530000  1.0 0.3916394046
C  C230  1  0.29450000  0.12470000  0.72060000  1.0 0.3916394046
C  C231  1  0.72060000  0.29450000  0.12470000  1.0 0.3916394046
C  C232  1  0.70550000  0.62470000  0.77940000  1.0 0.3916394046
C  C233  1  0.20550000  0.87530000  0.22060000  1.0 0.3916394046
C  C234  1  0.77940000  0.70550000  0.62470000  1.0 0.3916394046
C  C235  1  0.12470000  0.72060000  0.29450000  1.0 0.3916394046
C  C236  1  0.87530000  0.22060000  0.20550000  1.0 0.3916394046
C  C237  1  0.62470000  0.77940000  0.70550000  1.0 0.3916394046
C  C238  1  0.37530000  0.27940000  0.79450000  1.0 0.3916394046
C  C239  1  0.79450000  0.37530000  0.27940000  1.0 0.3916394046
C  C240  1  0.27940000  0.79450000  0.37530000  1.0 0.3916394046
C  C241  1  0.07180000  0.20330000  0.68680000  1.0 -0.1880117151
C  C242  1  0.68680000  0.07180000  0.20330000  1.0 -0.1880117151
C  C243  1  0.20330000  0.68680000  0.07180000  1.0 -0.1880117151
C  C244  1  0.29670000  0.31320000  0.57180000  1.0 -0.1880117151
C  C245  1  0.18680000  0.42820000  0.79670000  1.0 -0.1880117151
C  C246  1  0.79670000  0.18680000  0.42820000  1.0 -0.1880117151
C  C247  1  0.81320000  0.92820000  0.70330000  1.0 -0.1880117151
C  C248  1  0.31320000  0.57180000  0.29670000  1.0 -0.1880117151
C  C249  1  0.70330000  0.81320000  0.92820000  1.0 -0.1880117151
C  C250  1  0.42820000  0.79670000  0.18680000  1.0 -0.1880117151
C  C251  1  0.57180000  0.29670000  0.31320000  1.0 -0.1880117151
C  C252  1  0.92820000  0.70330000  0.81320000  1.0 -0.1880117151
C  C253  1  0.20330000  0.18680000  0.92820000  1.0 -0.1880117151
C  C254  1  0.31320000  0.07180000  0.70330000  1.0 -0.1880117151
C  C255  1  0.70330000  0.31320000  0.07180000  1.0 -0.1880117151
C  C256  1  0.68680000  0.57180000  0.79670000  1.0 -0.1880117151
C  C257  1  0.18680000  0.92820000  0.20330000  1.0 -0.1880117151
C  C258  1  0.79670000  0.68680000  0.57180000  1.0 -0.1880117151
C  C259  1  0.07180000  0.70330000  0.31320000  1.0 -0.1880117151
C  C260  1  0.92820000  0.20330000  0.18680000  1.0 -0.1880117151
C  C261  1  0.57180000  0.79670000  0.68680000  1.0 -0.1880117151
C  C262  1  0.42820000  0.29670000  0.81320000  1.0 -0.1880117151
C  C263  1  0.81320000  0.42820000  0.29670000  1.0 -0.1880117151
C  C264  1  0.29670000  0.81320000  0.42820000  1.0 -0.1880117151
C  C265  1  0.03530000  0.18500000  0.71900000  1.0 0.2812358346
C  C266  1  0.71900000  0.03530000  0.18500000  1.0 0.2812358346
C  C267  1  0.18500000  0.71900000  0.03530000  1.0 0.2812358346
C  C268  1  0.31500000  0.28100000  0.53530000  1.0 0.2812358346
C  C269  1  0.21900000  0.46470000  0.81500000  1.0 0.2812358346
C  C270  1  0.81500000  0.21900000  0.46470000  1.0 0.2812358346
C  C271  1  0.78100000  0.96470000  0.68500000  1.0 0.2812358346
C  C272  1  0.28100000  0.53530000  0.31500000  1.0 0.2812358346
C  C273  1  0.68500000  0.78100000  0.96470000  1.0 0.2812358346
C  C274  1  0.46470000  0.81500000  0.21900000  1.0 0.2812358346
C  C275  1  0.53530000  0.31500000  0.28100000  1.0 0.2812358346
C  C276  1  0.96470000  0.68500000  0.78100000  1.0 0.2812358346
C  C277  1  0.18500000  0.21900000  0.96470000  1.0 0.2812358346
C  C278  1  0.28100000  0.03530000  0.68500000  1.0 0.2812358346
C  C279  1  0.68500000  0.28100000  0.03530000  1.0 0.2812358346
C  C280  1  0.71900000  0.53530000  0.81500000  1.0 0.2812358346
C  C281  1  0.21900000  0.96470000  0.18500000  1.0 0.2812358346
C  C282  1  0.81500000  0.71900000  0.53530000  1.0 0.2812358346
C  C283  1  0.03530000  0.68500000  0.28100000  1.0 0.2812358346
C  C284  1  0.96470000  0.18500000  0.21900000  1.0 0.2812358346
C  C285  1  0.53530000  0.81500000  0.71900000  1.0 0.2812358346
C  C286  1  0.46470000  0.31500000  0.78100000  1.0 0.2812358346
C  C287  1  0.78100000  0.46470000  0.31500000  1.0 0.2812358346
C  C288  1  0.31500000  0.78100000  0.46470000  1.0 0.2812358346
C  C289  1  0.98820000  0.16550000  0.70283000  1.0 -0.272841271
C  C290  1  0.70283000  0.98820000  0.16550000  1.0 -0.272841271
C  C291  1  0.16550000  0.70283000  0.98820000  1.0 -0.272841271
C  C292  1  0.33450000  0.29717000  0.48820000  1.0 -0.272841271
C  C293  1  0.20283000  0.51180000  0.83450000  1.0 -0.272841271
C  C294  1  0.83450000  0.20283000  0.51180000  1.0 -0.272841271
C  C295  1  0.79717000  0.01180000  0.66550000  1.0 -0.272841271
C  C296  1  0.29717000  0.48820000  0.33450000  1.0 -0.272841271
C  C297  1  0.66550000  0.79717000  0.01180000  1.0 -0.272841271
C  C298  1  0.51180000  0.83450000  0.20283000  1.0 -0.272841271
C  C299  1  0.48820000  0.33450000  0.29717000  1.0 -0.272841271
C  C300  1  0.01180000  0.66550000  0.79717000  1.0 -0.272841271
C  C301  1  0.16550000  0.20283000  0.01180000  1.0 -0.272841271
C  C302  1  0.29717000  0.98820000  0.66550000  1.0 -0.272841271
C  C303  1  0.66550000  0.29717000  0.98820000  1.0 -0.272841271
C  C304  1  0.70283000  0.48820000  0.83450000  1.0 -0.272841271
C  C305  1  0.20283000  0.01180000  0.16550000  1.0 -0.272841271
C  C306  1  0.83450000  0.70283000  0.48820000  1.0 -0.272841271
C  C307  1  0.98820000  0.66550000  0.29717000  1.0 -0.272841271
C  C308  1  0.01180000  0.16550000  0.20283000  1.0 -0.272841271
C  C309  1  0.48820000  0.83450000  0.70283000  1.0 -0.272841271
C  C310  1  0.51180000  0.33450000  0.79717000  1.0 -0.272841271
C  C311  1  0.79717000  0.51180000  0.33450000  1.0 -0.272841271
C  C312  1  0.33450000  0.79717000  0.51180000  1.0 -0.272841271
C  C313  1  0.97813000  0.16264000  0.65107000  1.0 0.1199476322
C  C314  1  0.65107000  0.97813000  0.16264000  1.0 0.1199476322
C  C315  1  0.16264000  0.65107000  0.97813000  1.0 0.1199476322
C  C316  1  0.33736000  0.34893000  0.47813000  1.0 0.1199476322
C  C317  1  0.15107000  0.52187000  0.83736000  1.0 0.1199476322
C  C318  1  0.83736000  0.15107000  0.52187000  1.0 0.1199476322
C  C319  1  0.84893000  0.02187000  0.66264000  1.0 0.1199476322
C  C320  1  0.34893000  0.47813000  0.33736000  1.0 0.1199476322
C  C321  1  0.66264000  0.84893000  0.02187000  1.0 0.1199476322
C  C322  1  0.52187000  0.83736000  0.15107000  1.0 0.1199476322
C  C323  1  0.47813000  0.33736000  0.34893000  1.0 0.1199476322
C  C324  1  0.02187000  0.66264000  0.84893000  1.0 0.1199476322
C  C325  1  0.16264000  0.15107000  0.02187000  1.0 0.1199476322
C  C326  1  0.34893000  0.97813000  0.66264000  1.0 0.1199476322
C  C327  1  0.66264000  0.34893000  0.97813000  1.0 0.1199476322
C  C328  1  0.65107000  0.47813000  0.83736000  1.0 0.1199476322
C  C329  1  0.15107000  0.02187000  0.16264000  1.0 0.1199476322
C  C330  1  0.83736000  0.65107000  0.47813000  1.0 0.1199476322
C  C331  1  0.97813000  0.66264000  0.34893000  1.0 0.1199476322
C  C332  1  0.02187000  0.16264000  0.15107000  1.0 0.1199476322
C  C333  1  0.47813000  0.83736000  0.65107000  1.0 0.1199476322
C  C334  1  0.52187000  0.33736000  0.84893000  1.0 0.1199476322
C  C335  1  0.84893000  0.52187000  0.33736000  1.0 0.1199476322
C  C336  1  0.33736000  0.84893000  0.52187000  1.0 0.1199476322
C  C337  1  0.01530000  0.18008000  0.61710000  1.0 -0.272841271
C  C338  1  0.61710000  0.01530000  0.18008000  1.0 -0.272841271
C  C339  1  0.18008000  0.61710000  0.01530000  1.0 -0.272841271
C  C340  1  0.31992000  0.38290000  0.51530000  1.0 -0.272841271
C  C341  1  0.11710000  0.48470000  0.81992000  1.0 -0.272841271
C  C342  1  0.81992000  0.11710000  0.48470000  1.0 -0.272841271
C  C343  1  0.88290000  0.98470000  0.68008000  1.0 -0.272841271
C  C344  1  0.38290000  0.51530000  0.31992000  1.0 -0.272841271
C  C345  1  0.68008000  0.88290000  0.98470000  1.0 -0.272841271
C  C346  1  0.48470000  0.81992000  0.11710000  1.0 -0.272841271
C  C347  1  0.51530000  0.31992000  0.38290000  1.0 -0.272841271
C  C348  1  0.98470000  0.68008000  0.88290000  1.0 -0.272841271
C  C349  1  0.18008000  0.11710000  0.98470000  1.0 -0.272841271
C  C350  1  0.38290000  0.01530000  0.68008000  1.0 -0.272841271
C  C351  1  0.68008000  0.38290000  0.01530000  1.0 -0.272841271
C  C352  1  0.61710000  0.51530000  0.81992000  1.0 -0.272841271
C  C353  1  0.11710000  0.98470000  0.18008000  1.0 -0.272841271
C  C354  1  0.81992000  0.61710000  0.51530000  1.0 -0.272841271
C  C355  1  0.01530000  0.68008000  0.38290000  1.0 -0.272841271
C  C356  1  0.98470000  0.18008000  0.11710000  1.0 -0.272841271
C  C357  1  0.51530000  0.81992000  0.61710000  1.0 -0.272841271
C  C358  1  0.48470000  0.31992000  0.88290000  1.0 -0.272841271
C  C359  1  0.88290000  0.48470000  0.31992000  1.0 -0.272841271
C  C360  1  0.31992000  0.88290000  0.48470000  1.0 -0.272841271
C  C361  1  0.06050000  0.19920000  0.63550000  1.0 0.2812358346
C  C362  1  0.63550000  0.06050000  0.19920000  1.0 0.2812358346
C  C363  1  0.19920000  0.63550000  0.06050000  1.0 0.2812358346
C  C364  1  0.30080000  0.36450000  0.56050000  1.0 0.2812358346
C  C365  1  0.13550000  0.43950000  0.80080000  1.0 0.2812358346
C  C366  1  0.80080000  0.13550000  0.43950000  1.0 0.2812358346
C  C367  1  0.86450000  0.93950000  0.69920000  1.0 0.2812358346
C  C368  1  0.36450000  0.56050000  0.30080000  1.0 0.2812358346
C  C369  1  0.69920000  0.86450000  0.93950000  1.0 0.2812358346
C  C370  1  0.43950000  0.80080000  0.13550000  1.0 0.2812358346
C  C371  1  0.56050000  0.30080000  0.36450000  1.0 0.2812358346
C  C372  1  0.93950000  0.69920000  0.86450000  1.0 0.2812358346
C  C373  1  0.19920000  0.13550000  0.93950000  1.0 0.2812358346
C  C374  1  0.36450000  0.06050000  0.69920000  1.0 0.2812358346
C  C375  1  0.69920000  0.36450000  0.06050000  1.0 0.2812358346
C  C376  1  0.63550000  0.56050000  0.80080000  1.0 0.2812358346
C  C377  1  0.13550000  0.93950000  0.19920000  1.0 0.2812358346
C  C378  1  0.80080000  0.63550000  0.56050000  1.0 0.2812358346
C  C379  1  0.06050000  0.69920000  0.36450000  1.0 0.2812358346
C  C380  1  0.93950000  0.19920000  0.13550000  1.0 0.2812358346
C  C381  1  0.56050000  0.80080000  0.63550000  1.0 0.2812358346
C  C382  1  0.43950000  0.30080000  0.86450000  1.0 0.2812358346
C  C383  1  0.86450000  0.43950000  0.30080000  1.0 0.2812358346
C  C384  1  0.30080000  0.86450000  0.43950000  1.0 0.2812358346
C  C385  1  0.93006000  0.13787000  0.63210000  1.0 0.0875105709
C  C386  1  0.63210000  0.93006000  0.13787000  1.0 0.0875105709
C  C387  1  0.13787000  0.63210000  0.93006000  1.0 0.0875105709
C  C388  1  0.36213000  0.36790000  0.43006000  1.0 0.0875105709
C  C389  1  0.13210000  0.56994000  0.86213000  1.0 0.0875105709
C  C390  1  0.86213000  0.13210000  0.56994000  1.0 0.0875105709
C  C391  1  0.86790000  0.06994000  0.63787000  1.0 0.0875105709
C  C392  1  0.36790000  0.43006000  0.36213000  1.0 0.0875105709
C  C393  1  0.63787000  0.86790000  0.06994000  1.0 0.0875105709
C  C394  1  0.56994000  0.86213000  0.13210000  1.0 0.0875105709
C  C395  1  0.43006000  0.36213000  0.36790000  1.0 0.0875105709
C  C396  1  0.06994000  0.63787000  0.86790000  1.0 0.0875105709
C  C397  1  0.13787000  0.13210000  0.06994000  1.0 0.0875105709
C  C398  1  0.36790000  0.93006000  0.63787000  1.0 0.0875105709
C  C399  1  0.63787000  0.36790000  0.93006000  1.0 0.0875105709
C  C400  1  0.63210000  0.43006000  0.86213000  1.0 0.0875105709
C  C401  1  0.13210000  0.06994000  0.13787000  1.0 0.0875105709
C  C402  1  0.86213000  0.63210000  0.43006000  1.0 0.0875105709
C  C403  1  0.93006000  0.63787000  0.36790000  1.0 0.0875105709
C  C404  1  0.06994000  0.13787000  0.13210000  1.0 0.0875105709
C  C405  1  0.43006000  0.86213000  0.63210000  1.0 0.0875105709
C  C406  1  0.56994000  0.36213000  0.86790000  1.0 0.0875105709
C  C407  1  0.86790000  0.56994000  0.36213000  1.0 0.0875105709
C  C408  1  0.36213000  0.86790000  0.56994000  1.0 0.0875105709
C  C409  1  0.90567000  0.15594000  0.58870000  1.0 -0.1880117151
C  C410  1  0.58870000  0.90567000  0.15594000  1.0 -0.1880117151
C  C411  1  0.15594000  0.58870000  0.90567000  1.0 -0.1880117151
C  C412  1  0.34406000  0.41130000  0.40567000  1.0 -0.1880117151
C  C413  1  0.08870000  0.59433000  0.84406000  1.0 -0.1880117151
C  C414  1  0.84406000  0.08870000  0.59433000  1.0 -0.1880117151
C  C415  1  0.91130000  0.09433000  0.65594000  1.0 -0.1880117151
C  C416  1  0.41130000  0.40567000  0.34406000  1.0 -0.1880117151
C  C417  1  0.65594000  0.91130000  0.09433000  1.0 -0.1880117151
C  C418  1  0.59433000  0.84406000  0.08870000  1.0 -0.1880117151
C  C419  1  0.40567000  0.34406000  0.41130000  1.0 -0.1880117151
C  C420  1  0.09433000  0.65594000  0.91130000  1.0 -0.1880117151
C  C421  1  0.15594000  0.08870000  0.09433000  1.0 -0.1880117151
C  C422  1  0.41130000  0.90567000  0.65594000  1.0 -0.1880117151
C  C423  1  0.65594000  0.41130000  0.90567000  1.0 -0.1880117151
C  C424  1  0.58870000  0.40567000  0.84406000  1.0 -0.1880117151
C  C425  1  0.08870000  0.09433000  0.15594000  1.0 -0.1880117151
C  C426  1  0.84406000  0.58870000  0.40567000  1.0 -0.1880117151
C  C427  1  0.90567000  0.65594000  0.41130000  1.0 -0.1880117151
C  C428  1  0.09433000  0.15594000  0.08870000  1.0 -0.1880117151
C  C429  1  0.40567000  0.84406000  0.58870000  1.0 -0.1880117151
C  C430  1  0.59433000  0.34406000  0.91130000  1.0 -0.1880117151
C  C431  1  0.91130000  0.59433000  0.34406000  1.0 -0.1880117151
C  C432  1  0.34406000  0.91130000  0.59433000  1.0 -0.1880117151
O  O1  1  0.75000000  0.75000000  0.25000000  1.0 -0.7002169999
O  O2  1  0.25000000  0.75000000  0.75000000  1.0 -0.7002169999
O  O3  1  0.25000000  0.25000000  0.25000000  1.0 -0.7002169999
O  O4  1  0.75000000  0.25000000  0.75000000  1.0 -0.7002169999
O  O101  1  0.25000000  0.25000000  0.75000000  1.0 -0.7002169999
O  O102  1  0.75000000  0.25000000  0.25000000  1.0 -0.7002169999
O  O103  1  0.25000000  0.75000000  0.25000000  1.0 -0.7002169999
O  O104  1  0.75000000  0.75000000  0.75000000  1.0 -0.7002169999
O  O5  1  0.75450000  0.75850000  0.12700000  0.5 -0.155753793
O  O6  1  0.74150000  0.87300000  0.25450000  0.5 -0.155753793
O  O7  1  0.25450000  0.74150000  0.87300000  0.5 -0.155753793
O  O8  1  0.25850000  0.37300000  0.24550000  0.5 -0.155753793
O  O9  1  0.75850000  0.12700000  0.75450000  0.5 -0.155753793
O  O10  1  0.24550000  0.25850000  0.37300000  0.5 -0.155753793
O  O11  1  0.87300000  0.25450000  0.74150000  0.5 -0.155753793
O  O12  1  0.12700000  0.75450000  0.75850000  0.5 -0.155753793
O  O13  1  0.37300000  0.24550000  0.25850000  0.5 -0.155753793
O  O14  1  0.62700000  0.74550000  0.24150000  0.5 -0.155753793
O  O15  1  0.24150000  0.62700000  0.74550000  0.5 -0.155753793
O  O16  1  0.74550000  0.24150000  0.62700000  0.5 -0.155753793
O  O17  1  0.87300000  0.75450000  0.25850000  0.5 -0.155753793
O  O18  1  0.25850000  0.87300000  0.75450000  0.5 -0.155753793
O  O19  1  0.75450000  0.25850000  0.87300000  0.5 -0.155753793
O  O20  1  0.74550000  0.74150000  0.37300000  0.5 -0.155753793
O  O21  1  0.75850000  0.62700000  0.24550000  0.5 -0.155753793
O  O22  1  0.24550000  0.75850000  0.62700000  0.5 -0.155753793
O  O23  1  0.24150000  0.12700000  0.25450000  0.5 -0.155753793
O  O24  1  0.74150000  0.37300000  0.74550000  0.5 -0.155753793
O  O25  1  0.25450000  0.24150000  0.12700000  0.5 -0.155753793
O  O26  1  0.62700000  0.24550000  0.75850000  0.5 -0.155753793
O  O27  1  0.37300000  0.74550000  0.74150000  0.5 -0.155753793
O  O28  1  0.12700000  0.25450000  0.24150000  0.5 -0.155753793
O  O29  1  0.73570000  0.80880000  0.13830000  0.5 -0.2548598411
O  O30  1  0.69120000  0.86170000  0.23570000  0.5 -0.2548598411
O  O31  1  0.23570000  0.69120000  0.86170000  0.5 -0.2548598411
O  O32  1  0.30880000  0.36170000  0.26430000  0.5 -0.2548598411
O  O33  1  0.80880000  0.13830000  0.73570000  0.5 -0.2548598411
O  O34  1  0.26430000  0.30880000  0.36170000  0.5 -0.2548598411
O  O35  1  0.86170000  0.23570000  0.69120000  0.5 -0.2548598411
O  O36  1  0.13830000  0.73570000  0.80880000  0.5 -0.2548598411
O  O37  1  0.36170000  0.26430000  0.30880000  0.5 -0.2548598411
O  O38  1  0.63830000  0.76430000  0.19120000  0.5 -0.2548598411
O  O39  1  0.19120000  0.63830000  0.76430000  0.5 -0.2548598411
O  O40  1  0.76430000  0.19120000  0.63830000  0.5 -0.2548598411
O  O41  1  0.86170000  0.73570000  0.30880000  0.5 -0.2548598411
O  O42  1  0.30880000  0.86170000  0.73570000  0.5 -0.2548598411
O  O43  1  0.73570000  0.30880000  0.86170000  0.5 -0.2548598411
O  O44  1  0.76430000  0.69120000  0.36170000  0.5 -0.2548598411
O  O45  1  0.80880000  0.63830000  0.26430000  0.5 -0.2548598411
O  O46  1  0.26430000  0.80880000  0.63830000  0.5 -0.2548598411
O  O47  1  0.19120000  0.13830000  0.23570000  0.5 -0.2548598411
O  O48  1  0.69120000  0.36170000  0.76430000  0.5 -0.2548598411
O  O49  1  0.23570000  0.19120000  0.13830000  0.5 -0.2548598411
O  O50  1  0.63830000  0.26430000  0.80880000  0.5 -0.2548598411
O  O51  1  0.36170000  0.76430000  0.69120000  0.5 -0.2548598411
O  O52  1  0.13830000  0.23570000  0.19120000  0.5 -0.2548598411
O  O53  1  0.79770000  0.82130000  0.16170000  0.5 -0.2365310753
O  O54  1  0.67870000  0.83830000  0.29770000  0.5 -0.2365310753
O  O55  1  0.29770000  0.67870000  0.83830000  0.5 -0.2365310753
O  O56  1  0.32130000  0.33830000  0.20230000  0.5 -0.2365310753
O  O57  1  0.82130000  0.16170000  0.79770000  0.5 -0.2365310753
O  O58  1  0.20230000  0.32130000  0.33830000  0.5 -0.2365310753
O  O59  1  0.83830000  0.29770000  0.67870000  0.5 -0.2365310753
O  O60  1  0.16170000  0.79770000  0.82130000  0.5 -0.2365310753
O  O61  1  0.33830000  0.20230000  0.32130000  0.5 -0.2365310753
O  O62  1  0.66170000  0.70230000  0.17870000  0.5 -0.2365310753
O  O63  1  0.17870000  0.66170000  0.70230000  0.5 -0.2365310753
O  O64  1  0.70230000  0.17870000  0.66170000  0.5 -0.2365310753
O  O65  1  0.83830000  0.79770000  0.32130000  0.5 -0.2365310753
O  O66  1  0.32130000  0.83830000  0.79770000  0.5 -0.2365310753
O  O67  1  0.79770000  0.32130000  0.83830000  0.5 -0.2365310753
O  O68  1  0.70230000  0.67870000  0.33830000  0.5 -0.2365310753
O  O69  1  0.82130000  0.66170000  0.20230000  0.5 -0.2365310753
O  O70  1  0.20230000  0.82130000  0.66170000  0.5 -0.2365310753
O  O71  1  0.17870000  0.16170000  0.29770000  0.5 -0.2365310753
O  O72  1  0.67870000  0.33830000  0.70230000  0.5 -0.2365310753
O  O73  1  0.29770000  0.17870000  0.16170000  0.5 -0.2365310753
O  O74  1  0.66170000  0.20230000  0.82130000  0.5 -0.2365310753
O  O75  1  0.33830000  0.70230000  0.67870000  0.5 -0.2365310753
O  O76  1  0.16170000  0.29770000  0.17870000  0.5 -0.2365310753
O  O77  1  0.81270000  0.76650000  0.15010000  0.5 -0.2099041563
O  O78  1  0.73350000  0.84990000  0.31270000  0.5 -0.2099041563
O  O79  1  0.31270000  0.73350000  0.84990000  0.5 -0.2099041563
O  O80  1  0.26650000  0.34990000  0.18730000  0.5 -0.2099041563
O  O81  1  0.76650000  0.15010000  0.81270000  0.5 -0.2099041563
O  O82  1  0.18730000  0.26650000  0.34990000  0.5 -0.2099041563
O  O83  1  0.84990000  0.31270000  0.73350000  0.5 -0.2099041563
O  O84  1  0.15010000  0.81270000  0.76650000  0.5 -0.2099041563
O  O85  1  0.34990000  0.18730000  0.26650000  0.5 -0.2099041563
O  O86  1  0.65010000  0.68730000  0.23350000  0.5 -0.2099041563
O  O87  1  0.23350000  0.65010000  0.68730000  0.5 -0.2099041563
O  O88  1  0.68730000  0.23350000  0.65010000  0.5 -0.2099041563
O  O89  1  0.84990000  0.81270000  0.26650000  0.5 -0.2099041563
O  O90  1  0.26650000  0.84990000  0.81270000  0.5 -0.2099041563
O  O91  1  0.81270000  0.26650000  0.84990000  0.5 -0.2099041563
O  O92  1  0.68730000  0.73350000  0.34990000  0.5 -0.2099041563
O  O93  1  0.76650000  0.65010000  0.18730000  0.5 -0.2099041563
O  O94  1  0.18730000  0.76650000  0.65010000  0.5 -0.2099041563
O  O95  1  0.23350000  0.15010000  0.31270000  0.5 -0.2099041563
O  O96  1  0.73350000  0.34990000  0.68730000  0.5 -0.2099041563
O  O97  1  0.31270000  0.23350000  0.15010000  0.5 -0.2099041563
O  O98  1  0.65010000  0.18730000  0.76650000  0.5 -0.2099041563
O  O99  1  0.34990000  0.68730000  0.73350000  0.5 -0.2099041563
O  O100  1  0.15010000  0.31270000  0.23350000  0.5 -0.2099041563
O  O105  1  0.12700000  0.24550000  0.74150000  0.5 -0.155753793
O  O106  1  0.74150000  0.12700000  0.24550000  0.5 -0.155753793
O  O107  1  0.24550000  0.74150000  0.12700000  0.5 -0.155753793
O  O108  1  0.25450000  0.25850000  0.62700000  0.5 -0.155753793
O  O109  1  0.24150000  0.37300000  0.75450000  0.5 -0.155753793
O  O110  1  0.75450000  0.24150000  0.37300000  0.5 -0.155753793
O  O111  1  0.75850000  0.87300000  0.74550000  0.5 -0.155753793
O  O112  1  0.25850000  0.62700000  0.25450000  0.5 -0.155753793
O  O113  1  0.74550000  0.75850000  0.87300000  0.5 -0.155753793
O  O114  1  0.37300000  0.75450000  0.24150000  0.5 -0.155753793
O  O115  1  0.62700000  0.25450000  0.25850000  0.5 -0.155753793
O  O116  1  0.87300000  0.74550000  0.75850000  0.5 -0.155753793
O  O117  1  0.24550000  0.24150000  0.87300000  0.5 -0.155753793
O  O118  1  0.25850000  0.12700000  0.74550000  0.5 -0.155753793
O  O119  1  0.74550000  0.25850000  0.12700000  0.5 -0.155753793
O  O120  1  0.74150000  0.62700000  0.75450000  0.5 -0.155753793
O  O121  1  0.24150000  0.87300000  0.24550000  0.5 -0.155753793
O  O122  1  0.75450000  0.74150000  0.62700000  0.5 -0.155753793
O  O123  1  0.12700000  0.74550000  0.25850000  0.5 -0.155753793
O  O124  1  0.87300000  0.24550000  0.24150000  0.5 -0.155753793
O  O125  1  0.62700000  0.75450000  0.74150000  0.5 -0.155753793
O  O126  1  0.37300000  0.25450000  0.75850000  0.5 -0.155753793
O  O127  1  0.75850000  0.37300000  0.25450000  0.5 -0.155753793
O  O128  1  0.25450000  0.75850000  0.37300000  0.5 -0.155753793
O  O129  1  0.13830000  0.26430000  0.69120000  0.5 -0.2548598411
O  O130  1  0.69120000  0.13830000  0.26430000  0.5 -0.2548598411
O  O131  1  0.26430000  0.69120000  0.13830000  0.5 -0.2548598411
O  O132  1  0.23570000  0.30880000  0.63830000  0.5 -0.2548598411
O  O133  1  0.19120000  0.36170000  0.73570000  0.5 -0.2548598411
O  O134  1  0.73570000  0.19120000  0.36170000  0.5 -0.2548598411
O  O135  1  0.80880000  0.86170000  0.76430000  0.5 -0.2548598411
O  O136  1  0.30880000  0.63830000  0.23570000  0.5 -0.2548598411
O  O137  1  0.76430000  0.80880000  0.86170000  0.5 -0.2548598411
O  O138  1  0.36170000  0.73570000  0.19120000  0.5 -0.2548598411
O  O139  1  0.63830000  0.23570000  0.30880000  0.5 -0.2548598411
O  O140  1  0.86170000  0.76430000  0.80880000  0.5 -0.2553655269
O  O141  1  0.26430000  0.19120000  0.86170000  0.5 -0.2548598411
O  O142  1  0.30880000  0.13830000  0.76430000  0.5 -0.2548598411
O  O143  1  0.76430000  0.30880000  0.13830000  0.5 -0.2548598411
O  O144  1  0.69120000  0.63830000  0.73570000  0.5 -0.2548598411
O  O145  1  0.19120000  0.86170000  0.26430000  0.5 -0.2548598411
O  O146  1  0.73570000  0.69120000  0.63830000  0.5 -0.2548598411
O  O147  1  0.13830000  0.76430000  0.30880000  0.5 -0.2548598411
O  O148  1  0.86170000  0.26430000  0.19120000  0.5 -0.2548598411
O  O149  1  0.63830000  0.73570000  0.69120000  0.5 -0.2548598411
O  O150  1  0.36170000  0.23570000  0.80880000  0.5 -0.2548598411
O  O151  1  0.80880000  0.36170000  0.23570000  0.5 -0.2548598411
O  O152  1  0.23570000  0.80880000  0.36170000  0.5 -0.2548598411
O  O153  1  0.16170000  0.20230000  0.67870000  0.5 -0.2365310753
O  O154  1  0.67870000  0.16170000  0.20230000  0.5 -0.2365310753
O  O155  1  0.20230000  0.67870000  0.16170000  0.5 -0.2365310753
O  O156  1  0.29770000  0.32130000  0.66170000  0.5 -0.2365310753
O  O157  1  0.17870000  0.33830000  0.79770000  0.5 -0.2365310753
O  O158  1  0.79770000  0.17870000  0.33830000  0.5 -0.2365310753
O  O159  1  0.82130000  0.83830000  0.70230000  0.5 -0.2365310753
O  O160  1  0.32130000  0.66170000  0.29770000  0.5 -0.2365310753
O  O161  1  0.70230000  0.82130000  0.83830000  0.5 -0.2365310753
O  O162  1  0.33830000  0.79770000  0.17870000  0.5 -0.2365310753
O  O163  1  0.66170000  0.29770000  0.32130000  0.5 -0.2365310753
O  O164  1  0.83830000  0.70230000  0.82130000  0.5 -0.2365310753
O  O165  1  0.20230000  0.17870000  0.83830000  0.5 -0.2365310753
O  O166  1  0.32130000  0.16170000  0.70230000  0.5 -0.2365310753
O  O167  1  0.70230000  0.32130000  0.16170000  0.5 -0.2365310753
O  O168  1  0.67870000  0.66170000  0.79770000  0.5 -0.2365310753
O  O169  1  0.17870000  0.83830000  0.20230000  0.5 -0.2365310753
O  O170  1  0.79770000  0.67870000  0.66170000  0.5 -0.2365310753
O  O171  1  0.16170000  0.70230000  0.32130000  0.5 -0.2365310753
O  O172  1  0.83830000  0.20230000  0.17870000  0.5 -0.2365310753
O  O173  1  0.66170000  0.79770000  0.67870000  0.5 -0.2365310753
O  O174  1  0.33830000  0.29770000  0.82130000  0.5 -0.2365310753
O  O175  1  0.82130000  0.33830000  0.29770000  0.5 -0.2365310753
O  O176  1  0.29770000  0.82130000  0.33830000  0.5 -0.2365310753
O  O177  1  0.15010000  0.18730000  0.73350000  0.5 -0.2099041563
O  O178  1  0.73350000  0.15010000  0.18730000  0.5 -0.2099041563
O  O179  1  0.18730000  0.73350000  0.15010000  0.5 -0.2099041563
O  O180  1  0.31270000  0.26650000  0.65010000  0.5 -0.2099041563
O  O181  1  0.23350000  0.34990000  0.81270000  0.5 -0.2099041563
O  O182  1  0.81270000  0.23350000  0.34990000  0.5 -0.2099041563
O  O183  1  0.76650000  0.84990000  0.68730000  0.5 -0.2099041563
O  O184  1  0.26650000  0.65010000  0.31270000  0.5 -0.2099041563
O  O185  1  0.68730000  0.76650000  0.84990000  0.5 -0.2099041563
O  O186  1  0.34990000  0.81270000  0.23350000  0.5 -0.2099041563
O  O187  1  0.65010000  0.31270000  0.26650000  0.5 -0.2099041563
O  O188  1  0.84990000  0.68730000  0.76650000  0.5 -0.2099041563
O  O189  1  0.18730000  0.23350000  0.84990000  0.5 -0.2099041563
O  O190  1  0.26650000  0.15010000  0.68730000  0.5 -0.2099041563
O  O191  1  0.68730000  0.26650000  0.15010000  0.5 -0.2099041563
O  O192  1  0.73350000  0.65010000  0.81270000  0.5 -0.2099041563
O  O193  1  0.23350000  0.84990000  0.18730000  0.5 -0.2099041563
O  O194  1  0.81270000  0.73350000  0.65010000  0.5 -0.2099041563
O  O195  1  0.15010000  0.68730000  0.26650000  0.5 -0.2099041563
O  O196  1  0.84990000  0.18730000  0.23350000  0.5 -0.2099041563
O  O197  1  0.65010000  0.81270000  0.73350000  0.5 -0.2099041563
O  O198  1  0.34990000  0.31270000  0.76650000  0.5 -0.2099041563
O  O199  1  0.76650000  0.34990000  0.31270000  0.5 -0.2099041563
O  O200  1  0.31270000  0.76650000  0.34990000  0.5 -0.2099041563
F  F1  1  0.81080000  0.72931000  0.04199000  1.0 -0.155753793
F  F2  1  0.77069000  0.95801000  0.31080000  1.0 -0.155753793
F  F3  1  0.31080000  0.77069000  0.95801000  1.0 -0.155753793
F  F4  1  0.22931000  0.45801000  0.18920000  1.0 -0.155753793
F  F5  1  0.72931000  0.04199000  0.81080000  1.0 -0.155753793
F  F6  1  0.18920000  0.22931000  0.45801000  1.0 -0.155753793
F  F7  1  0.95801000  0.31080000  0.77069000  1.0 -0.155753793
F  F8  1  0.04199000  0.81080000  0.72931000  1.0 -0.155753793
F  F9  1  0.45801000  0.18920000  0.22931000  1.0 -0.155753793
F  F10  1  0.54199000  0.68920000  0.27069000  1.0 -0.155753793
F  F11  1  0.27069000  0.54199000  0.68920000  1.0 -0.155753793
F  F12  1  0.68920000  0.27069000  0.54199000  1.0 -0.155753793
F  F13  1  0.95801000  0.81080000  0.22931000  1.0 -0.155753793
F  F14  1  0.22931000  0.95801000  0.81080000  1.0 -0.155753793
F  F15  1  0.81080000  0.22931000  0.95801000  1.0 -0.155753793
F  F16  1  0.68920000  0.77069000  0.45801000  1.0 -0.155753793
F  F17  1  0.72931000  0.54199000  0.18920000  1.0 -0.155753793
F  F18  1  0.18920000  0.72931000  0.54199000  1.0 -0.155753793
F  F19  1  0.27069000  0.04199000  0.31080000  1.0 -0.155753793
F  F20  1  0.77069000  0.45801000  0.68920000  1.0 -0.155753793
F  F21  1  0.31080000  0.27069000  0.04199000  1.0 -0.155753793
F  F22  1  0.54199000  0.18920000  0.72931000  1.0 -0.155753793
F  F23  1  0.45801000  0.68920000  0.77069000  1.0 -0.155753793
F  F24  1  0.04199000  0.31080000  0.27069000  1.0 -0.155753793
F  F25  1  0.78413000  0.89882000  0.09589000  1.0 -0.1523537337
F  F26  1  0.60118000  0.90411000  0.28413000  1.0 -0.1523537337
F  F27  1  0.28413000  0.60118000  0.90411000  1.0 -0.1523537337
F  F28  1  0.39882000  0.40411000  0.21587000  1.0 -0.1523537337
F  F29  1  0.89882000  0.09589000  0.78413000  1.0 -0.1523537337
F  F30  1  0.21587000  0.39882000  0.40411000  1.0 -0.1523537337
F  F31  1  0.90411000  0.28413000  0.60118000  1.0 -0.1523537337
F  F32  1  0.09589000  0.78413000  0.89882000  1.0 -0.1523537337
F  F33  1  0.40411000  0.21587000  0.39882000  1.0 -0.1523537337
F  F34  1  0.59589000  0.71587000  0.10118000  1.0 -0.1523537337
F  F35  1  0.10118000  0.59589000  0.71587000  1.0 -0.1523537337
F  F36  1  0.71587000  0.10118000  0.59589000  1.0 -0.1523537337
F  F37  1  0.90411000  0.78413000  0.39882000  1.0 -0.1523537337
F  F38  1  0.39882000  0.90411000  0.78413000  1.0 -0.1523537337
F  F39  1  0.78413000  0.39882000  0.90411000  1.0 -0.1523537337
F  F40  1  0.71587000  0.60118000  0.40411000  1.0 -0.1523537337
F  F41  1  0.89882000  0.59589000  0.21587000  1.0 -0.1523537337
F  F42  1  0.21587000  0.89882000  0.59589000  1.0 -0.1523537337
F  F43  1  0.10118000  0.09589000  0.28413000  1.0 -0.1523537337
F  F44  1  0.60118000  0.40411000  0.71587000  1.0 -0.1523537337
F  F45  1  0.28413000  0.10118000  0.09589000  1.0 -0.1523537337
F  F46  1  0.59589000  0.21587000  0.89882000  1.0 -0.1523537337
F  F47  1  0.40411000  0.71587000  0.60118000  1.0 -0.1523537337
F  F48  1  0.09589000  0.28413000  0.10118000  1.0 -0.1523537337
F  F49  1  0.04199000  0.18920000  0.77069000  1.0 -0.155753793
F  F50  1  0.77069000  0.04199000  0.18920000  1.0 -0.155753793
F  F51  1  0.18920000  0.77069000  0.04199000  1.0 -0.155753793
F  F52  1  0.31080000  0.22931000  0.54199000  1.0 -0.155753793
F  F53  1  0.27069000  0.45801000  0.81080000  1.0 -0.155753793
F  F54  1  0.81080000  0.27069000  0.45801000  1.0 -0.155753793
F  F55  1  0.72931000  0.95801000  0.68920000  1.0 -0.155753793
F  F56  1  0.22931000  0.54199000  0.31080000  1.0 -0.155753793
F  F57  1  0.68920000  0.72931000  0.95801000  1.0 -0.155753793
F  F58  1  0.45801000  0.81080000  0.27069000  1.0 -0.155753793
F  F59  1  0.54199000  0.31080000  0.22931000  1.0 -0.155753793
F  F60  1  0.95801000  0.68920000  0.72931000  1.0 -0.155753793
F  F61  1  0.18920000  0.27069000  0.95801000  1.0 -0.155753793
F  F62  1  0.22931000  0.04199000  0.68920000  1.0 -0.155753793
F  F63  1  0.68920000  0.22931000  0.04199000  1.0 -0.155753793
F  F64  1  0.77069000  0.54199000  0.81080000  1.0 -0.155753793
F  F65  1  0.27069000  0.95801000  0.18920000  1.0 -0.155753793
F  F66  1  0.81080000  0.77069000  0.54199000  1.0 -0.155753793
F  F67  1  0.04199000  0.68920000  0.22931000  1.0 -0.155753793
F  F68  1  0.95801000  0.18920000  0.27069000  1.0 -0.155753793
F  F69  1  0.54199000  0.81080000  0.77069000  1.0 -0.155753793
F  F70  1  0.45801000  0.31080000  0.72931000  1.0 -0.155753793
F  F71  1  0.72931000  0.45801000  0.31080000  1.0 -0.155753793
F  F72  1  0.31080000  0.72931000  0.45801000  1.0 -0.155753793
F  F73  1  0.09589000  0.21587000  0.60118000  1.0 -0.1523537337
F  F74  1  0.60118000  0.09589000  0.21587000  1.0 -0.1523537337
F  F75  1  0.21587000  0.60118000  0.09589000  1.0 -0.1523537337
F  F76  1  0.28413000  0.39882000  0.59589000  1.0 -0.1523537337
F  F77  1  0.10118000  0.40411000  0.78413000  1.0 -0.1523537337
F  F78  1  0.78413000  0.10118000  0.40411000  1.0 -0.1523537337
F  F79  1  0.89882000  0.90411000  0.71587000  1.0 -0.1523537337
F  F80  1  0.39882000  0.59589000  0.28413000  1.0 -0.1523537337
F  F81  1  0.71587000  0.89882000  0.90411000  1.0 -0.1523537337
F  F82  1  0.40411000  0.78413000  0.10118000  1.0 -0.1523537337
F  F83  1  0.59589000  0.28413000  0.39882000  1.0 -0.1523537337
F  F84  1  0.90411000  0.71587000  0.89882000  1.0 -0.1523537337
F  F85  1  0.21587000  0.10118000  0.90411000  1.0 -0.1523537337
F  F86  1  0.39882000  0.09589000  0.71587000  1.0 -0.1523537337
F  F87  1  0.71587000  0.39882000  0.09589000  1.0 -0.1523537337
F  F88  1  0.60118000  0.59589000  0.78413000  1.0 -0.1523537337
F  F89  1  0.10118000  0.90411000  0.21587000  1.0 -0.1523537337
F  F90  1  0.78413000  0.60118000  0.59589000  1.0 -0.1523537337
F  F91  1  0.09589000  0.71587000  0.39882000  1.0 -0.1523537337
F  F92  1  0.90411000  0.21587000  0.10118000  1.0 -0.1523537337
F  F93  1  0.59589000  0.78413000  0.60118000  1.0 -0.1523537337
F  F94  1  0.40411000  0.28413000  0.89882000  1.0 -0.1523537337
F  F95  1  0.89882000  0.40411000  0.28413000  1.0 -0.1523537337
F  F96  1  0.28413000  0.89882000  0.40411000  1.0 -0.1523537337
