# generated by PACMAN-DDEC6 charge (https://github.com/sxm13/PACMAN/)
data_structure
_chemical_formula_sum              "Ga8 H32 C64 O40"
_cell_length_a       14.924
_cell_length_b       14.924
_cell_length_c       11.929
_cell_angle_alpha    90
_cell_angle_beta     90
_cell_angle_gamma    90

_symmetry_space_group_name_H-M    "P 1"
_symmetry_Int_Tables_number       1

loop_
  _symmetry_equiv_pos_as_xyz
  'x, y, z'

loop_
  _atom_site_type_symbol
  _atom_site_label
  _atom_site_symmetry_multiplicity
  _atom_site_fract_x
  _atom_site_fract_y
  _atom_site_fract_z
  _atom_site_occupancy
  _atom_site_charge
Ga  Ga1       1.0  0.19347  0.19347  0.00000  0.9500 1.4272298515
Ga  Ga2       1.0  0.80653  0.69347  0.25000  0.9500 1.4272298515
Ga  Ga3       1.0  0.80653  0.80653  0.00000  0.9500 1.4272298515
Ga  Ga4       1.0  0.19347  0.30653  0.25000  0.9500 1.4272298515
Ga  Ga5       1.0  0.69347  0.69347  0.50000  0.9500 1.4272298515
Ga  Ga6       1.0  0.30653  0.19347  0.75000  0.9500 1.4272298515
Ga  Ga7       1.0  0.30653  0.30653  0.50000  0.9500 1.4272298515
Ga  Ga8       1.0  0.69347  0.80653  0.75000  0.9500 1.4272298515
H   H1        1.0  0.30880  0.25000  0.12500  1.0000 0.4019778073
H   H2        1.0  0.75000  0.80880  0.37500  1.0000 0.4019778073
H   H3        1.0  0.69120  0.75000  0.12500  1.0000 0.4019778073
H   H4        1.0  0.25000  0.19120  0.37500  1.0000 0.4019778073
H   H5        1.0  0.25000  0.30880  0.87500  1.0000 0.4019778073
H   H6        1.0  0.75000  0.69120  0.87500  1.0000 0.4019778073
H   H7        1.0  0.80880  0.75000  0.62500  1.0000 0.4019778073
H   H8        1.0  0.19120  0.25000  0.62500  1.0000 0.4019778073
H   H9        1.0  0.00000  0.50000  0.12680  1.0000 0.1403418146
H   H10       1.0  0.50000  0.50000  0.37680  1.0000 0.1403418146
H   H11       1.0  0.00000  0.00000  0.12320  1.0000 0.1403418146
H   H12       1.0  0.50000  0.00000  0.87320  1.0000 0.1403418146
H   H13       1.0  0.50000  0.00000  0.62680  1.0000 0.1403418146
H   H14       1.0  0.00000  0.00000  0.87680  1.0000 0.1403418146
H   H15       1.0  0.50000  0.50000  0.62320  1.0000 0.1403418146
H   H16       1.0  0.00000  0.50000  0.37320  1.0000 0.1403418146
H   H17       1.0  0.06380  0.38220  0.82980  1.0000 0.1199094728
H   H18       1.0  0.61780  0.56380  0.07980  1.0000 0.1199094728
H   H19       1.0  0.93620  0.61780  0.82980  1.0000 0.1199094728
H   H20       1.0  0.38220  0.43620  0.07980  1.0000 0.1199094728
H   H21       1.0  0.06380  0.11780  0.42020  1.0000 0.1199094728
H   H22       1.0  0.93620  0.88220  0.42020  1.0000 0.1199094728
H   H23       1.0  0.38220  0.06380  0.17020  1.0000 0.1199094728
H   H24       1.0  0.61780  0.93620  0.17020  1.0000 0.1199094728
H   H25       1.0  0.56380  0.88220  0.32980  1.0000 0.1199094728
H   H26       1.0  0.11780  0.06380  0.57980  1.0000 0.1199094728
H   H27       1.0  0.43620  0.11780  0.32980  1.0000 0.1199094728
H   H28       1.0  0.88220  0.93620  0.57980  1.0000 0.1199094728
H   H29       1.0  0.56380  0.61780  0.92020  1.0000 0.1199094728
H   H30       1.0  0.43620  0.38220  0.92020  1.0000 0.1199094728
H   H31       1.0  0.88220  0.56380  0.67020  1.0000 0.1199094728
H   H32       1.0  0.11780  0.43620  0.67020  1.0000 0.1199094728
C   C1        1.0  0.00000  0.50000  0.81230  1.0000 0.0812651888
C   C2        1.0  0.50000  0.50000  0.06230  1.0000 0.0812651888
C   C3        1.0  0.00000  0.00000  0.43770  1.0000 0.0812651888
C   C4        1.0  0.50000  0.00000  0.18770  1.0000 0.0812651888
C   C5        1.0  0.50000  0.00000  0.31230  1.0000 0.0812651888
C   C6        1.0  0.00000  0.00000  0.56230  1.0000 0.0812651888
C   C7        1.0  0.50000  0.50000  0.93770  1.0000 0.0812651888
C   C8        1.0  0.00000  0.50000  0.68770  1.0000 0.0812651888
C   C9        1.0  0.00000  0.50000  0.04710  1.0000 -0.0847488586
C   C10       1.0  0.50000  0.50000  0.29710  1.0000 -0.0847488586
C   C11       1.0  0.00000  0.00000  0.20290  1.0000 -0.0847488586
C   C12       1.0  0.50000  0.00000  0.95290  1.0000 -0.0847488586
C   C13       1.0  0.50000  0.00000  0.54710  1.0000 -0.0847488586
C   C14       1.0  0.00000  0.00000  0.79710  1.0000 -0.0847488586
C   C15       1.0  0.50000  0.50000  0.70290  1.0000 -0.0847488586
C   C16       1.0  0.00000  0.50000  0.45290  1.0000 -0.0847488586
C   C17       1.0  0.09120  0.35950  0.04890  1.0000 0.6043194532
C   C18       1.0  0.64050  0.59120  0.29890  1.0000 0.6043194532
C   C19       1.0  0.90880  0.64050  0.04890  1.0000 0.6043194532
C   C20       1.0  0.35950  0.40880  0.29890  1.0000 0.6043194532
C   C21       1.0  0.09120  0.14050  0.20110  1.0000 0.6043194532
C   C22       1.0  0.90880  0.85950  0.20110  1.0000 0.6043194532
C   C23       1.0  0.35950  0.09120  0.95110  1.0000 0.6043194532
C   C24       1.0  0.64050  0.90880  0.95110  1.0000 0.6043194532
C   C25       1.0  0.59120  0.85950  0.54890  1.0000 0.6043194532
C   C26       1.0  0.14050  0.09120  0.79890  1.0000 0.6043194532
C   C27       1.0  0.40880  0.14050  0.54890  1.0000 0.6043194532
C   C28       1.0  0.85950  0.90880  0.79890  1.0000 0.6043194532
C   C29       1.0  0.59120  0.64050  0.70110  1.0000 0.6043194532
C   C30       1.0  0.40880  0.35950  0.70110  1.0000 0.6043194532
C   C31       1.0  0.85950  0.59120  0.45110  1.0000 0.6043194532
C   C32       1.0  0.14050  0.40880  0.45110  1.0000 0.6043194532
C   C33       1.0  0.04310  0.43050  0.99040  1.0000 -0.0587232011
C   C34       1.0  0.56950  0.54310  0.24040  1.0000 -0.0587232011
C   C35       1.0  0.95690  0.56950  0.99040  1.0000 -0.0587232011
C   C36       1.0  0.43050  0.45690  0.24040  1.0000 -0.0587232011
C   C37       1.0  0.04310  0.06950  0.25960  1.0000 -0.0587232011
C   C38       1.0  0.95690  0.93050  0.25960  1.0000 -0.0587232011
C   C39       1.0  0.43050  0.04310  0.00960  1.0000 -0.0587232011
C   C40       1.0  0.56950  0.95690  0.00960  1.0000 -0.0587232011
C   C41       1.0  0.54310  0.93050  0.49040  1.0000 -0.0587232011
C   C42       1.0  0.06950  0.04310  0.74040  1.0000 -0.0587232011
C   C43       1.0  0.45690  0.06950  0.49040  1.0000 -0.0587232011
C   C44       1.0  0.93050  0.95690  0.74040  1.0000 -0.0587232011
C   C45       1.0  0.54310  0.56950  0.75960  1.0000 -0.0587232011
C   C46       1.0  0.45690  0.43050  0.75960  1.0000 -0.0587232011
C   C47       1.0  0.93050  0.54310  0.50960  1.0000 -0.0587232011
C   C48       1.0  0.06950  0.45690  0.50960  1.0000 -0.0587232011
C   C49       1.0  0.03890  0.43110  0.87030  1.0000 -0.1400289834
C   C50       1.0  0.56890  0.53890  0.12030  1.0000 -0.1400289834
C   C51       1.0  0.96110  0.56890  0.87030  1.0000 -0.1400289834
C   C52       1.0  0.43110  0.46110  0.12030  1.0000 -0.1400289834
C   C53       1.0  0.03890  0.06890  0.37970  1.0000 -0.1400289834
C   C54       1.0  0.96110  0.93110  0.37970  1.0000 -0.1400289834
C   C55       1.0  0.43110  0.03890  0.12970  1.0000 -0.1400289834
C   C56       1.0  0.56890  0.96110  0.12970  1.0000 -0.1400289834
C   C57       1.0  0.53890  0.93110  0.37030  1.0000 -0.1400289834
C   C58       1.0  0.06890  0.03890  0.62030  1.0000 -0.1400289834
C   C59       1.0  0.46110  0.06890  0.37030  1.0000 -0.1400289834
C   C60       1.0  0.93110  0.96110  0.62030  1.0000 -0.1400289834
C   C61       1.0  0.53890  0.56890  0.87970  1.0000 -0.1400289834
C   C62       1.0  0.46110  0.43110  0.87970  1.0000 -0.1400289834
C   C63       1.0  0.93110  0.53890  0.62970  1.0000 -0.1400289834
C   C64       1.0  0.06890  0.46110  0.62970  1.0000 -0.1400289834
O   O1        1.0  0.09944  0.28615  0.99780  1.0000 -0.5542100742
O   O2        1.0  0.71385  0.59944  0.24780  1.0000 -0.5542100742
O   O3        1.0  0.90056  0.71385  0.99780  1.0000 -0.5542100742
O   O4        1.0  0.28615  0.40056  0.24780  1.0000 -0.5542100742
O   O5        1.0  0.09944  0.21385  0.25220  1.0000 -0.5542100742
O   O6        1.0  0.90056  0.78615  0.25220  1.0000 -0.5542100742
O   O7        1.0  0.28615  0.09944  0.00220  1.0000 -0.5542100742
O   O8        1.0  0.71385  0.90056  0.00220  1.0000 -0.5542100742
O   O9        1.0  0.59944  0.78615  0.49780  1.0000 -0.5542100742
O   O10       1.0  0.21385  0.09944  0.74780  1.0000 -0.5542100742
O   O11       1.0  0.40056  0.21385  0.49780  1.0000 -0.5542100742
O   O12       1.0  0.78615  0.90056  0.74780  1.0000 -0.5542100742
O   O13       1.0  0.59944  0.71385  0.75220  1.0000 -0.5542100742
O   O14       1.0  0.40056  0.28615  0.75220  1.0000 -0.5542100742
O   O15       1.0  0.78615  0.59944  0.50220  1.0000 -0.5542100742
O   O16       1.0  0.21385  0.40056  0.50220  1.0000 -0.5542100742
O   O17       1.0  0.25370  0.25000  0.12500  1.0000 -0.8655047119
O   O18       1.0  0.75000  0.75370  0.37500  1.0000 -0.8655047119
O   O19       1.0  0.74630  0.75000  0.12500  1.0000 -0.8655047119
O   O20       1.0  0.25000  0.24630  0.37500  1.0000 -0.8655047119
O   O21       1.0  0.25000  0.25370  0.87500  1.0000 -0.8655047119
O   O22       1.0  0.75000  0.74630  0.87500  1.0000 -0.8655047119
O   O23       1.0  0.75370  0.75000  0.62500  1.0000 -0.8655047119
O   O24       1.0  0.24630  0.25000  0.62500  1.0000 -0.8655047119
O   O25       1.0  0.12249  0.12058  0.10666  1.0000 -0.5215472132
O   O26       1.0  0.87942  0.62249  0.35666  1.0000 -0.5215472132
O   O27       1.0  0.87751  0.87942  0.10666  1.0000 -0.5215472132
O   O28       1.0  0.12058  0.37751  0.35666  1.0000 -0.5215472132
O   O29       1.0  0.12249  0.37942  0.14334  1.0000 -0.5215472132
O   O30       1.0  0.87751  0.62058  0.14334  1.0000 -0.5215472132
O   O31       1.0  0.12058  0.12249  0.89334  1.0000 -0.5215472132
O   O32       1.0  0.87942  0.87751  0.89334  1.0000 -0.5215472132
O   O33       1.0  0.62249  0.62058  0.60666  1.0000 -0.5215472132
O   O34       1.0  0.37942  0.12249  0.85666  1.0000 -0.5215472132
O   O35       1.0  0.37751  0.37942  0.60666  1.0000 -0.5215472132
O   O36       1.0  0.62058  0.87751  0.85666  1.0000 -0.5215472132
O   O37       1.0  0.62249  0.87942  0.64334  1.0000 -0.5215472132
O   O38       1.0  0.37751  0.12058  0.64334  1.0000 -0.5215472132
O   O39       1.0  0.62058  0.62249  0.39334  1.0000 -0.5215472132
O   O40       1.0  0.37942  0.37751  0.39334  1.0000 -0.5215472132
  Fe  Fe1       1.0  0.19347  0.19347  0.00000  0.0500
  Fe  Fe2       1.0  0.80653  0.69347  0.25000  0.0500
  Fe  Fe3       1.0  0.80653  0.80653  0.00000  0.0500
  Fe  Fe4       1.0  0.19347  0.30653  0.25000  0.0500
  Fe  Fe5       1.0  0.69347  0.69347  0.50000  0.0500
  Fe  Fe6       1.0  0.30653  0.19347  0.75000  0.0500
  Fe  Fe7       1.0  0.30653  0.30653  0.50000  0.0500
  Fe  Fe8       1.0  0.69347  0.80653  0.75000  0.0500
