# DDEC6 charges by PACMAN v1.1 (https://github.com/mtap-research/PACMAN-charge/)
data_c9ta13547b2_FSR_pacman
_symmetry_space_group_name_H-M   'P 1'
_cell_length_a   21.96660000
_cell_length_b   21.96660000
_cell_length_c   21.96660000
_cell_angle_alpha   90.00000000
_cell_angle_beta   90.00000000
_cell_angle_gamma   90.00000000
_symmetry_Int_Tables_number   1
_chemical_formula_structural   Fe12H66C105N15O64
_chemical_formula_sum   'Fe24 H132 C210 N30 O128'
_cell_volume   10599.57678970
_cell_formula_units_Z   2
loop_
 _symmetry_equiv_pos_site_id
 _symmetry_equiv_pos_as_xyz
  1  'x, y, z'
loop_
 _atom_site_type_symbol
 _atom_site_label
 _atom_site_symmetry_multiplicity
 _atom_site_fract_x
 _atom_site_fract_y
 _atom_site_fract_z
 _atom_site_occupancy
 _atom_site_charge
Fe  Fe1  1  0.23912000  0.69672000  0.82042000  1.0 1.2068442068
Fe  Fe2  1  0.76088000  0.30328000  0.82042000  1.0 1.2068442068
Fe  Fe3  1  0.76088000  0.69672000  0.17958000  1.0 1.2068442068
Fe  Fe4  1  0.23912000  0.30328000  0.17958000  1.0 1.2068442068
Fe  Fe5  1  0.82042000  0.23912000  0.69672000  1.0 1.2068442068
Fe  Fe6  1  0.82042000  0.76088000  0.30328000  1.0 1.2068442068
Fe  Fe7  1  0.17958000  0.76088000  0.69672000  1.0 1.2068442068
Fe  Fe8  1  0.17958000  0.23912000  0.30328000  1.0 1.2068442068
Fe  Fe9  1  0.69672000  0.82042000  0.23912000  1.0 1.2068442068
Fe  Fe10  1  0.30328000  0.82042000  0.76088000  1.0 1.2068442068
Fe  Fe11  1  0.69672000  0.17958000  0.76088000  1.0 1.2068442068
Fe  Fe12  1  0.30328000  0.17958000  0.23912000  1.0 1.2068442068
Fe  Fe13  1  0.19672000  0.73912000  0.32042000  1.0 1.2068442068
Fe  Fe14  1  0.80328000  0.26088000  0.32042000  1.0 1.2068442068
Fe  Fe15  1  0.19672000  0.26088000  0.67958000  1.0 1.2068442068
Fe  Fe16  1  0.80328000  0.73912000  0.67958000  1.0 1.2068442068
Fe  Fe17  1  0.73912000  0.32042000  0.19672000  1.0 1.2068442068
Fe  Fe18  1  0.26088000  0.32042000  0.80328000  1.0 1.2068442068
Fe  Fe19  1  0.26088000  0.67958000  0.19672000  1.0 1.2068442068
Fe  Fe20  1  0.73912000  0.67958000  0.80328000  1.0 1.2068442068
Fe  Fe21  1  0.32042000  0.19672000  0.73912000  1.0 1.2068442068
Fe  Fe22  1  0.32042000  0.80328000  0.26088000  1.0 1.2068442068
Fe  Fe23  1  0.67958000  0.19672000  0.26088000  1.0 1.2068442068
Fe  Fe24  1  0.67958000  0.80328000  0.73912000  1.0 1.2068442068
H  H1  1  0.22412000  0.50891000  0.74526000  1.0 0.1475561164
H  H2  1  0.20161000  0.42403000  0.58439000  1.0 0.1398913357
H  H3  1  0.19038000  0.60676000  0.59375000  1.0 0.1475561164
H  H4  1  0.77588000  0.49109000  0.74526000  1.0 0.1475561164
H  H5  1  0.79839000  0.57597000  0.58439000  1.0 0.1398913357
H  H6  1  0.80962000  0.39324000  0.59375000  1.0 0.1475561164
H  H7  1  0.77588000  0.50891000  0.25474000  1.0 0.1475561164
H  H8  1  0.79839000  0.42403000  0.41561000  1.0 0.1398913357
H  H9  1  0.80962000  0.60676000  0.40625000  1.0 0.1475561164
H  H10  1  0.22412000  0.49109000  0.25474000  1.0 0.1475561164
H  H11  1  0.20161000  0.57597000  0.41561000  1.0 0.1398913357
H  H12  1  0.19038000  0.39324000  0.40625000  1.0 0.1475561164
H  H13  1  0.74526000  0.22412000  0.50891000  1.0 0.1475561164
H  H14  1  0.58439000  0.20161000  0.42403000  1.0 0.1398913357
H  H15  1  0.59375000  0.19038000  0.60676000  1.0 0.1475561164
H  H16  1  0.74526000  0.77588000  0.49109000  1.0 0.1475561164
H  H17  1  0.58439000  0.79839000  0.57597000  1.0 0.1398913357
H  H18  1  0.59375000  0.80962000  0.39324000  1.0 0.1475561164
H  H19  1  0.25474000  0.77588000  0.50891000  1.0 0.1475561164
H  H20  1  0.41561000  0.79839000  0.42403000  1.0 0.1398913357
H  H21  1  0.40625000  0.80962000  0.60676000  1.0 0.1475561164
H  H22  1  0.25474000  0.22412000  0.49109000  1.0 0.1475561164
H  H23  1  0.41561000  0.20161000  0.57597000  1.0 0.1398913357
H  H24  1  0.40625000  0.19038000  0.39324000  1.0 0.1475561164
H  H25  1  0.50891000  0.74526000  0.22412000  1.0 0.1475561164
H  H26  1  0.42403000  0.58439000  0.20161000  1.0 0.1398913357
H  H27  1  0.60676000  0.59375000  0.19038000  1.0 0.1475561164
H  H28  1  0.49109000  0.74526000  0.77588000  1.0 0.1475561164
H  H29  1  0.57597000  0.58439000  0.79839000  1.0 0.1398913357
H  H30  1  0.39324000  0.59375000  0.80962000  1.0 0.1475561164
H  H31  1  0.50891000  0.25474000  0.77588000  1.0 0.1475561164
H  H32  1  0.42403000  0.41561000  0.79839000  1.0 0.1398913357
H  H33  1  0.60676000  0.40625000  0.80962000  1.0 0.1475561164
H  H34  1  0.49109000  0.25474000  0.22412000  1.0 0.1475561164
H  H35  1  0.57597000  0.41561000  0.20161000  1.0 0.1398913357
H  H36  1  0.39324000  0.40625000  0.19038000  1.0 0.1475561164
H  H37  1  0.00891000  0.72412000  0.24526000  1.0 0.1475561164
H  H38  1  0.92403000  0.70161000  0.08439000  1.0 0.1398913357
H  H39  1  0.10676000  0.69038000  0.09375000  1.0 0.1475561164
H  H40  1  0.99109000  0.27588000  0.24526000  1.0 0.1475561164
H  H41  1  0.07597000  0.29839000  0.08439000  1.0 0.1398913357
H  H42  1  0.89324000  0.30962000  0.09375000  1.0 0.1475561164
H  H43  1  0.00891000  0.27588000  0.75474000  1.0 0.1475561164
H  H44  1  0.92403000  0.29839000  0.91561000  1.0 0.1398913357
H  H45  1  0.10676000  0.30962000  0.90625000  1.0 0.1475561164
H  H46  1  0.99109000  0.72412000  0.75474000  1.0 0.1475561164
H  H47  1  0.07597000  0.70161000  0.91561000  1.0 0.1398913357
H  H48  1  0.89324000  0.69038000  0.90625000  1.0 0.1475561164
H  H49  1  0.72412000  0.24526000  0.00891000  1.0 0.1475561164
H  H50  1  0.70161000  0.08439000  0.92403000  1.0 0.1398913357
H  H51  1  0.69038000  0.09375000  0.10676000  1.0 0.1475561164
H  H52  1  0.27588000  0.24526000  0.99109000  1.0 0.1475561164
H  H53  1  0.29839000  0.08439000  0.07597000  1.0 0.1398913357
H  H54  1  0.30962000  0.09375000  0.89324000  1.0 0.1475561164
H  H55  1  0.27588000  0.75474000  0.00891000  1.0 0.1475561164
H  H56  1  0.29839000  0.91561000  0.92403000  1.0 0.1398913357
H  H57  1  0.30962000  0.90625000  0.10676000  1.0 0.1475561164
H  H58  1  0.72412000  0.75474000  0.99109000  1.0 0.1475561164
H  H59  1  0.70161000  0.91561000  0.07597000  1.0 0.1398913357
H  H60  1  0.69038000  0.90625000  0.89324000  1.0 0.1475561164
H  H61  1  0.24526000  0.00891000  0.72412000  1.0 0.1475561164
H  H62  1  0.08439000  0.92403000  0.70161000  1.0 0.1398913357
H  H63  1  0.09375000  0.10676000  0.69038000  1.0 0.1475561164
H  H64  1  0.24526000  0.99109000  0.27588000  1.0 0.1475561164
H  H65  1  0.08439000  0.07597000  0.29839000  1.0 0.1398913357
H  H66  1  0.09375000  0.89324000  0.30962000  1.0 0.1475561164
H  H67  1  0.75474000  0.00891000  0.27588000  1.0 0.1475561164
H  H68  1  0.91561000  0.92403000  0.29839000  1.0 0.1398913357
H  H69  1  0.90625000  0.10676000  0.30962000  1.0 0.1475561164
H  H70  1  0.75474000  0.99109000  0.72412000  1.0 0.1475561164
H  H71  1  0.91561000  0.07597000  0.70161000  1.0 0.1398913357
H  H72  1  0.90625000  0.89324000  0.69038000  1.0 0.1475561164
H  H73  1  0.19210000  0.56908000  0.00985000  0.25 0.1135176904
H  H74  1  0.25762000  0.50280000  0.94670000  0.25 0.1184718446
H  H75  1  0.28904000  0.55611000  0.85267000  0.25 0.1021675504
H  H76  1  0.18165000  0.66816000  0.95359000  0.25 0.1184718446
H  H77  1  0.80790000  0.43092000  0.00985000  0.25 0.1135176904
H  H78  1  0.74238000  0.49720000  0.94670000  0.25 0.1184718446
H  H79  1  0.71096000  0.44389000  0.85267000  0.25 0.1021675504
H  H80  1  0.81835000  0.33184000  0.95359000  0.25 0.1184718446
H  H81  1  0.80790000  0.56908000  0.99015000  0.25 0.1135176904
H  H82  1  0.74238000  0.50280000  0.05330000  0.25 0.1184718446
H  H83  1  0.71096000  0.55611000  0.14733000  0.25 0.1021675504
H  H84  1  0.81835000  0.66816000  0.04641000  0.25 0.1184718446
H  H85  1  0.19210000  0.43092000  0.99015000  0.25 0.1135176904
H  H86  1  0.25762000  0.49720000  0.05330000  0.25 0.1184718446
H  H87  1  0.28904000  0.44389000  0.14733000  0.25 0.1021675504
H  H88  1  0.18165000  0.33184000  0.04641000  0.25 0.1184718446
H  H89  1  0.00985000  0.19210000  0.56908000  0.25 0.1135176904
H  H90  1  0.94670000  0.25762000  0.50280000  0.25 0.1184718446
H  H91  1  0.85267000  0.28904000  0.55611000  0.25 0.1021675504
H  H92  1  0.95359000  0.18165000  0.66816000  0.25 0.1184718446
H  H93  1  0.00985000  0.80790000  0.43092000  0.25 0.1135176904
H  H94  1  0.94670000  0.74238000  0.49720000  0.25 0.1184718446
H  H95  1  0.85267000  0.71096000  0.44389000  0.25 0.1021675504
H  H96  1  0.95359000  0.81835000  0.33184000  0.25 0.1184718446
H  H97  1  0.99015000  0.80790000  0.56908000  0.25 0.1135176904
H  H98  1  0.05330000  0.74238000  0.50280000  0.25 0.1184718446
H  H99  1  0.14733000  0.71096000  0.55611000  0.25 0.1021675504
H  H100  1  0.04641000  0.81835000  0.66816000  0.25 0.1184718446
H  H101  1  0.99015000  0.19210000  0.43092000  0.25 0.1135176904
H  H102  1  0.05330000  0.25762000  0.49720000  0.25 0.1184718446
H  H103  1  0.14733000  0.28904000  0.44389000  0.25 0.1021675504
H  H104  1  0.04641000  0.18165000  0.33184000  0.25 0.1184718446
H  H105  1  0.56908000  0.00985000  0.19210000  0.25 0.1135176904
H  H106  1  0.50280000  0.94670000  0.25762000  0.25 0.1184718446
H  H107  1  0.55611000  0.85267000  0.28904000  0.25 0.1021675504
H  H108  1  0.66816000  0.95359000  0.18165000  0.25 0.1184718446
H  H109  1  0.43092000  0.00985000  0.80790000  0.25 0.1135176904
H  H110  1  0.49720000  0.94670000  0.74238000  0.25 0.1184718446
H  H111  1  0.44389000  0.85267000  0.71096000  0.25 0.1021675504
H  H112  1  0.33184000  0.95359000  0.81835000  0.25 0.1184718446
H  H113  1  0.56908000  0.99015000  0.80790000  0.25 0.1135176904
H  H114  1  0.50280000  0.05330000  0.74238000  0.25 0.1184718446
H  H115  1  0.55611000  0.14733000  0.71096000  0.25 0.1021675504
H  H116  1  0.66816000  0.04641000  0.81835000  0.25 0.1184718446
H  H117  1  0.43092000  0.99015000  0.19210000  0.25 0.1135176904
H  H118  1  0.49720000  0.05330000  0.25762000  0.25 0.1184718446
H  H119  1  0.44389000  0.14733000  0.28904000  0.25 0.1021675504
H  H120  1  0.33184000  0.04641000  0.18165000  0.25 0.1184718446
H  H121  1  0.06908000  0.69210000  0.50985000  0.25 0.1135176904
H  H122  1  0.00280000  0.75762000  0.44670000  0.25 0.1184718446
H  H123  1  0.05611000  0.78904000  0.35267000  0.25 0.1021675504
H  H124  1  0.16816000  0.68165000  0.45359000  0.25 0.1184718446
H  H125  1  0.93092000  0.30790000  0.50985000  0.25 0.1135176904
H  H126  1  0.99720000  0.24238000  0.44670000  0.25 0.1184718446
H  H127  1  0.94389000  0.21096000  0.35267000  0.25 0.1021675504
H  H128  1  0.83184000  0.31835000  0.45359000  0.25 0.1184718446
H  H129  1  0.06908000  0.30790000  0.49015000  0.25 0.1135176904
H  H130  1  0.00280000  0.24238000  0.55330000  0.25 0.1184718446
H  H131  1  0.05611000  0.21096000  0.64733000  0.25 0.1021675504
H  H132  1  0.16816000  0.31835000  0.54641000  0.25 0.1184718446
H  H133  1  0.93092000  0.69210000  0.49015000  0.25 0.1135176904
H  H134  1  0.99720000  0.75762000  0.55330000  0.25 0.1184718446
H  H135  1  0.94389000  0.78904000  0.64733000  0.25 0.1021675504
H  H136  1  0.83184000  0.68165000  0.54641000  0.25 0.1184718446
H  H137  1  0.69210000  0.50985000  0.06908000  0.25 0.1135176904
H  H138  1  0.75762000  0.44670000  0.00280000  0.25 0.1184718446
H  H139  1  0.78904000  0.35267000  0.05611000  0.25 0.1021675504
H  H140  1  0.68165000  0.45359000  0.16816000  0.25 0.1184718446
H  H141  1  0.30790000  0.50985000  0.93092000  0.25 0.1135176904
H  H142  1  0.24238000  0.44670000  0.99720000  0.25 0.1184718446
H  H143  1  0.21096000  0.35267000  0.94389000  0.25 0.1021675504
H  H144  1  0.31835000  0.45359000  0.83184000  0.25 0.1184718446
H  H145  1  0.30790000  0.49015000  0.06908000  0.25 0.1135176904
H  H146  1  0.24238000  0.55330000  0.00280000  0.25 0.1184718446
H  H147  1  0.21096000  0.64733000  0.05611000  0.25 0.1021675504
H  H148  1  0.31835000  0.54641000  0.16816000  0.25 0.1184718446
H  H149  1  0.69210000  0.49015000  0.93092000  0.25 0.1135176904
H  H150  1  0.75762000  0.55330000  0.99720000  0.25 0.1184718446
H  H151  1  0.78904000  0.64733000  0.94389000  0.25 0.1021675504
H  H152  1  0.68165000  0.54641000  0.83184000  0.25 0.1184718446
H  H153  1  0.50985000  0.06908000  0.69210000  0.25 0.1135176904
H  H154  1  0.44670000  0.00280000  0.75762000  0.25 0.1184718446
H  H155  1  0.35267000  0.05611000  0.78904000  0.25 0.1021675504
H  H156  1  0.45359000  0.16816000  0.68165000  0.25 0.1184718446
H  H157  1  0.50985000  0.93092000  0.30790000  0.25 0.1135176904
H  H158  1  0.44670000  0.99720000  0.24238000  0.25 0.1184718446
H  H159  1  0.35267000  0.94389000  0.21096000  0.25 0.1021675504
H  H160  1  0.45359000  0.83184000  0.31835000  0.25 0.1184718446
H  H161  1  0.49015000  0.06908000  0.30790000  0.25 0.1135176904
H  H162  1  0.55330000  0.00280000  0.24238000  0.25 0.1184718446
H  H163  1  0.64733000  0.05611000  0.21096000  0.25 0.1021675504
H  H164  1  0.54641000  0.16816000  0.31835000  0.25 0.1184718446
H  H165  1  0.49015000  0.93092000  0.69210000  0.25 0.1135176904
H  H166  1  0.55330000  0.99720000  0.75762000  0.25 0.1184718446
H  H167  1  0.64733000  0.94389000  0.78904000  0.25 0.1021675504
H  H168  1  0.54641000  0.83184000  0.68165000  0.25 0.1184718446
H  H169  1  0.23814000  0.62133000  0.92486000  0.75 0.1344833187
H  H170  1  0.22770000  0.59511000  0.87563000  0.75 0.1398913357
H  H171  1  0.76186000  0.37867000  0.92486000  0.75 0.1344833187
H  H172  1  0.77230000  0.40489000  0.87563000  0.75 0.1398913357
H  H173  1  0.76186000  0.62133000  0.07514000  0.75 0.1344833187
H  H174  1  0.77230000  0.59511000  0.12437000  0.75 0.1398913357
H  H175  1  0.23814000  0.37867000  0.07514000  0.75 0.1344833187
H  H176  1  0.22770000  0.40489000  0.12437000  0.75 0.1398913357
H  H177  1  0.92486000  0.23814000  0.62133000  0.75 0.1344833187
H  H178  1  0.87563000  0.22770000  0.59511000  0.75 0.1398913357
H  H179  1  0.92486000  0.76186000  0.37867000  0.75 0.1344833187
H  H180  1  0.87563000  0.77230000  0.40489000  0.75 0.1398913357
H  H181  1  0.07514000  0.76186000  0.62133000  0.75 0.1344833187
H  H182  1  0.12437000  0.77230000  0.59511000  0.75 0.1398913357
H  H183  1  0.07514000  0.23814000  0.37867000  0.75 0.1344833187
H  H184  1  0.12437000  0.22770000  0.40489000  0.75 0.1398913357
H  H185  1  0.62133000  0.92486000  0.23814000  0.75 0.1344833187
H  H186  1  0.59511000  0.87563000  0.22770000  0.75 0.1398913357
H  H187  1  0.37867000  0.92486000  0.76186000  0.75 0.1344833187
H  H188  1  0.40489000  0.87563000  0.77230000  0.75 0.1398913357
H  H189  1  0.62133000  0.07514000  0.76186000  0.75 0.1344833187
H  H190  1  0.59511000  0.12437000  0.77230000  0.75 0.1398913357
H  H191  1  0.37867000  0.07514000  0.23814000  0.75 0.1344833187
H  H192  1  0.40489000  0.12437000  0.22770000  0.75 0.1398913357
H  H193  1  0.12133000  0.73814000  0.42486000  0.75 0.1344833187
H  H194  1  0.09511000  0.72770000  0.37563000  0.75 0.1398913357
H  H195  1  0.87867000  0.26186000  0.42486000  0.75 0.1344833187
H  H196  1  0.90489000  0.27230000  0.37563000  0.75 0.1398913357
H  H197  1  0.12133000  0.26186000  0.57514000  0.75 0.1344833187
H  H198  1  0.09511000  0.27230000  0.62437000  0.75 0.1398913357
H  H199  1  0.87867000  0.73814000  0.57514000  0.75 0.1344833187
H  H200  1  0.90489000  0.72770000  0.62437000  0.75 0.1398913357
H  H201  1  0.73814000  0.42486000  0.12133000  0.75 0.1344833187
H  H202  1  0.72770000  0.37563000  0.09511000  0.75 0.1398913357
H  H203  1  0.26186000  0.42486000  0.87867000  0.75 0.1344833187
H  H204  1  0.27230000  0.37563000  0.90489000  0.75 0.1398913357
H  H205  1  0.26186000  0.57514000  0.12133000  0.75 0.1344833187
H  H206  1  0.27230000  0.62437000  0.09511000  0.75 0.1398913357
H  H207  1  0.73814000  0.57514000  0.87867000  0.75 0.1344833187
H  H208  1  0.72770000  0.62437000  0.90489000  0.75 0.1398913357
H  H209  1  0.42486000  0.12133000  0.73814000  0.75 0.1344833187
H  H210  1  0.37563000  0.09511000  0.72770000  0.75 0.1398913357
H  H211  1  0.42486000  0.87867000  0.26186000  0.75 0.1344833187
H  H212  1  0.37563000  0.90489000  0.27230000  0.75 0.1398913357
H  H213  1  0.57514000  0.12133000  0.26186000  0.75 0.1344833187
H  H214  1  0.62437000  0.09511000  0.27230000  0.75 0.1398913357
H  H215  1  0.57514000  0.87867000  0.73814000  0.75 0.1344833187
H  H216  1  0.62437000  0.90489000  0.72770000  0.75 0.1398913357
C  C1  1  0.21430000  0.45740000  0.66890000  1.0 -0.0061867148
C  C2  1  0.22280000  0.39590000  0.69790000  1.0 0.5985720541
C  C3  1  0.20580000  0.62570000  0.70870000  1.0 0.5985720541
C  C4  1  0.21630000  0.51080000  0.70370000  1.0 -0.1234479603
C  C5  1  0.20670000  0.56700000  0.67550000  1.0 -0.0199263825
C  C6  1  0.20450000  0.45970000  0.60700000  1.0 -0.1472556381
C  C7  1  0.19750000  0.56960000  0.61270000  1.0 -0.160709347
C  C8  1  0.19910000  0.51650000  0.57850000  1.0 0.1719955019
C  C9  1  0.78570000  0.54260000  0.66890000  1.0 -0.0061867148
C  C10  1  0.77720000  0.60410000  0.69790000  1.0 0.5985720541
C  C11  1  0.79420000  0.37430000  0.70870000  1.0 0.5985720541
C  C12  1  0.78370000  0.48920000  0.70370000  1.0 -0.1234479603
C  C13  1  0.79330000  0.43300000  0.67550000  1.0 -0.0199263825
C  C14  1  0.79550000  0.54030000  0.60700000  1.0 -0.1472556381
C  C15  1  0.80250000  0.43040000  0.61270000  1.0 -0.160709347
C  C16  1  0.80090000  0.48350000  0.57850000  1.0 0.1719955019
C  C17  1  0.78570000  0.45740000  0.33110000  1.0 -0.0061867148
C  C18  1  0.77720000  0.39590000  0.30210000  1.0 0.5985720541
C  C19  1  0.79420000  0.62570000  0.29130000  1.0 0.5985720541
C  C20  1  0.78370000  0.51080000  0.29630000  1.0 -0.1234479603
C  C21  1  0.79330000  0.56700000  0.32450000  1.0 -0.0199263825
C  C22  1  0.79550000  0.45970000  0.39300000  1.0 -0.1472556381
C  C23  1  0.80250000  0.56960000  0.38730000  1.0 -0.160709347
C  C24  1  0.80090000  0.51650000  0.42150000  1.0 0.1719955019
C  C25  1  0.21430000  0.54260000  0.33110000  1.0 -0.0061867148
C  C26  1  0.22280000  0.60410000  0.30210000  1.0 0.5985720541
C  C27  1  0.20580000  0.37430000  0.29130000  1.0 0.5985720541
C  C28  1  0.21630000  0.48920000  0.29630000  1.0 -0.1234479603
C  C29  1  0.20670000  0.43300000  0.32450000  1.0 -0.0199263825
C  C30  1  0.20450000  0.54030000  0.39300000  1.0 -0.1472556381
C  C31  1  0.19750000  0.43040000  0.38730000  1.0 -0.160709347
C  C32  1  0.19910000  0.48350000  0.42150000  1.0 0.1719955019
C  C33  1  0.66890000  0.21430000  0.45740000  1.0 -0.0061867148
C  C34  1  0.69790000  0.22280000  0.39590000  1.0 0.5985720541
C  C35  1  0.70870000  0.20580000  0.62570000  1.0 0.5985720541
C  C36  1  0.70370000  0.21630000  0.51080000  1.0 -0.1234479603
C  C37  1  0.67550000  0.20670000  0.56700000  1.0 -0.0199263825
C  C38  1  0.60700000  0.20450000  0.45970000  1.0 -0.1472556381
C  C39  1  0.61270000  0.19750000  0.56960000  1.0 -0.160709347
C  C40  1  0.57850000  0.19910000  0.51650000  1.0 0.1719955019
C  C41  1  0.66890000  0.78570000  0.54260000  1.0 -0.0061867148
C  C42  1  0.69790000  0.77720000  0.60410000  1.0 0.5985720541
C  C43  1  0.70870000  0.79420000  0.37430000  1.0 0.5985720541
C  C44  1  0.70370000  0.78370000  0.48920000  1.0 -0.1234479603
C  C45  1  0.67550000  0.79330000  0.43300000  1.0 -0.0199263825
C  C46  1  0.60700000  0.79550000  0.54030000  1.0 -0.1472556381
C  C47  1  0.61270000  0.80250000  0.43040000  1.0 -0.160709347
C  C48  1  0.57850000  0.80090000  0.48350000  1.0 0.1719955019
C  C49  1  0.33110000  0.78570000  0.45740000  1.0 -0.0061867148
C  C50  1  0.30210000  0.77720000  0.39590000  1.0 0.5985720541
C  C51  1  0.29130000  0.79420000  0.62570000  1.0 0.5985720541
C  C52  1  0.29630000  0.78370000  0.51080000  1.0 -0.1234479603
C  C53  1  0.32450000  0.79330000  0.56700000  1.0 -0.0199263825
C  C54  1  0.39300000  0.79550000  0.45970000  1.0 -0.1472556381
C  C55  1  0.38730000  0.80250000  0.56960000  1.0 -0.160709347
C  C56  1  0.42150000  0.80090000  0.51650000  1.0 0.1719955019
C  C57  1  0.33110000  0.21430000  0.54260000  1.0 -0.0061867148
C  C58  1  0.30210000  0.22280000  0.60410000  1.0 0.5985720541
C  C59  1  0.29130000  0.20580000  0.37430000  1.0 0.5985720541
C  C60  1  0.29630000  0.21630000  0.48920000  1.0 -0.1234479603
C  C61  1  0.32450000  0.20670000  0.43300000  1.0 -0.0199263825
C  C62  1  0.39300000  0.20450000  0.54030000  1.0 -0.1472556381
C  C63  1  0.38730000  0.19750000  0.43040000  1.0 -0.160709347
C  C64  1  0.42150000  0.19910000  0.48350000  1.0 0.1719955019
C  C65  1  0.45740000  0.66890000  0.21430000  1.0 -0.0061867148
C  C66  1  0.39590000  0.69790000  0.22280000  1.0 0.5985720541
C  C67  1  0.62570000  0.70870000  0.20580000  1.0 0.5985720541
C  C68  1  0.51080000  0.70370000  0.21630000  1.0 -0.1234479603
C  C69  1  0.56700000  0.67550000  0.20670000  1.0 -0.0199263825
C  C70  1  0.45970000  0.60700000  0.20450000  1.0 -0.1472556381
C  C71  1  0.56960000  0.61270000  0.19750000  1.0 -0.160709347
C  C72  1  0.51650000  0.57850000  0.19910000  1.0 0.1719955019
C  C73  1  0.54260000  0.66890000  0.78570000  1.0 -0.0061867148
C  C74  1  0.60410000  0.69790000  0.77720000  1.0 0.5985720541
C  C75  1  0.37430000  0.70870000  0.79420000  1.0 0.5985720541
C  C76  1  0.48920000  0.70370000  0.78370000  1.0 -0.1234479603
C  C77  1  0.43300000  0.67550000  0.79330000  1.0 -0.0199263825
C  C78  1  0.54030000  0.60700000  0.79550000  1.0 -0.1472556381
C  C79  1  0.43040000  0.61270000  0.80250000  1.0 -0.160709347
C  C80  1  0.48350000  0.57850000  0.80090000  1.0 0.1719955019
C  C81  1  0.45740000  0.33110000  0.78570000  1.0 -0.0061867148
C  C82  1  0.39590000  0.30210000  0.77720000  1.0 0.5985720541
C  C83  1  0.62570000  0.29130000  0.79420000  1.0 0.5985720541
C  C84  1  0.51080000  0.29630000  0.78370000  1.0 -0.1234479603
C  C85  1  0.56700000  0.32450000  0.79330000  1.0 -0.0199263825
C  C86  1  0.45970000  0.39300000  0.79550000  1.0 -0.1472556381
C  C87  1  0.56960000  0.38730000  0.80250000  1.0 -0.160709347
C  C88  1  0.51650000  0.42150000  0.80090000  1.0 0.1719955019
C  C89  1  0.54260000  0.33110000  0.21430000  1.0 -0.0061867148
C  C90  1  0.60410000  0.30210000  0.22280000  1.0 0.5985720541
C  C91  1  0.37430000  0.29130000  0.20580000  1.0 0.5985720541
C  C92  1  0.48920000  0.29630000  0.21630000  1.0 -0.1234479603
C  C93  1  0.43300000  0.32450000  0.20670000  1.0 -0.0199263825
C  C94  1  0.54030000  0.39300000  0.20450000  1.0 -0.1472556381
C  C95  1  0.43040000  0.38730000  0.19750000  1.0 -0.160709347
C  C96  1  0.48350000  0.42150000  0.19910000  1.0 0.1719955019
C  C97  1  0.95740000  0.71430000  0.16890000  1.0 -0.0061867148
C  C98  1  0.89590000  0.72280000  0.19790000  1.0 0.5985720541
C  C99  1  0.12570000  0.70580000  0.20870000  1.0 0.5985720541
C  C100  1  0.01080000  0.71630000  0.20370000  1.0 -0.1234479603
C  C101  1  0.06700000  0.70670000  0.17550000  1.0 -0.0199263825
C  C102  1  0.95970000  0.70450000  0.10700000  1.0 -0.1472556381
C  C103  1  0.06960000  0.69750000  0.11270000  1.0 -0.160709347
C  C104  1  0.01650000  0.69910000  0.07850000  1.0 0.1719955019
C  C105  1  0.04260000  0.28570000  0.16890000  1.0 -0.0061867148
C  C106  1  0.10410000  0.27720000  0.19790000  1.0 0.5985720541
C  C107  1  0.87430000  0.29420000  0.20870000  1.0 0.5985720541
C  C108  1  0.98920000  0.28370000  0.20370000  1.0 -0.1234479603
C  C109  1  0.93300000  0.29330000  0.17550000  1.0 -0.0199263825
C  C110  1  0.04030000  0.29550000  0.10700000  1.0 -0.1472556381
C  C111  1  0.93040000  0.30250000  0.11270000  1.0 -0.160709347
C  C112  1  0.98350000  0.30090000  0.07850000  1.0 0.1719955019
C  C113  1  0.95740000  0.28570000  0.83110000  1.0 -0.0061867148
C  C114  1  0.89590000  0.27720000  0.80210000  1.0 0.5985720541
C  C115  1  0.12570000  0.29420000  0.79130000  1.0 0.5985720541
C  C116  1  0.01080000  0.28370000  0.79630000  1.0 -0.1234479603
C  C117  1  0.06700000  0.29330000  0.82450000  1.0 -0.0199263825
C  C118  1  0.95970000  0.29550000  0.89300000  1.0 -0.1472556381
C  C119  1  0.06960000  0.30250000  0.88730000  1.0 -0.160709347
C  C120  1  0.01650000  0.30090000  0.92150000  1.0 0.1719955019
C  C121  1  0.04260000  0.71430000  0.83110000  1.0 -0.0061867148
C  C122  1  0.10410000  0.72280000  0.80210000  1.0 0.5985720541
C  C123  1  0.87430000  0.70580000  0.79130000  1.0 0.5985720541
C  C124  1  0.98920000  0.71630000  0.79630000  1.0 -0.1234479603
C  C125  1  0.93300000  0.70670000  0.82450000  1.0 -0.0199263825
C  C126  1  0.04030000  0.70450000  0.89300000  1.0 -0.1472556381
C  C127  1  0.93040000  0.69750000  0.88730000  1.0 -0.160709347
C  C128  1  0.98350000  0.69910000  0.92150000  1.0 0.1719955019
C  C129  1  0.71430000  0.16890000  0.95740000  1.0 -0.0061867148
C  C130  1  0.72280000  0.19790000  0.89590000  1.0 0.5985720541
C  C131  1  0.70580000  0.20870000  0.12570000  1.0 0.5985720541
C  C132  1  0.71630000  0.20370000  0.01080000  1.0 -0.1234479603
C  C133  1  0.70670000  0.17550000  0.06700000  1.0 -0.0199263825
C  C134  1  0.70450000  0.10700000  0.95970000  1.0 -0.1472556381
C  C135  1  0.69750000  0.11270000  0.06960000  1.0 -0.160709347
C  C136  1  0.69910000  0.07850000  0.01650000  1.0 0.1719955019
C  C137  1  0.28570000  0.16890000  0.04260000  1.0 -0.0061867148
C  C138  1  0.27720000  0.19790000  0.10410000  1.0 0.5985720541
C  C139  1  0.29420000  0.20870000  0.87430000  1.0 0.5985720541
C  C140  1  0.28370000  0.20370000  0.98920000  1.0 -0.1234479603
C  C141  1  0.29330000  0.17550000  0.93300000  1.0 -0.0199263825
C  C142  1  0.29550000  0.10700000  0.04030000  1.0 -0.1472556381
C  C143  1  0.30250000  0.11270000  0.93040000  1.0 -0.160709347
C  C144  1  0.30090000  0.07850000  0.98350000  1.0 0.1719955019
C  C145  1  0.28570000  0.83110000  0.95740000  1.0 -0.0061867148
C  C146  1  0.27720000  0.80210000  0.89590000  1.0 0.5985720541
C  C147  1  0.29420000  0.79130000  0.12570000  1.0 0.5985720541
C  C148  1  0.28370000  0.79630000  0.01080000  1.0 -0.1234479603
C  C149  1  0.29330000  0.82450000  0.06700000  1.0 -0.0199263825
C  C150  1  0.29550000  0.89300000  0.95970000  1.0 -0.1472556381
C  C151  1  0.30250000  0.88730000  0.06960000  1.0 -0.160709347
C  C152  1  0.30090000  0.92150000  0.01650000  1.0 0.1719955019
C  C153  1  0.71430000  0.83110000  0.04260000  1.0 -0.0061867148
C  C154  1  0.72280000  0.80210000  0.10410000  1.0 0.5985720541
C  C155  1  0.70580000  0.79130000  0.87430000  1.0 0.5985720541
C  C156  1  0.71630000  0.79630000  0.98920000  1.0 -0.1234479603
C  C157  1  0.70670000  0.82450000  0.93300000  1.0 -0.0199263825
C  C158  1  0.70450000  0.89300000  0.04030000  1.0 -0.1472556381
C  C159  1  0.69750000  0.88730000  0.93040000  1.0 -0.160709347
C  C160  1  0.69910000  0.92150000  0.98350000  1.0 0.1719955019
C  C161  1  0.16890000  0.95740000  0.71430000  1.0 -0.0061867148
C  C162  1  0.19790000  0.89590000  0.72280000  1.0 0.5985720541
C  C163  1  0.20870000  0.12570000  0.70580000  1.0 0.5985720541
C  C164  1  0.20370000  0.01080000  0.71630000  1.0 -0.1234479603
C  C165  1  0.17550000  0.06700000  0.70670000  1.0 -0.0199263825
C  C166  1  0.10700000  0.95970000  0.70450000  1.0 -0.1472556381
C  C167  1  0.11270000  0.06960000  0.69750000  1.0 -0.160709347
C  C168  1  0.07850000  0.01650000  0.69910000  1.0 0.1719955019
C  C169  1  0.16890000  0.04260000  0.28570000  1.0 -0.0061867148
C  C170  1  0.19790000  0.10410000  0.27720000  1.0 0.5985720541
C  C171  1  0.20870000  0.87430000  0.29420000  1.0 0.5985720541
C  C172  1  0.20370000  0.98920000  0.28370000  1.0 -0.1234479603
C  C173  1  0.17550000  0.93300000  0.29330000  1.0 -0.0199263825
C  C174  1  0.10700000  0.04030000  0.29550000  1.0 -0.1472556381
C  C175  1  0.11270000  0.93040000  0.30250000  1.0 -0.160709347
C  C176  1  0.07850000  0.98350000  0.30090000  1.0 0.1719955019
C  C177  1  0.83110000  0.95740000  0.28570000  1.0 -0.0061867148
C  C178  1  0.80210000  0.89590000  0.27720000  1.0 0.5985720541
C  C179  1  0.79130000  0.12570000  0.29420000  1.0 0.5985720541
C  C180  1  0.79630000  0.01080000  0.28370000  1.0 -0.1234479603
C  C181  1  0.82450000  0.06700000  0.29330000  1.0 -0.0199263825
C  C182  1  0.89300000  0.95970000  0.29550000  1.0 -0.1472556381
C  C183  1  0.88730000  0.06960000  0.30250000  1.0 -0.160709347
C  C184  1  0.92150000  0.01650000  0.30090000  1.0 0.1719955019
C  C185  1  0.83110000  0.04260000  0.71430000  1.0 -0.0061867148
C  C186  1  0.80210000  0.10410000  0.72280000  1.0 0.5985720541
C  C187  1  0.79130000  0.87430000  0.70580000  1.0 0.5985720541
C  C188  1  0.79630000  0.98920000  0.71630000  1.0 -0.1234479603
C  C189  1  0.82450000  0.93300000  0.70670000  1.0 -0.0199263825
C  C190  1  0.89300000  0.04030000  0.70450000  1.0 -0.1472556381
C  C191  1  0.88730000  0.93040000  0.69750000  1.0 -0.160709347
C  C192  1  0.92150000  0.98350000  0.69910000  1.0 0.1719955019
C  C193  1  0.20970000  0.57850000  0.97250000  0.25 -0.0857912415
C  C194  1  0.26450000  0.57110000  0.88370000  0.25 -0.0199263825
C  C195  1  0.20380000  0.63440000  0.94070000  0.25 -0.0643489765
C  C196  1  0.79030000  0.42150000  0.97250000  0.25 -0.0857912415
C  C197  1  0.73550000  0.42890000  0.88370000  0.25 -0.0199263825
C  C198  1  0.79620000  0.36560000  0.94070000  0.25 -0.0643489765
C  C199  1  0.79030000  0.57850000  0.02750000  0.25 -0.0857912415
C  C200  1  0.73550000  0.57110000  0.11630000  0.25 -0.0199263825
C  C201  1  0.79620000  0.63440000  0.05930000  0.25 -0.0643489765
C  C202  1  0.20970000  0.42150000  0.02750000  0.25 -0.0857912415
C  C203  1  0.26450000  0.42890000  0.11630000  0.25 -0.0199263825
C  C204  1  0.20380000  0.36560000  0.05930000  0.25 -0.0643489765
C  C205  1  0.97250000  0.20970000  0.57850000  0.25 -0.0857912415
C  C206  1  0.88370000  0.26450000  0.57110000  0.25 -0.0199263825
C  C207  1  0.94070000  0.20380000  0.63440000  0.25 -0.0643489765
C  C208  1  0.97250000  0.79030000  0.42150000  0.25 -0.0857912415
C  C209  1  0.88370000  0.73550000  0.42890000  0.25 -0.0199263825
C  C210  1  0.94070000  0.79620000  0.36560000  0.25 -0.0643489765
C  C211  1  0.02750000  0.79030000  0.57850000  0.25 -0.0857912415
C  C212  1  0.11630000  0.73550000  0.57110000  0.25 -0.0199263825
C  C213  1  0.05930000  0.79620000  0.63440000  0.25 -0.0643489765
C  C214  1  0.02750000  0.20970000  0.42150000  0.25 -0.0857912415
C  C215  1  0.11630000  0.26450000  0.42890000  0.25 -0.0199263825
C  C216  1  0.05930000  0.20380000  0.36560000  0.25 -0.0643489765
C  C217  1  0.57850000  0.97250000  0.20970000  0.25 -0.0857912415
C  C218  1  0.57110000  0.88370000  0.26450000  0.25 -0.0199263825
C  C219  1  0.63440000  0.94070000  0.20380000  0.25 -0.0643489765
C  C220  1  0.42150000  0.97250000  0.79030000  0.25 -0.0857912415
C  C221  1  0.42890000  0.88370000  0.73550000  0.25 -0.0199263825
C  C222  1  0.36560000  0.94070000  0.79620000  0.25 -0.0643489765
C  C223  1  0.57850000  0.02750000  0.79030000  0.25 -0.0857912415
C  C224  1  0.57110000  0.11630000  0.73550000  0.25 -0.0199263825
C  C225  1  0.63440000  0.05930000  0.79620000  0.25 -0.0643489765
C  C226  1  0.42150000  0.02750000  0.20970000  0.25 -0.0857912415
C  C227  1  0.42890000  0.11630000  0.26450000  0.25 -0.0199263825
C  C228  1  0.36560000  0.05930000  0.20380000  0.25 -0.0643489765
C  C229  1  0.07850000  0.70970000  0.47250000  0.25 -0.0857912415
C  C230  1  0.07110000  0.76450000  0.38370000  0.25 -0.0199263825
C  C231  1  0.13440000  0.70380000  0.44070000  0.25 -0.0643489765
C  C232  1  0.92150000  0.29030000  0.47250000  0.25 -0.0857912415
C  C233  1  0.92890000  0.23550000  0.38370000  0.25 -0.0199263825
C  C234  1  0.86560000  0.29620000  0.44070000  0.25 -0.0643489765
C  C235  1  0.07850000  0.29030000  0.52750000  0.25 -0.0857912415
C  C236  1  0.07110000  0.23550000  0.61630000  0.25 -0.0199263825
C  C237  1  0.13440000  0.29620000  0.55930000  0.25 -0.0643489765
C  C238  1  0.92150000  0.70970000  0.52750000  0.25 -0.0857912415
C  C239  1  0.92890000  0.76450000  0.61630000  0.25 -0.0199263825
C  C240  1  0.86560000  0.70380000  0.55930000  0.25 -0.0643489765
C  C241  1  0.70970000  0.47250000  0.07850000  0.25 -0.0857912415
C  C242  1  0.76450000  0.38370000  0.07110000  0.25 -0.0199263825
C  C243  1  0.70380000  0.44070000  0.13440000  0.25 -0.0643489765
C  C244  1  0.29030000  0.47250000  0.92150000  0.25 -0.0857912415
C  C245  1  0.23550000  0.38370000  0.92890000  0.25 -0.0199263825
C  C246  1  0.29620000  0.44070000  0.86560000  0.25 -0.0643489765
C  C247  1  0.29030000  0.52750000  0.07850000  0.25 -0.0857912415
C  C248  1  0.23550000  0.61630000  0.07110000  0.25 -0.0199263825
C  C249  1  0.29620000  0.55930000  0.13440000  0.25 -0.0643489765
C  C250  1  0.70970000  0.52750000  0.92150000  0.25 -0.0857912415
C  C251  1  0.76450000  0.61630000  0.92890000  0.25 -0.0199263825
C  C252  1  0.70380000  0.55930000  0.86560000  0.25 -0.0643489765
C  C253  1  0.47250000  0.07850000  0.70970000  0.25 -0.0857912415
C  C254  1  0.38370000  0.07110000  0.76450000  0.25 -0.0199263825
C  C255  1  0.44070000  0.13440000  0.70380000  0.25 -0.0643489765
C  C256  1  0.47250000  0.92150000  0.29030000  0.25 -0.0857912415
C  C257  1  0.38370000  0.92890000  0.23550000  0.25 -0.0199263825
C  C258  1  0.44070000  0.86560000  0.29620000  0.25 -0.0643489765
C  C259  1  0.52750000  0.07850000  0.29030000  0.25 -0.0857912415
C  C260  1  0.61630000  0.07110000  0.23550000  0.25 -0.0199263825
C  C261  1  0.55930000  0.13440000  0.29620000  0.25 -0.0643489765
C  C262  1  0.52750000  0.92150000  0.70970000  0.25 -0.0857912415
C  C263  1  0.61630000  0.92890000  0.76450000  0.25 -0.0199263825
C  C264  1  0.55930000  0.86560000  0.70380000  0.25 -0.0643489765
N  N1  1  0.19480000  0.52460000  0.51470000  1.0 -0.136968573
N  N2  1  0.80520000  0.47540000  0.51470000  1.0 -0.136968573
N  N3  1  0.80520000  0.52460000  0.48530000  1.0 -0.136968573
N  N4  1  0.19480000  0.47540000  0.48530000  1.0 -0.136968573
N  N5  1  0.51470000  0.19480000  0.52460000  1.0 -0.136968573
N  N6  1  0.51470000  0.80520000  0.47540000  1.0 -0.136968573
N  N7  1  0.48530000  0.80520000  0.52460000  1.0 -0.136968573
N  N8  1  0.48530000  0.19480000  0.47540000  1.0 -0.136968573
N  N9  1  0.52460000  0.51470000  0.19480000  1.0 -0.136968573
N  N10  1  0.47540000  0.51470000  0.80520000  1.0 -0.136968573
N  N11  1  0.52460000  0.48530000  0.80520000  1.0 -0.136968573
N  N12  1  0.47540000  0.48530000  0.19480000  1.0 -0.136968573
N  N13  1  0.02460000  0.69480000  0.01470000  1.0 -0.136968573
N  N14  1  0.97540000  0.30520000  0.01470000  1.0 -0.136968573
N  N15  1  0.02460000  0.30520000  0.98530000  1.0 -0.136968573
N  N16  1  0.97540000  0.69480000  0.98530000  1.0 -0.136968573
N  N17  1  0.69480000  0.01470000  0.02460000  1.0 -0.136968573
N  N18  1  0.30520000  0.01470000  0.97540000  1.0 -0.136968573
N  N19  1  0.30520000  0.98530000  0.02460000  1.0 -0.136968573
N  N20  1  0.69480000  0.98530000  0.97540000  1.0 -0.136968573
N  N21  1  0.01470000  0.02460000  0.69480000  1.0 -0.136968573
N  N22  1  0.01470000  0.97540000  0.30520000  1.0 -0.136968573
N  N23  1  0.98530000  0.02460000  0.30520000  1.0 -0.136968573
N  N24  1  0.98530000  0.97540000  0.69480000  1.0 -0.136968573
N  N25  1  0.24720000  0.53930000  0.93730000  0.25 -0.2153504157
N  N26  1  0.75280000  0.46070000  0.93730000  0.25 -0.2153504157
N  N27  1  0.75280000  0.53930000  0.06270000  0.25 -0.2153504157
N  N28  1  0.24720000  0.46070000  0.06270000  0.25 -0.2153504157
N  N29  1  0.93730000  0.24720000  0.53930000  0.25 -0.2153504157
N  N30  1  0.93730000  0.75280000  0.46070000  0.25 -0.2153504157
N  N31  1  0.06270000  0.75280000  0.53930000  0.25 -0.2153504157
N  N32  1  0.06270000  0.24720000  0.46070000  0.25 -0.2153504157
N  N33  1  0.53930000  0.93730000  0.24720000  0.25 -0.2153504157
N  N34  1  0.46070000  0.93730000  0.75280000  0.25 -0.2153504157
N  N35  1  0.53930000  0.06270000  0.75280000  0.25 -0.2153504157
N  N36  1  0.46070000  0.06270000  0.24720000  0.25 -0.2153504157
N  N37  1  0.03930000  0.74720000  0.43730000  0.25 -0.2153504157
N  N38  1  0.96070000  0.25280000  0.43730000  0.25 -0.2153504157
N  N39  1  0.03930000  0.25280000  0.56270000  0.25 -0.2153504157
N  N40  1  0.96070000  0.74720000  0.56270000  0.25 -0.2153504157
N  N41  1  0.74720000  0.43730000  0.03930000  0.25 -0.2153504157
N  N42  1  0.25280000  0.43730000  0.96070000  0.25 -0.2153504157
N  N43  1  0.25280000  0.56270000  0.03930000  0.25 -0.2153504157
N  N44  1  0.74720000  0.56270000  0.96070000  0.25 -0.2153504157
N  N45  1  0.43730000  0.03930000  0.74720000  0.25 -0.2153504157
N  N46  1  0.43730000  0.96070000  0.25280000  0.25 -0.2153504157
N  N47  1  0.56270000  0.03930000  0.25280000  0.25 -0.2153504157
N  N48  1  0.56270000  0.96070000  0.74720000  0.25 -0.2153504157
O  O1  1  0.20360000  0.35119000  0.66560000  1.0 -0.5670055885
O  O2  1  0.18660000  0.67074000  0.68030000  1.0 -0.5468561538
O  O3  1  0.24590000  0.39312000  0.74938000  1.0 -0.5407944807
O  O4  1  0.22570000  0.62578000  0.76300000  1.0 -0.5609392686
O  O5  1  0.23760000  0.62990000  0.88580000  1.0 -0.2431998987
O  O6  1  0.79640000  0.64881000  0.66560000  1.0 -0.5670055885
O  O7  1  0.81340000  0.32926000  0.68030000  1.0 -0.5468561538
O  O8  1  0.75410000  0.60688000  0.74938000  1.0 -0.5407944807
O  O9  1  0.77430000  0.37422000  0.76300000  1.0 -0.5609392686
O  O10  1  0.76240000  0.37010000  0.88580000  1.0 -0.2431998987
O  O11  1  0.79640000  0.35119000  0.33440000  1.0 -0.5670055885
O  O12  1  0.81340000  0.67074000  0.31970000  1.0 -0.5468561538
O  O13  1  0.75410000  0.39312000  0.25062000  1.0 -0.5407944807
O  O14  1  0.77430000  0.62578000  0.23700000  1.0 -0.5609392686
O  O15  1  0.76240000  0.62990000  0.11420000  1.0 -0.2431998987
O  O16  1  0.20360000  0.64881000  0.33440000  1.0 -0.5670055885
O  O17  1  0.18660000  0.32926000  0.31970000  1.0 -0.5468561538
O  O18  1  0.24590000  0.60688000  0.25062000  1.0 -0.5407944807
O  O19  1  0.22570000  0.37422000  0.23700000  1.0 -0.5609392686
O  O20  1  0.23760000  0.37010000  0.11420000  1.0 -0.2431998987
O  O21  1  0.66560000  0.20360000  0.35119000  1.0 -0.5670055885
O  O22  1  0.68030000  0.18660000  0.67074000  1.0 -0.5468561538
O  O23  1  0.74938000  0.24590000  0.39312000  1.0 -0.5407944807
O  O24  1  0.76300000  0.22570000  0.62578000  1.0 -0.5609392686
O  O25  1  0.88580000  0.23760000  0.62990000  1.0 -0.2431998987
O  O26  1  0.66560000  0.79640000  0.64881000  1.0 -0.5670055885
O  O27  1  0.68030000  0.81340000  0.32926000  1.0 -0.5468561538
O  O28  1  0.74938000  0.75410000  0.60688000  1.0 -0.5407944807
O  O29  1  0.76300000  0.77430000  0.37422000  1.0 -0.5609392686
O  O30  1  0.88580000  0.76240000  0.37010000  1.0 -0.2431998987
O  O31  1  0.33440000  0.79640000  0.35119000  1.0 -0.5670055885
O  O32  1  0.31970000  0.81340000  0.67074000  1.0 -0.5468561538
O  O33  1  0.25062000  0.75410000  0.39312000  1.0 -0.5407944807
O  O34  1  0.23700000  0.77430000  0.62578000  1.0 -0.5609392686
O  O35  1  0.11420000  0.76240000  0.62990000  1.0 -0.2431998987
O  O36  1  0.33440000  0.20360000  0.64881000  1.0 -0.5670055885
O  O37  1  0.31970000  0.18660000  0.32926000  1.0 -0.5468561538
O  O38  1  0.25062000  0.24590000  0.60688000  1.0 -0.5407944807
O  O39  1  0.23700000  0.22570000  0.37422000  1.0 -0.5609392686
O  O40  1  0.11420000  0.23760000  0.37010000  1.0 -0.2431998987
O  O41  1  0.35119000  0.66560000  0.20360000  1.0 -0.5670055885
O  O42  1  0.67074000  0.68030000  0.18660000  1.0 -0.5468561538
O  O43  1  0.39312000  0.74938000  0.24590000  1.0 -0.5407944807
O  O44  1  0.62578000  0.76300000  0.22570000  1.0 -0.5609392686
O  O45  1  0.62990000  0.88580000  0.23760000  1.0 -0.2431998987
O  O46  1  0.64881000  0.66560000  0.79640000  1.0 -0.5670055885
O  O47  1  0.32926000  0.68030000  0.81340000  1.0 -0.5468561538
O  O48  1  0.60688000  0.74938000  0.75410000  1.0 -0.5407944807
O  O49  1  0.37422000  0.76300000  0.77430000  1.0 -0.5609392686
O  O50  1  0.37010000  0.88580000  0.76240000  1.0 -0.2431998987
O  O51  1  0.35119000  0.33440000  0.79640000  1.0 -0.5670055885
O  O52  1  0.67074000  0.31970000  0.81340000  1.0 -0.5468561538
O  O53  1  0.39312000  0.25062000  0.75410000  1.0 -0.5407944807
O  O54  1  0.62578000  0.23700000  0.77430000  1.0 -0.5609392686
O  O55  1  0.62990000  0.11420000  0.76240000  1.0 -0.2431998987
O  O56  1  0.64881000  0.33440000  0.20360000  1.0 -0.5670055885
O  O57  1  0.32926000  0.31970000  0.18660000  1.0 -0.5468561538
O  O58  1  0.60688000  0.25062000  0.24590000  1.0 -0.5407944807
O  O59  1  0.37422000  0.23700000  0.22570000  1.0 -0.5609392686
O  O60  1  0.37010000  0.11420000  0.23760000  1.0 -0.2431998987
O  O61  1  0.85119000  0.70360000  0.16560000  1.0 -0.5670055885
O  O62  1  0.17074000  0.68660000  0.18030000  1.0 -0.5468561538
O  O63  1  0.89312000  0.74590000  0.24938000  1.0 -0.5407944807
O  O64  1  0.12578000  0.72570000  0.26300000  1.0 -0.5609392686
O  O65  1  0.12990000  0.73760000  0.38580000  1.0 -0.2431998987
O  O66  1  0.14881000  0.29640000  0.16560000  1.0 -0.5670055885
O  O67  1  0.82926000  0.31340000  0.18030000  1.0 -0.5468561538
O  O68  1  0.10688000  0.25410000  0.24938000  1.0 -0.5407944807
O  O69  1  0.87422000  0.27430000  0.26300000  1.0 -0.5609392686
O  O70  1  0.87010000  0.26240000  0.38580000  1.0 -0.2431998987
O  O71  1  0.85119000  0.29640000  0.83440000  1.0 -0.5670055885
O  O72  1  0.17074000  0.31340000  0.81970000  1.0 -0.5468561538
O  O73  1  0.89312000  0.25410000  0.75062000  1.0 -0.5407944807
O  O74  1  0.12578000  0.27430000  0.73700000  1.0 -0.5609392686
O  O75  1  0.12990000  0.26240000  0.61420000  1.0 -0.2431998987
O  O76  1  0.14881000  0.70360000  0.83440000  1.0 -0.5670055885
O  O77  1  0.82926000  0.68660000  0.81970000  1.0 -0.5468561538
O  O78  1  0.10688000  0.74590000  0.75062000  1.0 -0.5407944807
O  O79  1  0.87422000  0.72570000  0.73700000  1.0 -0.5609392686
O  O80  1  0.87010000  0.73760000  0.61420000  1.0 -0.2431998987
O  O81  1  0.70360000  0.16560000  0.85119000  1.0 -0.5670055885
O  O82  1  0.68660000  0.18030000  0.17074000  1.0 -0.5468561538
O  O83  1  0.74590000  0.24938000  0.89312000  1.0 -0.5407944807
O  O84  1  0.72570000  0.26300000  0.12578000  1.0 -0.5609392686
O  O85  1  0.73760000  0.38580000  0.12990000  1.0 -0.2431998987
O  O86  1  0.29640000  0.16560000  0.14881000  1.0 -0.5670055885
O  O87  1  0.31340000  0.18030000  0.82926000  1.0 -0.5468561538
O  O88  1  0.25410000  0.24938000  0.10688000  1.0 -0.5407944807
O  O89  1  0.27430000  0.26300000  0.87422000  1.0 -0.5609392686
O  O90  1  0.26240000  0.38580000  0.87010000  1.0 -0.2431998987
O  O91  1  0.29640000  0.83440000  0.85119000  1.0 -0.5670055885
O  O92  1  0.31340000  0.81970000  0.17074000  1.0 -0.5468561538
O  O93  1  0.25410000  0.75062000  0.89312000  1.0 -0.5407944807
O  O94  1  0.27430000  0.73700000  0.12578000  1.0 -0.5609392686
O  O95  1  0.26240000  0.61420000  0.12990000  1.0 -0.2431998987
O  O96  1  0.70360000  0.83440000  0.14881000  1.0 -0.5670055885
O  O97  1  0.68660000  0.81970000  0.82926000  1.0 -0.5468561538
O  O98  1  0.74590000  0.75062000  0.10688000  1.0 -0.5407944807
O  O99  1  0.72570000  0.73700000  0.87422000  1.0 -0.5609392686
O  O100  1  0.73760000  0.61420000  0.87010000  1.0 -0.2431998987
O  O101  1  0.16560000  0.85119000  0.70360000  1.0 -0.5670055885
O  O102  1  0.18030000  0.17074000  0.68660000  1.0 -0.5468561538
O  O103  1  0.24938000  0.89312000  0.74590000  1.0 -0.5407944807
O  O104  1  0.26300000  0.12578000  0.72570000  1.0 -0.5609392686
O  O105  1  0.38580000  0.12990000  0.73760000  1.0 -0.2431998987
O  O106  1  0.16560000  0.14881000  0.29640000  1.0 -0.5670055885
O  O107  1  0.18030000  0.82926000  0.31340000  1.0 -0.5468561538
O  O108  1  0.24938000  0.10688000  0.25410000  1.0 -0.5407944807
O  O109  1  0.26300000  0.87422000  0.27430000  1.0 -0.5609392686
O  O110  1  0.38580000  0.87010000  0.26240000  1.0 -0.2431998987
O  O111  1  0.83440000  0.85119000  0.29640000  1.0 -0.5670055885
O  O112  1  0.81970000  0.17074000  0.31340000  1.0 -0.5468561538
O  O113  1  0.75062000  0.89312000  0.25410000  1.0 -0.5407944807
O  O114  1  0.73700000  0.12578000  0.27430000  1.0 -0.5609392686
O  O115  1  0.61420000  0.12990000  0.26240000  1.0 -0.2431998987
O  O116  1  0.83440000  0.14881000  0.70360000  1.0 -0.5670055885
O  O117  1  0.81970000  0.82926000  0.68660000  1.0 -0.5468561538
O  O118  1  0.75062000  0.10688000  0.74590000  1.0 -0.5407944807
O  O119  1  0.73700000  0.87422000  0.72570000  1.0 -0.5609392686
O  O120  1  0.61420000  0.87010000  0.73760000  1.0 -0.2431998987
O  O121  1  0.24078000  0.75922000  0.75922000  1.0 -0.8978518435
O  O122  1  0.75922000  0.24078000  0.75922000  1.0 -0.8978518435
O  O123  1  0.75922000  0.75922000  0.24078000  1.0 -0.8978518435
O  O124  1  0.24078000  0.24078000  0.24078000  1.0 -0.8978518435
O  O125  1  0.25922000  0.74078000  0.25922000  1.0 -0.8978518435
O  O126  1  0.74078000  0.25922000  0.25922000  1.0 -0.8978518435
O  O127  1  0.25922000  0.25922000  0.74078000  1.0 -0.8978518435
O  O128  1  0.74078000  0.74078000  0.74078000  1.0 -0.8978518435
