# DDEC6 charges by PACMAN v1.1 (https://github.com/mtap-research/PACMAN-charge/)
data_2010[Zn][pyr]3[ASR]1
_chemical_formula_sum              "Zn16 H120 C192 N48 O52"
_cell_length_a       27.26
_cell_length_b       27.26
_cell_length_c       27.26
_cell_angle_alpha    90
_cell_angle_beta     90
_cell_angle_gamma    90

_symmetry_space_group_name_H-M    "P 1"
_symmetry_Int_Tables_number       1

loop_
  _symmetry_equiv_pos_as_xyz
  'x, y, z'

loop_
  _atom_site_type_symbol
  _atom_site_label
  _atom_site_symmetry_multiplicity
  _atom_site_fract_x
  _atom_site_fract_y
  _atom_site_fract_z
  _atom_site_occupancy
  _atom_site_charge
Zn  Zn1       1.0  0.05534  0.97440  0.98325  1.0000 0.90738799
Zn  Zn2       1.0  0.98433  0.05749  0.97000  1.0000 0.9014445236
Zn  Zn3       1.0  0.95268  0.95460  0.95088  1.0000 0.9014445236
Zn  Zn4       1.0  0.97157  0.98706  0.05355  1.0000 0.9014445236
Zn  Zn5       1.0  0.47070  0.98318  0.42903  1.0000 0.9014445236
Zn  Zn6       1.0  0.45115  0.95134  0.53180  1.0000 0.9014445236
Zn  Zn7       1.0  0.55392  0.97089  0.49996  1.0000 0.9014445236
Zn  Zn8       1.0  0.48299  0.05411  0.51225  1.0000 0.9014445236
Zn  Zn9       1.0  0.92940  0.47176  0.49608  1.0000 0.90738799
Zn  Zn10      1.0  0.03207  0.45287  0.52854  1.0000 0.9014445236
Zn  Zn11      1.0  0.01295  0.48453  0.42565  1.0000 0.9014445236
Zn  Zn12      1.0  0.99970  0.55553  0.50874  1.0000 0.9014445236
Zn  Zn13      1.0  0.48687  0.42959  0.01138  1.0000 0.9014445236
Zn  Zn14      1.0  0.47421  0.49989  0.92761  1.0000 0.90738799
Zn  Zn15      1.0  0.45441  0.53226  0.03027  1.0000 0.9014445236
Zn  Zn16      1.0  0.55730  0.51314  0.99861  1.0000 0.9014445236
H   H1        1.0  0.25672  0.26601  0.41323  1.0000 0.2818000225
H   H2        1.0  0.15306  0.36798  0.50693  1.0000 0.1124063634
H   H3        1.0  0.22060  0.31532  0.48056  1.0000 0.1124063634
H   H4        1.0  0.11831  0.39885  0.35539  1.0000 0.1124063634
H   H5        1.0  0.18513  0.34503  0.32937  1.0000 0.1124063634
H   H6        1.0  0.40364  0.24162  0.25826  1.0000 0.2818000225
H   H7        1.0  0.43822  0.08231  0.31992  1.0000 0.1124063634
H   H8        1.0  0.41216  0.14966  0.26648  1.0000 0.1124063634
H   H9        1.0  0.42118  0.17656  0.44622  1.0000 0.1124063634
H   H10       1.0  0.39520  0.24358  0.39242  1.0000 0.1124063634
H   H11       1.0  0.27970  0.41952  0.26500  1.0000 0.2818000225
H   H12       1.0  0.37824  0.51056  0.15710  1.0000 0.1124063634
H   H13       1.0  0.32913  0.48434  0.22724  1.0000 0.1124063634
H   H14       1.0  0.34768  0.33333  0.18403  1.0000 0.1124063634
H   H15       1.0  0.39837  0.35917  0.11485  1.0000 0.1124063634
H   H16       1.0  0.22712  0.71482  0.91376  1.0000 0.2818000225
H   H17       1.0  0.33145  0.61418  0.00739  1.0000 0.1124063634
H   H18       1.0  0.26322  0.66556  0.98041  1.0000 0.1124063634
H   H19       1.0  0.37023  0.58672  0.85619  1.0000 0.1124063634
H   H20       1.0  0.30279  0.63944  0.82956  1.0000 0.1124063634
H   H21       1.0  0.06919  0.72732  0.76832  1.0000 0.2818000225
H   H22       1.0  0.97556  0.83163  0.86896  1.0000 0.1124063634
H   H23       1.0  0.00254  0.76341  0.81758  1.0000 0.1124063634
H   H24       1.0  0.12676  0.87042  0.89642  1.0000 0.1124063634
H   H25       1.0  0.15339  0.80298  0.84370  1.0000 0.1124063634
H   H26       1.0  0.21463  0.56938  0.75582  1.0000 0.2818000225
H   H27       1.0  0.11399  0.47575  0.65150  1.0000 0.1124063634
H   H28       1.0  0.16537  0.50273  0.71973  1.0000 0.1124063634
H   H29       1.0  0.13925  0.65358  0.68016  1.0000 0.1124063634
H   H30       1.0  0.08653  0.62695  0.61272  1.0000 0.1124063634
H   H31       1.0  0.71795  0.77989  0.06362  1.0000 0.2818000225
H   H32       1.0  0.82585  0.87844  0.97258  1.0000 0.1124063634
H   H33       1.0  0.75571  0.82933  0.99881  1.0000 0.1124063634
H   H34       1.0  0.86810  0.89856  0.12397  1.0000 0.1124063634
H   H35       1.0  0.79892  0.84788  0.14983  1.0000 0.1124063634
H   H36       1.0  0.56972  0.75690  0.21713  1.0000 0.2818000225
H   H37       1.0  0.47602  0.65325  0.11516  1.0000 0.1124063634
H   H38       1.0  0.50239  0.72079  0.16781  1.0000 0.1124063634
H   H39       1.0  0.62756  0.61850  0.08429  1.0000 0.1124063634
H   H40       1.0  0.65358  0.68532  0.13811  1.0000 0.1124063634
H   H41       1.0  0.72469  0.90383  0.24152  1.0000 0.2818000225
H   H42       1.0  0.53673  0.92137  0.30657  1.0000 0.1124063634
H   H43       1.0  0.59052  0.89539  0.23956  1.0000 0.1124063634
H   H44       1.0  0.71647  0.91235  0.33348  1.0000 0.1124063634
H   H45       1.0  0.66302  0.93841  0.40082  1.0000 0.1158619946
H   H46       1.0  0.74143  0.22488  0.57931  1.0000 0.2818000225
H   H47       1.0  0.58212  0.16321  0.54473  1.0000 0.1124063634
H   H48       1.0  0.64947  0.21666  0.57079  1.0000 0.1124063634
H   H49       1.0  0.67637  0.03692  0.56177  1.0000 0.1124063634
H   H50       1.0  0.74339  0.09072  0.58774  1.0000 0.1124063634
H   H51       1.0  0.91933  0.21814  0.70325  1.0000 0.2818000225
H   H52       1.0  0.01037  0.32605  0.60471  1.0000 0.1124063634
H   H53       1.0  0.98414  0.25590  0.65382  1.0000 0.1124063634
H   H54       1.0  0.85898  0.36829  0.58457  1.0000 0.1124063634
H   H55       1.0  0.83312  0.29911  0.63526  1.0000 0.1124063634
H   H56       1.0  0.76582  0.06991  0.72623  1.0000 0.2818000225
H   H57       1.0  0.86779  0.97621  0.82989  1.0000 0.1124063634
H   H58       1.0  0.81514  0.00258  0.76235  1.0000 0.1124063634
H   H59       1.0  0.84483  0.15377  0.79782  1.0000 0.1124063634
H   H60       1.0  0.89865  0.12775  0.86464  1.0000 0.1124063634
H   H61       1.0  0.73786  0.72076  0.57748  1.0000 0.2818000225
H   H62       1.0  0.80839  0.53485  0.56323  1.0000 0.1124063634
H   H63       1.0  0.74060  0.58709  0.59055  1.0000 0.1124063634
H   H64       1.0  0.89787  0.66358  0.54007  1.0000 0.1158619946
H   H65       1.0  0.82970  0.71547  0.56724  1.0000 0.1124063634
H   H66       1.0  0.56494  0.71734  0.70738  1.0000 0.2818000225
H   H67       1.0  0.47304  0.82502  0.60894  1.0000 0.1124063634
H   H68       1.0  0.49943  0.75499  0.65816  1.0000 0.1124063634
H   H69       1.0  0.62446  0.86615  0.58672  1.0000 0.1124063634
H   H70       1.0  0.65048  0.79698  0.63736  1.0000 0.1124063634
H   H71       1.0  0.72930  0.58328  0.74217  1.0000 0.2818000225
H   H72       1.0  0.66586  0.54970  0.90077  1.0000 0.1124063634
H   H73       1.0  0.71935  0.57650  0.83381  1.0000 0.1124063634
H   H74       1.0  0.59481  0.58441  0.73688  1.0000 0.1124063634
H   H75       1.0  0.54090  0.55782  0.80359  1.0000 0.1124063634
H   H76       1.0  0.74697  0.26112  0.07770  1.0000 0.2818000225
H   H77       1.0  0.67997  0.44828  0.06103  1.0000 0.1124063634
H   H78       1.0  0.74748  0.39513  0.08724  1.0000 0.1124063634
H   H79       1.0  0.58727  0.32100  0.04294  1.0000 0.1158619946
H   H80       1.0  0.65510  0.26823  0.06915  1.0000 0.1124063634
H   H81       1.0  0.90525  0.24716  0.22202  1.0000 0.2818000225
H   H82       1.0  0.92191  0.18016  0.03486  1.0000 0.1124063634
H   H83       1.0  0.89571  0.24767  0.08801  1.0000 0.1124063634
H   H84       1.0  0.94001  0.08746  0.16215  1.0000 0.1124063634
H   H85       1.0  0.91379  0.15529  0.21491  1.0000 0.1124063634
H   H86       1.0  0.76093  0.40544  0.23598  1.0000 0.2818000225
H   H87       1.0  0.82081  0.44019  0.39568  1.0000 0.1158619946
H   H88       1.0  0.76804  0.41398  0.32786  1.0000 0.1124063634
H   H89       1.0  0.89494  0.39591  0.23546  1.0000 0.1124063634
H   H90       1.0  0.94809  0.42211  0.30298  1.0000 0.1124063634
H   H91       1.0  0.24078  0.22949  0.89986  1.0000 0.2818000225
H   H92       1.0  0.17936  0.04109  0.92532  1.0000 0.1124063634
H   H93       1.0  0.24607  0.09500  0.89873  1.0000 0.1124063634
H   H94       1.0  0.08218  0.16605  0.93345  1.0000 0.1158619946
H   H95       1.0  0.14914  0.21955  0.90664  1.0000 0.1124063634
H   H96       1.0  0.40547  0.23805  0.76238  1.0000 0.2818000225
H   H97       1.0  0.41972  0.30858  0.94829  1.0000 0.1124063634
H   H98       1.0  0.39241  0.24079  0.89605  1.0000 0.1124063634
H   H99       1.0  0.44287  0.39806  0.81956  1.0000 0.1158619946
H   H100      1.0  0.41571  0.32989  0.76766  1.0000 0.1124063634
H   H101      1.0  0.27557  0.06513  0.76580  1.0000 0.2818000225
H   H102      1.0  0.37401  0.97323  0.65812  1.0000 0.1124063634
H   H103      1.0  0.32479  0.99962  0.72815  1.0000 0.1124063634
H   H104      1.0  0.34559  0.15067  0.68617  1.0000 0.1124063634
H   H105      1.0  0.39624  0.12465  0.61699  1.0000 0.1124063634
H   H106      1.0  0.21715  0.77577  0.41801  1.0000 0.2818000225
H   H107      1.0  0.32483  0.87420  0.50991  1.0000 0.1124063634
H   H108      1.0  0.25480  0.82498  0.48352  1.0000 0.1124063634
H   H109      1.0  0.36596  0.89643  0.35849  1.0000 0.1124063634
H   H110      1.0  0.29678  0.84579  0.33247  1.0000 0.1124063634
H   H111      1.0  0.08308  0.74097  0.25365  1.0000 0.2818000225
H   H112      1.0  0.05762  0.67955  0.44205  1.0000 0.1124063634
H   H113      1.0  0.08421  0.74626  0.38814  1.0000 0.1124063634
H   H114      1.0  0.04950  0.58238  0.31709  1.0000 0.1124063634
H   H115      1.0  0.07631  0.64934  0.26360  1.0000 0.1124063634
H   H116      1.0  0.22057  0.90565  0.24509  1.0000 0.2818000225
H   H117      1.0  0.16339  0.94307  0.08508  1.0000 0.1158619946
H   H118      1.0  0.21529  0.91591  0.15325  1.0000 0.1124063634
H   H119      1.0  0.08690  0.89259  0.24235  1.0000 0.1124063634
H   H120      1.0  0.03466  0.91991  0.17456  1.0000 0.1124063634
C   C1        1.0  0.13050  0.38806  0.43326  1.0000 -0.0637116602
C   C2        1.0  0.20914  0.32738  0.40316  1.0000 0.2427424424
C   C3        1.0  0.28113  0.30223  0.34877  1.0000 0.5587895198
C   C4        1.0  0.15994  0.36383  0.46803  1.0000 -0.0783878021
C   C5        1.0  0.19860  0.33373  0.45307  1.0000 -0.2019467806
C   C6        1.0  0.14069  0.38129  0.38311  1.0000 -0.0783878021
C   C7        1.0  0.17941  0.35094  0.36818  1.0000 -0.179567091
C   C8        1.0  0.43153  0.12397  0.38741  1.0000 -0.0637116602
C   C9        1.0  0.40056  0.20118  0.32545  1.0000 0.2427424424
C   C10       1.0  0.34999  0.27628  0.30322  1.0000 0.5587895198
C   C11       1.0  0.42846  0.11714  0.33635  1.0000 -0.0783878021
C   C12       1.0  0.41363  0.15554  0.30574  1.0000 -0.2066865523
C   C13       1.0  0.41894  0.17000  0.40710  1.0000 -0.0783878021
C   C14       1.0  0.40356  0.20823  0.37642  1.0000 -0.179567091
C   C15       1.0  0.39261  0.43692  0.13056  1.0000 -0.0637116602
C   C16       1.0  0.37238  0.47169  0.16281  1.0000 -0.0737959511
C   C17       1.0  0.34439  0.45678  0.20302  1.0000 -0.2019467806
C   C18       1.0  0.33602  0.40688  0.21223  1.0000 0.2427424424
C   C19       1.0  0.35543  0.37193  0.17958  1.0000 -0.179567091
C   C20       1.0  0.38390  0.38682  0.13942  1.0000 -0.0783878021
C   C21       1.0  0.30963  0.34995  0.28238  1.0000 0.5587895198
C   C22       1.0  0.35611  0.59591  0.93393  1.0000 -0.0637116602
C   C23       1.0  0.27659  0.65516  0.90307  1.0000 0.2456310772
C   C24       1.0  0.20509  0.68035  0.84762  1.0000 0.5587895198
C   C25       1.0  0.32534  0.61884  0.96841  1.0000 -0.0783878021
C   C26       1.0  0.28624  0.64819  0.95309  1.0000 -0.2019467806
C   C27       1.0  0.34681  0.60327  0.88368  1.0000 -0.0783878021
C   C28       1.0  0.30769  0.63295  0.86837  1.0000 -0.179567091
C   C29       1.0  0.04902  0.85630  0.88723  1.0000 -0.0637116602
C   C30       1.0  0.07988  0.77679  0.82798  1.0000 0.2456310772
C   C31       1.0  0.13533  0.70528  0.80279  1.0000 0.5587895198
C   C32       1.0  0.01454  0.82553  0.86430  1.0000 -0.0783878021
C   C33       1.0  0.02986  0.78643  0.83495  1.0000 -0.2019467806
C   C34       1.0  0.09926  0.84700  0.87987  1.0000 -0.0783878021
C   C35       1.0  0.11458  0.80788  0.85019  1.0000 -0.179567091
C   C36       1.0  0.09572  0.54921  0.62684  1.0000 -0.0637116602
C   C37       1.0  0.11865  0.51473  0.65761  1.0000 -0.0783878021
C   C38       1.0  0.14800  0.53005  0.69670  1.0000 -0.2019467806
C   C39       1.0  0.15497  0.58007  0.70635  1.0000 0.2456310772
C   C40       1.0  0.13276  0.61477  0.67526  1.0000 -0.179567091
C   C41       1.0  0.10308  0.59946  0.63614  1.0000 -0.0783878021
C   C42       1.0  0.18016  0.63552  0.77786  1.0000 0.5587895198
C   C43       1.0  0.85238  0.89280  0.04622  1.0000 -0.0637116602
C   C44       1.0  0.77071  0.83621  0.07626  1.0000 0.2427424424
C   C45       1.0  0.70057  0.80982  0.13319  1.0000 0.5587895198
C   C46       1.0  0.82013  0.87257  0.01145  1.0000 -0.0783878021
C   C47       1.0  0.77992  0.84458  0.02636  1.0000 -0.2019467806
C   C48       1.0  0.84352  0.88409  0.09632  1.0000 -0.0783878021
C   C49       1.0  0.80337  0.85563  0.11121  1.0000 -0.179567091
C   C50       1.0  0.54969  0.63069  0.09508  1.0000 -0.0637116602
C   C51       1.0  0.57979  0.70933  0.15575  1.0000 0.2427424424
C   C52       1.0  0.63418  0.78132  0.18091  1.0000 0.5587895198
C   C53       1.0  0.51492  0.66013  0.11930  1.0000 -0.0783878021
C   C54       1.0  0.52988  0.69879  0.14941  1.0000 -0.2066865523
C   C55       1.0  0.59984  0.64088  0.10185  1.0000 -0.0783878021
C   C56       1.0  0.61477  0.67960  0.13219  1.0000 -0.179567091
C   C57       1.0  0.59554  0.93172  0.35917  1.0000 -0.0637116602
C   C58       1.0  0.57585  0.91913  0.31314  1.0000 -0.0783878021
C   C59       1.0  0.60652  0.90375  0.27491  1.0000 -0.179567091
C   C60       1.0  0.65750  0.90075  0.28196  1.0000 0.2427424424
C   C61       1.0  0.67721  0.91382  0.32760  1.0000 -0.2066865523
C   C62       1.0  0.64659  0.92865  0.36600  1.0000 -0.0783878021
C   C63       1.0  0.67972  0.85018  0.20686  1.0000 0.5587895198
C   C64       1.0  0.62377  0.09573  0.55142  1.0000 -0.0637116602
C   C65       1.0  0.70099  0.15769  0.58238  1.0000 0.2427424424
C   C66       1.0  0.77608  0.17992  0.63296  1.0000 0.5587895198
C   C67       1.0  0.61695  0.14679  0.55449  1.0000 -0.0783878021
C   C68       1.0  0.65534  0.17740  0.56933  1.0000 -0.2066865523
C   C69       1.0  0.66981  0.07604  0.56401  1.0000 -0.0783878021
C   C70       1.0  0.70803  0.10672  0.57939  1.0000 -0.179567091
C   C71       1.0  0.93673  0.35258  0.59034  1.0000 -0.0637116602
C   C72       1.0  0.90669  0.27090  0.64693  1.0000 0.2427424424
C   C73       1.0  0.84976  0.20076  0.67332  1.0000 0.5587895198
C   C74       1.0  0.97150  0.32033  0.61057  1.0000 -0.0783878021
C   C75       1.0  0.95659  0.28012  0.63856  1.0000 -0.2019467806
C   C76       1.0  0.88663  0.34372  0.59905  1.0000 -0.0783878021
C   C77       1.0  0.87174  0.30356  0.62751  1.0000 -0.179567091
C   C78       1.0  0.88787  0.04988  0.85245  1.0000 -0.0637116602
C   C79       1.0  0.86364  0.01512  0.82301  1.0000 -0.0783878021
C   C80       1.0  0.83354  0.03007  0.78435  1.0000 -0.2019467806
C   C81       1.0  0.82719  0.07998  0.77381  1.0000 0.2427424424
C   C82       1.0  0.85075  0.11496  0.80354  1.0000 -0.179567091
C   C83       1.0  0.88110  0.10003  0.84226  1.0000 -0.0783878021
C   C84       1.0  0.80203  0.13437  0.70182  1.0000 0.5587895198
C   C85       1.0  0.85862  0.59505  0.54962  1.0000 -0.0637116602
C   C86       1.0  0.78055  0.65519  0.58200  1.0000 0.2427424424
C   C87       1.0  0.70597  0.67712  0.63378  1.0000 0.5587895198
C   C88       1.0  0.81374  0.57419  0.56438  1.0000 -0.0783878021
C   C89       1.0  0.77511  0.60397  0.58054  1.0000 -0.179567091
C   C90       1.0  0.86395  0.64631  0.55147  1.0000 -0.0783878021
C   C91       1.0  0.82510  0.67602  0.56696  1.0000 -0.2019467806
C   C92       1.0  0.54667  0.85102  0.59351  1.0000 -0.0637116602
C   C93       1.0  0.57687  0.76944  0.65020  1.0000 0.2456310772
C   C94       1.0  0.63392  0.69938  0.67629  1.0000 0.5587895198
C   C95       1.0  0.51195  0.81907  0.61433  1.0000 -0.0783878021
C   C96       1.0  0.52694  0.77892  0.64240  1.0000 -0.2019467806
C   C97       1.0  0.59681  0.84186  0.60166  1.0000 -0.0783878021
C   C98       1.0  0.61178  0.80173  0.63012  1.0000 -0.179567091
C   C99       1.0  0.59899  0.55189  0.85765  1.0000 -0.0637116602
C   C100      1.0  0.64970  0.55761  0.86535  1.0000 -0.0783878021
C   C101      1.0  0.68036  0.57289  0.82717  1.0000 -0.2019467806
C   C102      1.0  0.66104  0.58373  0.78077  1.0000 0.2427424424
C   C103      1.0  0.61044  0.57792  0.77278  1.0000 -0.179567091
C   C104      1.0  0.57971  0.56216  0.81086  1.0000 -0.0783878021
C   C105      1.0  0.68303  0.63428  0.70541  1.0000 0.5587895198
C   C106      1.0  0.62812  0.38891  0.05012  1.0000 -0.0637116602
C   C107      1.0  0.70587  0.32774  0.08131  1.0000 0.2427424424
C   C108      1.0  0.77995  0.30486  0.13328  1.0000 0.5587895198
C   C109      1.0  0.67385  0.40908  0.06307  1.0000 -0.0783878021
C   C110      1.0  0.71235  0.37879  0.07859  1.0000 -0.179567091
C   C111      1.0  0.62185  0.33778  0.05297  1.0000 -0.0783878021
C   C112      1.0  0.66052  0.30757  0.06790  1.0000 -0.2066865523
C   C113      1.0  0.93283  0.12831  0.09424  1.0000 -0.0637116602
C   C114      1.0  0.90164  0.20606  0.15540  1.0000 0.2427424424
C   C115      1.0  0.84967  0.28015  0.17828  1.0000 0.5587895198
C   C116      1.0  0.91988  0.17404  0.07406  1.0000 -0.0783878021
C   C117      1.0  0.90436  0.21254  0.10435  1.0000 -0.179567091
C   C118      1.0  0.92998  0.12204  0.14536  1.0000 -0.0783878021
C   C119      1.0  0.91505  0.16071  0.17557  1.0000 -0.2066865523
C   C120      1.0  0.88871  0.43302  0.35483  1.0000 -0.0637116602
C   C121      1.0  0.83759  0.43016  0.36110  1.0000 -0.0783878021
C   C122      1.0  0.80738  0.41524  0.32243  1.0000 -0.2019467806
C   C123      1.0  0.82755  0.40183  0.27708  1.0000 0.2427424424
C   C124      1.0  0.87860  0.40455  0.27060  1.0000 -0.179567091
C   C125      1.0  0.90889  0.42007  0.30909  1.0000 -0.0783878021
C   C126      1.0  0.80467  0.34986  0.20299  1.0000 0.5587895198
C   C127      1.0  0.12529  0.09918  0.93125  1.0000 -0.0637116602
C   C128      1.0  0.20218  0.16123  0.89941  1.0000 0.2427424424
C   C129      1.0  0.27754  0.18322  0.84886  1.0000 0.5587895198
C   C130      1.0  0.17208  0.07991  0.92098  1.0000 -0.0783878021
C   C131      1.0  0.21016  0.11063  0.90522  1.0000 -0.179567091
C   C132      1.0  0.11760  0.14989  0.92554  1.0000 -0.0783878021
C   C133      1.0  0.15578  0.18055  0.91025  1.0000 -0.2019467806
C   C134      1.0  0.43333  0.35881  0.88809  1.0000 -0.0637116602
C   C135      1.0  0.40095  0.28074  0.82795  1.0000 0.2427424424
C   C136      1.0  0.34917  0.20616  0.80602  1.0000 0.5587895198
C   C137      1.0  0.41857  0.31393  0.90894  1.0000 -0.0783878021
C   C138      1.0  0.40241  0.27530  0.87917  1.0000 -0.179567091
C   C139      1.0  0.43147  0.36414  0.83682  1.0000 -0.0783878021
C   C140      1.0  0.41599  0.32529  0.80712  1.0000 -0.2019467806
C   C141      1.0  0.38944  0.04685  0.63211  1.0000 -0.0637116602
C   C142      1.0  0.36862  0.01213  0.66407  1.0000 -0.0783878021
C   C143      1.0  0.34055  0.02713  0.70422  1.0000 -0.2019467806
C   C144      1.0  0.33275  0.07706  0.71370  1.0000 0.2427424424
C   C145      1.0  0.35283  0.11197  0.68142  1.0000 -0.179567091
C   C146      1.0  0.38129  0.09700  0.64128  1.0000 -0.0783878021
C   C147      1.0  0.30666  0.13411  0.78376  1.0000 0.5587895198
C   C148      1.0  0.35083  0.88963  0.43628  1.0000 -0.0637116602
C   C149      1.0  0.26924  0.83294  0.40608  1.0000 0.2427424424
C   C150      1.0  0.19919  0.80685  0.34903  1.0000 0.5587895198
C   C151      1.0  0.31888  0.86881  0.47100  1.0000 -0.0783878021
C   C152      1.0  0.27873  0.84074  0.45601  1.0000 -0.2066865523
C   C153      1.0  0.34167  0.88148  0.38614  1.0000 -0.0783878021
C   C154      1.0  0.30153  0.85303  0.37116  1.0000 -0.179567091
C   C155      1.0  0.05170  0.62549  0.38396  1.0000 -0.0637116602
C   C156      1.0  0.08353  0.70237  0.32191  1.0000 0.2427424424
C   C157      1.0  0.13409  0.77773  0.29992  1.0000 0.5587895198
C   C158      1.0  0.06197  0.67228  0.40324  1.0000 -0.0783878021
C   C159      1.0  0.07772  0.71036  0.37252  1.0000 -0.179567091
C   C160      1.0  0.05741  0.61779  0.33325  1.0000 -0.0783878021
C   C161      1.0  0.07270  0.65598  0.30259  1.0000 -0.2019467806
C   C162      1.0  0.09486  0.93352  0.12433  1.0000 -0.0637116602
C   C163      1.0  0.14613  0.93167  0.11899  1.0000 -0.0783878021
C   C164      1.0  0.17583  0.91618  0.15784  1.0000 -0.2019467806
C   C165      1.0  0.15500  0.90114  0.20240  1.0000 0.2427424424
C   C166      1.0  0.10378  0.90260  0.20784  1.0000 -0.179567091
C   C167      1.0  0.07400  0.91876  0.16921  1.0000 -0.0783878021
C   C168      1.0  0.17693  0.84936  0.27697  1.0000 0.5587895198
C   C169      1.0  0.08488  0.06694  0.94848  1.0000 0.5947776903
C   C170      1.0  0.91914  0.03356  0.89394  1.0000 0.5963421368
C   C171      1.0  0.03224  0.89803  0.91797  1.0000 0.5963421368
C   C172      1.0  0.89496  0.92252  0.02989  1.0000 0.5947776903
C   C173      1.0  0.94996  0.08759  0.06240  1.0000 0.5947776903
C   C174      1.0  0.06352  0.95155  0.08363  1.0000 0.5963421368
C   C175      1.0  0.39347  0.91927  0.45269  1.0000 0.5947776903
C   C176      1.0  0.53026  0.89366  0.56387  1.0000 0.5963421368
C   C177      1.0  0.56330  0.94880  0.39959  1.0000 0.5963421368
C   C178      1.0  0.58336  0.06349  0.53434  1.0000 0.5963421368
C   C179      1.0  0.41908  0.03045  0.58947  1.0000 0.5947776903
C   C180      1.0  0.44861  0.08355  0.41965  1.0000 0.5963421368
C   C181      1.0  0.95306  0.39515  0.56062  1.0000 0.5947776903
C   C182      1.0  0.08901  0.41934  0.44958  1.0000 0.5963421368
C   C183      1.0  0.92055  0.45016  0.39555  1.0000 0.5947776903
C   C184      1.0  0.03447  0.58507  0.41620  1.0000 0.5947776903
C   C185      1.0  0.06498  0.53243  0.58511  1.0000 0.5947776903
C   C186      1.0  0.89932  0.56371  0.53159  1.0000 0.5947776903
C   C187      1.0  0.45136  0.39951  0.91943  1.0000 0.5947776903
C   C188      1.0  0.39784  0.56517  0.95071  1.0000 0.5963421368
C   C189      1.0  0.42232  0.45325  0.08799  1.0000 0.5947776903
C   C190      1.0  0.53337  0.58920  0.06380  1.0000 0.5963421368
C   C191      1.0  0.56675  0.53466  0.89806  1.0000 0.5947776903
C   C192      1.0  0.58740  0.42074  0.03298  1.0000 0.5947776903
N   N1        1.0  0.24823  0.29470  0.38923  1.0000 -0.4193251336
N   N2        1.0  0.27777  0.34275  0.32001  1.0000 -0.5013620899
N   N3        1.0  0.38733  0.24061  0.29295  1.0000 -0.4193251336
N   N4        1.0  0.31734  0.26910  0.34020  1.0000 -0.5013620899
N   N5        1.0  0.30511  0.39344  0.25294  1.0000 -0.4193251336
N   N6        1.0  0.34589  0.31669  0.27432  1.0000 -0.5013620899
N   N7        1.0  0.23704  0.68727  0.88898  1.0000 -0.4193251336
N   N8        1.0  0.21132  0.64219  0.81619  1.0000 -0.5013620899
N   N9        1.0  0.09397  0.73724  0.79586  1.0000 -0.4193251336
N   N10       1.0  0.16676  0.71151  0.84095  1.0000 -0.5064980802
N   N11       1.0  0.18708  0.59416  0.74590  1.0000 -0.4193251336
N   N12       1.0  0.14200  0.66695  0.77163  1.0000 -0.5064980802
N   N13       1.0  0.73001  0.80530  0.08970  1.0000 -0.4193251336
N   N14       1.0  0.70863  0.84608  0.16645  1.0000 -0.5013620899
N   N15       1.0  0.59372  0.74842  0.18844  1.0000 -0.4193251336
N   N16       1.0  0.66294  0.77796  0.14039  1.0000 -0.5013620899
N   N17       1.0  0.69000  0.88752  0.24253  1.0000 -0.4193251336
N   N18       1.0  0.64274  0.81753  0.21404  1.0000 -0.5013620899
N   N19       1.0  0.74041  0.19019  0.59562  1.0000 -0.4193251336
N   N20       1.0  0.76891  0.14294  0.66561  1.0000 -0.5064980802
N   N21       1.0  0.89325  0.23020  0.67783  1.0000 -0.4193251336
N   N22       1.0  0.81650  0.20882  0.63706  1.0000 -0.5013620899
N   N23       1.0  0.79451  0.09391  0.73472  1.0000 -0.4193251336
N   N24       1.0  0.84256  0.16313  0.70518  1.0000 -0.5013620899
N   N25       1.0  0.74036  0.68678  0.59508  1.0000 -0.4193251336
N   N26       1.0  0.71480  0.64162  0.66769  1.0000 -0.5013620899
N   N27       1.0  0.59053  0.72889  0.68124  1.0000 -0.4193251336
N   N28       1.0  0.66551  0.70587  0.63829  1.0000 -0.5013620899
N   N29       1.0  0.69376  0.59767  0.74174  1.0000 -0.4193251336
N   N30       1.0  0.64286  0.66347  0.70965  1.0000 -0.5013620899
N   N31       1.0  0.74558  0.29558  0.09447  1.0000 -0.4193251336
N   N32       1.0  0.77322  0.34275  0.16499  1.0000 -0.5013620899
N   N33       1.0  0.88848  0.24577  0.18756  1.0000 -0.4193251336
N   N34       1.0  0.81796  0.27341  0.14039  1.0000 -0.5013620899
N   N35       1.0  0.79539  0.38867  0.23737  1.0000 -0.4193251336
N   N36       1.0  0.84256  0.31815  0.20973  1.0000 -0.5013620899
N   N37       1.0  0.24121  0.19395  0.88547  1.0000 -0.4193251336
N   N38       1.0  0.27330  0.14305  0.81967  1.0000 -0.5013620899
N   N39       1.0  0.38787  0.24055  0.79636  1.0000 -0.4193251336
N   N40       1.0  0.31526  0.21499  0.84152  1.0000 -0.5013620899
N   N41       1.0  0.30171  0.09072  0.75425  1.0000 -0.4147411502
N   N42       1.0  0.34466  0.16570  0.77727  1.0000 -0.5013620899
N   N43       1.0  0.22870  0.80190  0.39242  1.0000 -0.4193251336
N   N44       1.0  0.20568  0.84485  0.31744  1.0000 -0.5013620899
N   N45       1.0  0.09747  0.74140  0.28919  1.0000 -0.4193251336
N   N46       1.0  0.16328  0.77349  0.34009  1.0000 -0.5013620899
N   N47       1.0  0.18659  0.88806  0.24258  1.0000 -0.4193251336
N   N48       1.0  0.14143  0.81545  0.26815  1.0000 -0.5013620899
O   O1        1.0  0.99107  0.99345  0.98948  1.0000 -0.9745544411
O   O2        1.0  0.09404  0.02277  0.96034  1.0000 -0.5253816992
O   O3        1.0  0.94328  0.06483  0.91870  1.0000 -0.5253816992
O   O4        1.0  0.98679  0.90807  0.91959  1.0000 -0.5217279503
O   O5        1.0  0.04163  0.08412  0.95135  1.0000 -0.5217279503
O   O6        1.0  0.06320  0.92314  0.94216  1.0000 -0.5253816992
O   O7        1.0  0.92111  0.98821  0.90427  1.0000 -0.5217279503
O   O8        1.0  0.91975  0.94676  0.06101  1.0000 -0.5217279503
O   O9        1.0  0.96115  0.09629  0.01799  1.0000 -0.5217279503
O   O10       1.0  0.90585  0.92344  0.98463  1.0000 -0.5217279503
O   O11       1.0  0.95343  0.04459  0.08010  1.0000 -0.5217279503
O   O12       1.0  0.01921  0.96314  0.09227  1.0000 -0.5217279503
O   O13       1.0  0.08151  0.95540  0.04077  1.0000 -0.5217279503
O   O14       1.0  0.48976  0.98995  0.49319  1.0000 -0.9745544411
O   O15       1.0  0.41894  0.94275  0.42149  1.0000 -0.5217279503
O   O16       1.0  0.48488  0.90403  0.56233  1.0000 -0.5217279503
O   O17       1.0  0.58073  0.95258  0.44266  1.0000 -0.5217279503
O   O18       1.0  0.40384  0.92081  0.49807  1.0000 -0.5217279503
O   O19       1.0  0.51889  0.95974  0.39056  1.0000 -0.5217279503
O   O20       1.0  0.56146  0.91913  0.54039  1.0000 -0.5217279503
O   O21       1.0  0.54029  0.08092  0.53056  1.0000 -0.5217279503
O   O22       1.0  0.42062  0.98507  0.57911  1.0000 -0.5217279503
O   O23       1.0  0.59239  0.01908  0.52340  1.0000 -0.5253816992
O   O24       1.0  0.44255  0.06165  0.56401  1.0000 -0.5217279503
O   O25       1.0  0.45955  0.09258  0.46406  1.0000 -0.5217279503
O   O26       1.0  0.45239  0.04048  0.40222  1.0000 -0.5217279503
O   O27       1.0  0.99347  0.49126  0.48969  1.0000 -0.9745544411
O   O28       1.0  0.92194  0.41994  0.53638  1.0000 -0.5217279503
O   O29       1.0  0.07868  0.42130  0.49493  1.0000 -0.5217279503
O   O30       1.0  0.96496  0.46134  0.38685  1.0000 -0.5217279503
O   O31       1.0  0.99832  0.40605  0.55970  1.0000 -0.5217279503
O   O32       1.0  0.90285  0.45362  0.43855  1.0000 -0.5217279503
O   O33       1.0  0.06425  0.44347  0.41831  1.0000 -0.5253816992
O   O34       1.0  0.02261  0.59423  0.46037  1.0000 -0.5217279503
O   O35       1.0  0.06336  0.48698  0.57506  1.0000 -0.5217279503
O   O36       1.0  0.03160  0.54182  0.39902  1.0000 -0.5217279503
O   O37       1.0  0.04079  0.56339  0.56000  1.0000 -0.5253816992
O   O38       1.0  0.94218  0.58170  0.52774  1.0000 -0.5217279503
O   O39       1.0  0.89068  0.51940  0.52000  1.0000 -0.5217279503
O   O40       1.0  0.49326  0.49366  0.99188  1.0000 -0.9745544411
O   O41       1.0  0.46295  0.39087  0.96374  1.0000 -0.5217279503
O   O42       1.0  0.42295  0.54098  0.91975  1.0000 -0.5253816992
O   O43       1.0  0.42325  0.49851  0.07709  1.0000 -0.5217279503
O   O44       1.0  0.45521  0.44237  0.90144  1.0000 -0.5217279503
O   O45       1.0  0.44657  0.42213  0.06319  1.0000 -0.5217279503
O   O46       1.0  0.40789  0.56355  0.99616  1.0000 -0.5217279503
O   O47       1.0  0.56464  0.56444  0.03966  1.0000 -0.5253816992
O   O48       1.0  0.52258  0.52280  0.88891  1.0000 -0.5253816992
O   O49       1.0  0.48802  0.57887  0.06184  1.0000 -0.5217279503
O   O50       1.0  0.58393  0.53179  0.94132  1.0000 -0.5217279503
O   O51       1.0  0.59610  0.46515  0.02180  1.0000 -0.5217279503
O   O52       1.0  0.54440  0.40304  0.02951  1.0000 -0.5217279503
