# DDEC6 charges by PACMAN v1.1 (https://github.com/mtap-research/PACMAN-charge/)
data_2020[Zn][tfz]3[ASR]1
_chemical_formula_sum              "Zn24 H336 C624 N32 O128"
_cell_length_a       25.2538
_cell_length_b       27.9512
_cell_length_c       32.0897
_cell_angle_alpha    90
_cell_angle_beta     90
_cell_angle_gamma    90

_symmetry_space_group_name_H-M    "P 1"
_symmetry_Int_Tables_number       1

loop_
  _symmetry_equiv_pos_as_xyz
  'x, y, z'

loop_
  _atom_site_type_symbol
  _atom_site_label
  _atom_site_symmetry_multiplicity
  _atom_site_fract_x
  _atom_site_fract_y
  _atom_site_fract_z
  _atom_site_occupancy
  _atom_site_charge
Zn  Zn1       1.0  0.75690  0.28925  0.63043  1.0000 0.8156884426
Zn  Zn2       1.0  0.75690  0.71075  0.36957  1.0000 0.8156884426
Zn  Zn3       1.0  0.75690  0.21075  0.13043  1.0000 0.8156884426
Zn  Zn4       1.0  0.75690  0.78925  0.86957  1.0000 0.8156884426
Zn  Zn5       1.0  0.99437  0.21837  0.62606  1.0000 0.8111870998
Zn  Zn6       1.0  0.99437  0.78163  0.37394  1.0000 0.8111870998
Zn  Zn7       1.0  0.99437  0.28163  0.12606  1.0000 0.8111870998
Zn  Zn8       1.0  0.99437  0.71837  0.87394  1.0000 0.8111870998
Zn  Zn9       1.0  0.87649  0.25237  0.63777  1.0000 1.0006739462
Zn  Zn10      1.0  0.87649  0.74763  0.36223  1.0000 1.0006739462
Zn  Zn11      1.0  0.87649  0.24763  0.13777  1.0000 1.0006739462
Zn  Zn12      1.0  0.87649  0.75237  0.86223  1.0000 1.0006739462
Zn  Zn13      1.0  0.24310  0.28925  0.36957  1.0000 0.8156884426
Zn  Zn14      1.0  0.24310  0.71075  0.63043  1.0000 0.8156884426
Zn  Zn15      1.0  0.24310  0.21075  0.86957  1.0000 0.8156884426
Zn  Zn16      1.0  0.24310  0.78925  0.13043  1.0000 0.8156884426
Zn  Zn17      1.0  0.00563  0.21837  0.37394  1.0000 0.8111870998
Zn  Zn18      1.0  0.00563  0.78163  0.62606  1.0000 0.8111870998
Zn  Zn19      1.0  0.00563  0.28163  0.87394  1.0000 0.8111870998
Zn  Zn20      1.0  0.00563  0.71837  0.12606  1.0000 0.8111870998
Zn  Zn21      1.0  0.12351  0.25237  0.36223  1.0000 1.0006739462
Zn  Zn22      1.0  0.12351  0.74763  0.63777  1.0000 1.0006739462
Zn  Zn23      1.0  0.12351  0.24763  0.86223  1.0000 1.0006739462
Zn  Zn24      1.0  0.12351  0.75237  0.13777  1.0000 1.0006739462
H   H1        1.0  0.90190  0.83390  0.75270  1.0000 0.1279481333
H   H2        1.0  0.90190  0.16610  0.24730  1.0000 0.1279481333
H   H3        1.0  0.90190  0.66610  0.25270  1.0000 0.1279481333
H   H4        1.0  0.90190  0.33390  0.74730  1.0000 0.1279481333
H   H5        1.0  0.74890  0.87190  0.75760  1.0000 0.118480279
H   H6        1.0  0.74890  0.12810  0.24240  1.0000 0.118480279
H   H7        1.0  0.74890  0.62810  0.25760  1.0000 0.118480279
H   H8        1.0  0.74890  0.37190  0.74240  1.0000 0.118480279
H   H9        1.0  0.85470  0.99430  0.54830  1.0000 0.118480279
H   H10       1.0  0.85470  0.00570  0.45170  1.0000 0.118480279
H   H11       1.0  0.85470  0.50570  0.04830  1.0000 0.118480279
H   H12       1.0  0.85470  0.49430  0.95170  1.0000 0.118480279
H   H13       1.0  0.86550  0.87070  0.61200  1.0000 0.118480279
H   H14       1.0  0.86550  0.12930  0.38800  1.0000 0.118480279
H   H15       1.0  0.86550  0.62930  0.11200  1.0000 0.118480279
H   H16       1.0  0.86550  0.37070  0.88800  1.0000 0.118480279
H   H17       1.0  0.82720  0.14980  0.66470  1.0000 0.1279481333
H   H18       1.0  0.82720  0.85020  0.33530  1.0000 0.1279481333
H   H19       1.0  0.82720  0.35020  0.16470  1.0000 0.1279481333
H   H20       1.0  0.82720  0.64980  0.83530  1.0000 0.1279481333
H   H21       1.0  0.78320  0.05240  0.55210  1.0000 0.118480279
H   H22       1.0  0.78320  0.94760  0.44790  1.0000 0.118480279
H   H23       1.0  0.78320  0.44760  0.05210  1.0000 0.118480279
H   H24       1.0  0.78320  0.55240  0.94790  1.0000 0.118480279
H   H25       1.0  0.75800  0.13230  0.55270  1.0000 0.118480279
H   H26       1.0  0.75800  0.86770  0.44730  1.0000 0.118480279
H   H27       1.0  0.75800  0.36770  0.05270  1.0000 0.118480279
H   H28       1.0  0.75800  0.63230  0.94730  1.0000 0.118480279
H   H29       1.0  0.84620  0.80560  0.48330  1.0000 0.1279481333
H   H30       1.0  0.84620  0.19440  0.51670  1.0000 0.1279481333
H   H31       1.0  0.84620  0.69440  0.98330  1.0000 0.1279481333
H   H32       1.0  0.84620  0.30560  0.01670  1.0000 0.1279481333
H   H33       1.0  0.85150  0.06940  0.66490  1.0000 0.1107936378
H   H34       1.0  0.85150  0.93060  0.33510  1.0000 0.118480279
H   H35       1.0  0.85150  0.43060  0.16490  1.0000 0.118480279
H   H36       1.0  0.85150  0.56940  0.83510  1.0000 0.118480279
H   H37       1.0  0.82170  0.84900  0.54140  1.0000 0.1107936378
H   H38       1.0  0.82170  0.15100  0.45860  1.0000 0.1107936378
H   H39       1.0  0.82170  0.65100  0.04140  1.0000 0.1107936378
H   H40       1.0  0.82170  0.34900  0.95860  1.0000 0.1107936378
H   H41       1.0  0.81970  0.99170  0.67080  1.0000 0.118480279
H   H42       1.0  0.81970  0.00830  0.32920  1.0000 0.118480279
H   H43       1.0  0.81970  0.50830  0.17080  1.0000 0.118480279
H   H44       1.0  0.81970  0.49170  0.82920  1.0000 0.118480279
H   H45       1.0  0.08150  0.22710  0.68610  1.0000 0.1107936378
H   H46       1.0  0.08150  0.77290  0.31390  1.0000 0.1107936378
H   H47       1.0  0.08150  0.27290  0.18610  1.0000 0.1107936378
H   H48       1.0  0.08150  0.72710  0.81390  1.0000 0.1107936378
H   H49       1.0  0.17010  0.24950  0.56150  1.0000 0.1474470374
H   H50       1.0  0.17010  0.75050  0.43850  1.0000 0.1474470374
H   H51       1.0  0.17010  0.25050  0.06150  1.0000 0.1474470374
H   H52       1.0  0.17010  0.74950  0.93850  1.0000 0.1474470374
H   H53       1.0  0.96270  0.90170  0.45860  1.0000 0.118480279
H   H54       1.0  0.96270  0.09830  0.54140  1.0000 0.118480279
H   H55       1.0  0.96270  0.59830  0.95860  1.0000 0.118480279
H   H56       1.0  0.96270  0.40170  0.04140  1.0000 0.118480279
H   H57       1.0  0.17260  0.24080  0.68760  1.0000 0.1439669097
H   H58       1.0  0.17260  0.75920  0.31240  1.0000 0.1439669097
H   H59       1.0  0.17260  0.25920  0.18760  1.0000 0.1439669097
H   H60       1.0  0.17260  0.74080  0.81240  1.0000 0.1439669097
H   H61       1.0  0.07930  0.23410  0.56310  1.0000 0.118480279
H   H62       1.0  0.07930  0.76590  0.43690  1.0000 0.118480279
H   H63       1.0  0.07930  0.26590  0.06310  1.0000 0.118480279
H   H64       1.0  0.07930  0.73410  0.93690  1.0000 0.118480279
H   H65       1.0  0.75840  0.91630  0.69720  1.0000 0.1279481333
H   H66       1.0  0.75840  0.08370  0.30280  1.0000 0.1279481333
H   H67       1.0  0.75840  0.58370  0.19720  1.0000 0.1279481333
H   H68       1.0  0.75840  0.41630  0.80280  1.0000 0.1279481333
H   H69       1.0  0.91210  0.87490  0.69130  1.0000 0.118480279
H   H70       1.0  0.91210  0.12510  0.30870  1.0000 0.118480279
H   H71       1.0  0.91210  0.62510  0.19130  1.0000 0.118480279
H   H72       1.0  0.91210  0.37490  0.80870  1.0000 0.118480279
H   H73       1.0  0.93480  0.94760  0.51580  1.0000 0.118480279
H   H74       1.0  0.93480  0.05240  0.48420  1.0000 0.1107936378
H   H75       1.0  0.93480  0.55240  0.01580  1.0000 0.1107936378
H   H76       1.0  0.93480  0.44760  0.98420  1.0000 0.118480279
H   H77       1.0  0.31320  0.37200  0.65030  1.0000 0.1279481333
H   H78       1.0  0.31320  0.62800  0.34970  1.0000 0.1279481333
H   H79       1.0  0.31320  0.12800  0.15030  1.0000 0.1279481333
H   H80       1.0  0.31320  0.87200  0.84970  1.0000 0.1279481333
H   H81       1.0  0.40730  0.38150  0.65230  1.0000 0.1279481333
H   H82       1.0  0.40730  0.61850  0.34770  1.0000 0.1279481333
H   H83       1.0  0.40730  0.11850  0.15230  1.0000 0.1279481333
H   H84       1.0  0.40730  0.88150  0.84770  1.0000 0.1279481333
H   H85       1.0  0.34340  0.15130  0.59980  1.0000 0.1279481333
H   H86       1.0  0.34340  0.84870  0.40020  1.0000 0.1279481333
H   H87       1.0  0.34340  0.34870  0.09980  1.0000 0.1279481333
H   H88       1.0  0.34340  0.65130  0.90020  1.0000 0.1279481333
H   H89       1.0  0.43370  0.15930  0.60590  1.0000 0.1279481333
H   H90       1.0  0.43370  0.84070  0.39410  1.0000 0.1279481333
H   H91       1.0  0.43370  0.34070  0.10590  1.0000 0.1279481333
H   H92       1.0  0.43370  0.65930  0.89410  1.0000 0.1279481333
H   H93       1.0  0.57700  0.28910  0.69330  1.0000 0.1474470374
H   H94       1.0  0.57700  0.71090  0.30670  1.0000 0.1474470374
H   H95       1.0  0.57700  0.21090  0.19330  1.0000 0.1474470374
H   H96       1.0  0.57700  0.78910  0.80670  1.0000 0.1474470374
H   H97       1.0  0.57700  0.28320  0.56810  1.0000 0.1474470374
H   H98       1.0  0.57700  0.71680  0.43190  1.0000 0.1474470374
H   H99       1.0  0.57700  0.21680  0.06810  1.0000 0.1474470374
H   H100      1.0  0.57700  0.78320  0.93190  1.0000 0.1474470374
H   H101      1.0  0.66910  0.29420  0.69140  1.0000 0.118480279
H   H102      1.0  0.66910  0.70580  0.30860  1.0000 0.118480279
H   H103      1.0  0.66910  0.20580  0.19140  1.0000 0.118480279
H   H104      1.0  0.66910  0.79420  0.80860  1.0000 0.118480279
H   H105      1.0  0.67030  0.28550  0.57100  1.0000 0.1279481333
H   H106      1.0  0.67030  0.71450  0.42900  1.0000 0.1279481333
H   H107      1.0  0.67030  0.21450  0.07100  1.0000 0.1279481333
H   H108      1.0  0.67030  0.78550  0.92900  1.0000 0.1279481333
H   H109      1.0  0.98350  0.37440  0.54580  1.0000 0.1107936378
H   H110      1.0  0.98350  0.62560  0.45420  1.0000 0.1107936378
H   H111      1.0  0.98350  0.12560  0.04580  1.0000 0.1107936378
H   H112      1.0  0.98350  0.87440  0.95420  1.0000 0.1107936378
H   H113      1.0  0.92810  0.35730  0.66290  1.0000 0.118480279
H   H114      1.0  0.92810  0.64270  0.33710  1.0000 0.118480279
H   H115      1.0  0.92810  0.14270  0.16290  1.0000 0.118480279
H   H116      1.0  0.92810  0.85730  0.83710  1.0000 0.118480279
H   H117      1.0  0.96350  0.45580  0.54920  1.0000 0.1107936378
H   H118      1.0  0.96350  0.54420  0.45080  1.0000 0.1107936378
H   H119      1.0  0.96350  0.04420  0.04920  1.0000 0.1107936378
H   H120      1.0  0.96350  0.95580  0.95080  1.0000 0.1107936378
H   H121      1.0  0.90930  0.43860  0.66700  1.0000 0.118480279
H   H122      1.0  0.90930  0.56140  0.33300  1.0000 0.118480279
H   H123      1.0  0.90930  0.06140  0.16700  1.0000 0.118480279
H   H124      1.0  0.90930  0.93860  0.83300  1.0000 0.118480279
H   H125      1.0  0.89730  0.51280  0.54990  1.0000 0.1107936378
H   H126      1.0  0.89730  0.48720  0.45010  1.0000 0.1107936378
H   H127      1.0  0.89730  0.98720  0.04990  1.0000 0.1107936378
H   H128      1.0  0.89730  0.01280  0.95010  1.0000 0.1107936378
H   H129      1.0  0.89050  0.63720  0.61480  1.0000 0.118480279
H   H130      1.0  0.89050  0.36280  0.38520  1.0000 0.118480279
H   H131      1.0  0.89050  0.86280  0.11480  1.0000 0.118480279
H   H132      1.0  0.89050  0.13720  0.88520  1.0000 0.118480279
H   H133      1.0  0.94250  0.51640  0.67130  1.0000 0.1107936378
H   H134      1.0  0.94250  0.48360  0.32870  1.0000 0.1107936378
H   H135      1.0  0.94250  0.98360  0.17130  1.0000 0.1107936378
H   H136      1.0  0.94250  0.01640  0.82870  1.0000 0.1107936378
H   H137      1.0  0.89530  0.70000  0.48270  1.0000 0.1279481333
H   H138      1.0  0.89530  0.30000  0.51730  1.0000 0.1279481333
H   H139      1.0  0.89530  0.80000  0.98270  1.0000 0.1279481333
H   H140      1.0  0.89530  0.20000  0.01730  1.0000 0.1279481333
H   H141      1.0  0.91980  0.66350  0.54510  1.0000 0.118480279
H   H142      1.0  0.91980  0.33650  0.45490  1.0000 0.118480279
H   H143      1.0  0.91980  0.83650  0.04510  1.0000 0.118480279
H   H144      1.0  0.91980  0.16350  0.95490  1.0000 0.118480279
H   H145      1.0  0.79210  0.59190  0.46030  1.0000 0.118480279
H   H146      1.0  0.79210  0.40810  0.53970  1.0000 0.118480279
H   H147      1.0  0.79210  0.90810  0.96030  1.0000 0.118480279
H   H148      1.0  0.79210  0.09190  0.03970  1.0000 0.118480279
H   H149      1.0  0.99210  0.57680  0.70770  1.0000 0.1107936378
H   H150      1.0  0.99210  0.42320  0.29230  1.0000 0.1107936378
H   H151      1.0  0.99210  0.92320  0.20770  1.0000 0.1107936378
H   H152      1.0  0.99210  0.07680  0.79230  1.0000 0.1107936378
H   H153      1.0  0.00310  0.62010  0.76790  1.0000 0.118480279
H   H154      1.0  0.00310  0.37990  0.23210  1.0000 0.118480279
H   H155      1.0  0.00310  0.87990  0.26790  1.0000 0.118480279
H   H156      1.0  0.00310  0.12010  0.73210  1.0000 0.118480279
H   H157      1.0  0.85680  0.64800  0.68270  1.0000 0.118480279
H   H158      1.0  0.85680  0.35200  0.31730  1.0000 0.118480279
H   H159      1.0  0.85680  0.85200  0.18270  1.0000 0.118480279
H   H160      1.0  0.85680  0.14800  0.81730  1.0000 0.118480279
H   H161      1.0  0.82040  0.55250  0.51900  1.0000 0.118480279
H   H162      1.0  0.82040  0.44750  0.48100  1.0000 0.118480279
H   H163      1.0  0.82040  0.94750  0.01900  1.0000 0.118480279
H   H164      1.0  0.82040  0.05250  0.98100  1.0000 0.118480279
H   H165      1.0  0.86410  0.68840  0.74580  1.0000 0.118480279
H   H166      1.0  0.86410  0.31160  0.25420  1.0000 0.118480279
H   H167      1.0  0.86410  0.81160  0.24580  1.0000 0.118480279
H   H168      1.0  0.86410  0.18840  0.75420  1.0000 0.118480279
H   H169      1.0  0.09810  0.83390  0.24730  1.0000 0.1279481333
H   H170      1.0  0.09810  0.16610  0.75270  1.0000 0.1279481333
H   H171      1.0  0.09810  0.66610  0.74730  1.0000 0.1279481333
H   H172      1.0  0.09810  0.33390  0.25270  1.0000 0.1279481333
H   H173      1.0  0.25110  0.87190  0.24240  1.0000 0.118480279
H   H174      1.0  0.25110  0.12810  0.75760  1.0000 0.118480279
H   H175      1.0  0.25110  0.62810  0.74240  1.0000 0.118480279
H   H176      1.0  0.25110  0.37190  0.25760  1.0000 0.118480279
H   H177      1.0  0.14530  0.99430  0.45170  1.0000 0.118480279
H   H178      1.0  0.14530  0.00570  0.54830  1.0000 0.118480279
H   H179      1.0  0.14530  0.50570  0.95170  1.0000 0.118480279
H   H180      1.0  0.14530  0.49430  0.04830  1.0000 0.118480279
H   H181      1.0  0.13450  0.87070  0.38800  1.0000 0.118480279
H   H182      1.0  0.13450  0.12930  0.61200  1.0000 0.118480279
H   H183      1.0  0.13450  0.62930  0.88800  1.0000 0.118480279
H   H184      1.0  0.13450  0.37070  0.11200  1.0000 0.118480279
H   H185      1.0  0.17280  0.14980  0.33530  1.0000 0.1279481333
H   H186      1.0  0.17280  0.85020  0.66470  1.0000 0.1279481333
H   H187      1.0  0.17280  0.35020  0.83530  1.0000 0.1279481333
H   H188      1.0  0.17280  0.64980  0.16470  1.0000 0.1279481333
H   H189      1.0  0.21680  0.05240  0.44790  1.0000 0.118480279
H   H190      1.0  0.21680  0.94760  0.55210  1.0000 0.118480279
H   H191      1.0  0.21680  0.44760  0.94790  1.0000 0.118480279
H   H192      1.0  0.21680  0.55240  0.05210  1.0000 0.118480279
H   H193      1.0  0.24200  0.13230  0.44730  1.0000 0.118480279
H   H194      1.0  0.24200  0.86770  0.55270  1.0000 0.118480279
H   H195      1.0  0.24200  0.36770  0.94730  1.0000 0.118480279
H   H196      1.0  0.24200  0.63230  0.05270  1.0000 0.118480279
H   H197      1.0  0.15380  0.80560  0.51670  1.0000 0.1279481333
H   H198      1.0  0.15380  0.19440  0.48330  1.0000 0.1279481333
H   H199      1.0  0.15380  0.69440  0.01670  1.0000 0.1279481333
H   H200      1.0  0.15380  0.30560  0.98330  1.0000 0.1279481333
H   H201      1.0  0.14850  0.06940  0.33510  1.0000 0.118480279
H   H202      1.0  0.14850  0.93060  0.66490  1.0000 0.118480279
H   H203      1.0  0.14850  0.43060  0.83510  1.0000 0.118480279
H   H204      1.0  0.14850  0.56940  0.16490  1.0000 0.118480279
H   H205      1.0  0.17830  0.84900  0.45860  1.0000 0.1107936378
H   H206      1.0  0.17830  0.15100  0.54140  1.0000 0.1107936378
H   H207      1.0  0.17830  0.65100  0.95860  1.0000 0.1107936378
H   H208      1.0  0.17830  0.34900  0.04140  1.0000 0.1107936378
H   H209      1.0  0.18030  0.99170  0.32920  1.0000 0.118480279
H   H210      1.0  0.18030  0.00830  0.67080  1.0000 0.118480279
H   H211      1.0  0.18030  0.50830  0.82920  1.0000 0.118480279
H   H212      1.0  0.18030  0.49170  0.17080  1.0000 0.118480279
H   H213      1.0  0.91850  0.22710  0.31390  1.0000 0.1107936378
H   H214      1.0  0.91850  0.77290  0.68610  1.0000 0.1107936378
H   H215      1.0  0.91850  0.27290  0.81390  1.0000 0.1107936378
H   H216      1.0  0.91850  0.72710  0.18610  1.0000 0.1107936378
H   H217      1.0  0.82990  0.24950  0.43850  1.0000 0.1474470374
H   H218      1.0  0.82990  0.75050  0.56150  1.0000 0.1474470374
H   H219      1.0  0.82990  0.25050  0.93850  1.0000 0.1474470374
H   H220      1.0  0.82990  0.74950  0.06150  1.0000 0.1474470374
H   H221      1.0  0.03730  0.90170  0.54140  1.0000 0.118480279
H   H222      1.0  0.03730  0.09830  0.45860  1.0000 0.118480279
H   H223      1.0  0.03730  0.59830  0.04140  1.0000 0.118480279
H   H224      1.0  0.03730  0.40170  0.95860  1.0000 0.118480279
H   H225      1.0  0.82740  0.24080  0.31240  1.0000 0.1439669097
H   H226      1.0  0.82740  0.75920  0.68760  1.0000 0.1439669097
H   H227      1.0  0.82740  0.25920  0.81240  1.0000 0.1439669097
H   H228      1.0  0.82740  0.74080  0.18760  1.0000 0.1439669097
H   H229      1.0  0.92070  0.23410  0.43690  1.0000 0.118480279
H   H230      1.0  0.92070  0.76590  0.56310  1.0000 0.118480279
H   H231      1.0  0.92070  0.26590  0.93690  1.0000 0.118480279
H   H232      1.0  0.92070  0.73410  0.06310  1.0000 0.118480279
H   H233      1.0  0.24160  0.91630  0.30280  1.0000 0.1279481333
H   H234      1.0  0.24160  0.08370  0.69720  1.0000 0.1279481333
H   H235      1.0  0.24160  0.58370  0.80280  1.0000 0.1279481333
H   H236      1.0  0.24160  0.41630  0.19720  1.0000 0.1279481333
H   H237      1.0  0.08790  0.87490  0.30870  1.0000 0.118480279
H   H238      1.0  0.08790  0.12510  0.69130  1.0000 0.118480279
H   H239      1.0  0.08790  0.62510  0.80870  1.0000 0.118480279
H   H240      1.0  0.08790  0.37490  0.19130  1.0000 0.118480279
H   H241      1.0  0.06520  0.94760  0.48420  1.0000 0.118480279
H   H242      1.0  0.06520  0.05240  0.51580  1.0000 0.118480279
H   H243      1.0  0.06520  0.55240  0.98420  1.0000 0.118480279
H   H244      1.0  0.06520  0.44760  0.01580  1.0000 0.1107936378
H   H245      1.0  0.68680  0.37200  0.34970  1.0000 0.1279481333
H   H246      1.0  0.68680  0.62800  0.65030  1.0000 0.1279481333
H   H247      1.0  0.68680  0.12800  0.84970  1.0000 0.1279481333
H   H248      1.0  0.68680  0.87200  0.15030  1.0000 0.1279481333
H   H249      1.0  0.59270  0.38150  0.34770  1.0000 0.1279481333
H   H250      1.0  0.59270  0.61850  0.65230  1.0000 0.1279481333
H   H251      1.0  0.59270  0.11850  0.84770  1.0000 0.1279481333
H   H252      1.0  0.59270  0.88150  0.15230  1.0000 0.1279481333
H   H253      1.0  0.65660  0.15130  0.40020  1.0000 0.1279481333
H   H254      1.0  0.65660  0.84870  0.59980  1.0000 0.1279481333
H   H255      1.0  0.65660  0.34870  0.90020  1.0000 0.1279481333
H   H256      1.0  0.65660  0.65130  0.09980  1.0000 0.1279481333
H   H257      1.0  0.56630  0.15930  0.39410  1.0000 0.1279481333
H   H258      1.0  0.56630  0.84070  0.60590  1.0000 0.1279481333
H   H259      1.0  0.56630  0.34070  0.89410  1.0000 0.1279481333
H   H260      1.0  0.56630  0.65930  0.10590  1.0000 0.1279481333
H   H261      1.0  0.42300  0.28910  0.30670  1.0000 0.1474470374
H   H262      1.0  0.42300  0.71090  0.69330  1.0000 0.1474470374
H   H263      1.0  0.42300  0.21090  0.80670  1.0000 0.1474470374
H   H264      1.0  0.42300  0.78910  0.19330  1.0000 0.1474470374
H   H265      1.0  0.42300  0.28320  0.43190  1.0000 0.1474470374
H   H266      1.0  0.42300  0.71680  0.56810  1.0000 0.1474470374
H   H267      1.0  0.42300  0.21680  0.93190  1.0000 0.1474470374
H   H268      1.0  0.42300  0.78320  0.06810  1.0000 0.1474470374
H   H269      1.0  0.33090  0.29420  0.30860  1.0000 0.118480279
H   H270      1.0  0.33090  0.70580  0.69140  1.0000 0.118480279
H   H271      1.0  0.33090  0.20580  0.80860  1.0000 0.118480279
H   H272      1.0  0.33090  0.79420  0.19140  1.0000 0.118480279
H   H273      1.0  0.32970  0.28550  0.42900  1.0000 0.1279481333
H   H274      1.0  0.32970  0.71450  0.57100  1.0000 0.1279481333
H   H275      1.0  0.32970  0.21450  0.92900  1.0000 0.1279481333
H   H276      1.0  0.32970  0.78550  0.07100  1.0000 0.1279481333
H   H277      1.0  0.01650  0.37440  0.45420  1.0000 0.1107936378
H   H278      1.0  0.01650  0.62560  0.54580  1.0000 0.1107936378
H   H279      1.0  0.01650  0.12560  0.95420  1.0000 0.1107936378
H   H280      1.0  0.01650  0.87440  0.04580  1.0000 0.1107936378
H   H281      1.0  0.07190  0.35730  0.33710  1.0000 0.118480279
H   H282      1.0  0.07190  0.64270  0.66290  1.0000 0.118480279
H   H283      1.0  0.07190  0.14270  0.83710  1.0000 0.118480279
H   H284      1.0  0.07190  0.85730  0.16290  1.0000 0.118480279
H   H285      1.0  0.03650  0.45580  0.45080  1.0000 0.1107936378
H   H286      1.0  0.03650  0.54420  0.54920  1.0000 0.1107936378
H   H287      1.0  0.03650  0.04420  0.95080  1.0000 0.1107936378
H   H288      1.0  0.03650  0.95580  0.04920  1.0000 0.1107936378
H   H289      1.0  0.09070  0.43860  0.33300  1.0000 0.118480279
H   H290      1.0  0.09070  0.56140  0.66700  1.0000 0.118480279
H   H291      1.0  0.09070  0.06140  0.83300  1.0000 0.118480279
H   H292      1.0  0.09070  0.93860  0.16700  1.0000 0.118480279
H   H293      1.0  0.10270  0.51280  0.45010  1.0000 0.1107936378
H   H294      1.0  0.10270  0.48720  0.54990  1.0000 0.1107936378
H   H295      1.0  0.10270  0.98720  0.95010  1.0000 0.1107936378
H   H296      1.0  0.10270  0.01280  0.04990  1.0000 0.1107936378
H   H297      1.0  0.10950  0.63720  0.38520  1.0000 0.118480279
H   H298      1.0  0.10950  0.36280  0.61480  1.0000 0.118480279
H   H299      1.0  0.10950  0.86280  0.88520  1.0000 0.118480279
H   H300      1.0  0.10950  0.13720  0.11480  1.0000 0.118480279
H   H301      1.0  0.05750  0.51640  0.32870  1.0000 0.1107936378
H   H302      1.0  0.05750  0.48360  0.67130  1.0000 0.1107936378
H   H303      1.0  0.05750  0.98360  0.82870  1.0000 0.1107936378
H   H304      1.0  0.05750  0.01640  0.17130  1.0000 0.1107936378
H   H305      1.0  0.10470  0.70000  0.51730  1.0000 0.1279481333
H   H306      1.0  0.10470  0.30000  0.48270  1.0000 0.1279481333
H   H307      1.0  0.10470  0.80000  0.01730  1.0000 0.1279481333
H   H308      1.0  0.10470  0.20000  0.98270  1.0000 0.1279481333
H   H309      1.0  0.08020  0.66350  0.45490  1.0000 0.118480279
H   H310      1.0  0.08020  0.33650  0.54510  1.0000 0.118480279
H   H311      1.0  0.08020  0.83650  0.95490  1.0000 0.118480279
H   H312      1.0  0.08020  0.16350  0.04510  1.0000 0.118480279
H   H313      1.0  0.20790  0.59190  0.53970  1.0000 0.118480279
H   H314      1.0  0.20790  0.40810  0.46030  1.0000 0.118480279
H   H315      1.0  0.20790  0.90810  0.03970  1.0000 0.118480279
H   H316      1.0  0.20790  0.09190  0.96030  1.0000 0.118480279
H   H317      1.0  0.00790  0.57680  0.29230  1.0000 0.1107936378
H   H318      1.0  0.00790  0.42320  0.70770  1.0000 0.1107936378
H   H319      1.0  0.00790  0.92320  0.79230  1.0000 0.1107936378
H   H320      1.0  0.00790  0.07680  0.20770  1.0000 0.1107936378
H   H321      1.0  0.99690  0.62010  0.23210  1.0000 0.118480279
H   H322      1.0  0.99690  0.37990  0.76790  1.0000 0.118480279
H   H323      1.0  0.99690  0.87990  0.73210  1.0000 0.118480279
H   H324      1.0  0.99690  0.12010  0.26790  1.0000 0.118480279
H   H325      1.0  0.14320  0.64800  0.31730  1.0000 0.118480279
H   H326      1.0  0.14320  0.35200  0.68270  1.0000 0.118480279
H   H327      1.0  0.14320  0.85200  0.81730  1.0000 0.118480279
H   H328      1.0  0.14320  0.14800  0.18270  1.0000 0.118480279
H   H329      1.0  0.17960  0.55250  0.48100  1.0000 0.118480279
H   H330      1.0  0.17960  0.44750  0.51900  1.0000 0.118480279
H   H331      1.0  0.17960  0.94750  0.98100  1.0000 0.118480279
H   H332      1.0  0.17960  0.05250  0.01900  1.0000 0.118480279
H   H333      1.0  0.13590  0.68840  0.25420  1.0000 0.118480279
H   H334      1.0  0.13590  0.31160  0.74580  1.0000 0.118480279
H   H335      1.0  0.13590  0.81160  0.75420  1.0000 0.118480279
H   H336      1.0  0.13590  0.18840  0.24580  1.0000 0.118480279
C   C1        1.0  0.81789  0.82101  0.80096  1.0000 0.5897204642
C   C2        1.0  0.81789  0.17899  0.19904  1.0000 0.5897204642
C   C3        1.0  0.81789  0.67899  0.30096  1.0000 0.5897204642
C   C4        1.0  0.81789  0.32101  0.69904  1.0000 0.5897204642
C   C5        1.0  0.82469  0.84925  0.76211  1.0000 -0.045162997
C   C6        1.0  0.82469  0.15075  0.23789  1.0000 -0.045162997
C   C7        1.0  0.82469  0.65075  0.26211  1.0000 -0.045162997
C   C8        1.0  0.82469  0.34925  0.73789  1.0000 -0.045162997
C   C9        1.0  0.87249  0.85056  0.74130  1.0000 -0.1069060323
C   C10       1.0  0.87249  0.14944  0.25870  1.0000 -0.1069060323
C   C11       1.0  0.87249  0.64944  0.24130  1.0000 -0.1069060323
C   C12       1.0  0.87249  0.35056  0.75870  1.0000 -0.1069060323
C   C13       1.0  0.78255  0.87330  0.74441  1.0000 -0.10213463
C   C14       1.0  0.78255  0.12670  0.25559  1.0000 -0.10213463
C   C15       1.0  0.78255  0.62670  0.24441  1.0000 -0.10213463
C   C16       1.0  0.78255  0.37330  0.75559  1.0000 -0.10213463
C   C17       1.0  0.82011  0.05257  0.60802  1.0000 0.0728182258
C   C18       1.0  0.82011  0.94743  0.39198  1.0000 0.0728182258
C   C19       1.0  0.82011  0.44743  0.10802  1.0000 0.0728182258
C   C20       1.0  0.82011  0.55257  0.89198  1.0000 0.0728182258
C   C21       1.0  0.79161  0.14835  0.60861  1.0000 -0.0203758634
C   C22       1.0  0.79161  0.85165  0.39139  1.0000 -0.0203758634
C   C23       1.0  0.79161  0.35165  0.10861  1.0000 -0.0203758634
C   C24       1.0  0.79161  0.64835  0.89139  1.0000 -0.0203758634
C   C25       1.0  0.86179  0.92831  0.57389  1.0000 0.0845296347
C   C26       1.0  0.86179  0.07169  0.42611  1.0000 0.0865952391
C   C27       1.0  0.86179  0.57169  0.07389  1.0000 0.0865952391
C   C28       1.0  0.86179  0.42831  0.92611  1.0000 0.0845296347
C   C29       1.0  0.85096  0.97703  0.57364  1.0000 -0.1997969558
C   C30       1.0  0.85096  0.02297  0.42636  1.0000 -0.1997969558
C   C31       1.0  0.85096  0.52297  0.07364  1.0000 -0.1997969558
C   C32       1.0  0.85096  0.47703  0.92636  1.0000 -0.1997969558
C   C33       1.0  0.90645  0.84940  0.46508  1.0000 -0.0203758634
C   C34       1.0  0.90645  0.15060  0.53492  1.0000 -0.0203758634
C   C35       1.0  0.90645  0.65060  0.96508  1.0000 -0.0203758634
C   C36       1.0  0.90645  0.34940  0.03492  1.0000 -0.0203758634
C   C37       1.0  0.85765  0.90398  0.61126  1.0000 -0.1766466962
C   C38       1.0  0.85765  0.09602  0.38874  1.0000 -0.1766466962
C   C39       1.0  0.85765  0.59602  0.11126  1.0000 -0.1766466962
C   C40       1.0  0.85765  0.40398  0.88874  1.0000 -0.1766466962
C   C41       1.0  0.83498  0.00113  0.60900  1.0000 0.0865952391
C   C42       1.0  0.83498  0.99887  0.39100  1.0000 0.0865952391
C   C43       1.0  0.83498  0.49887  0.10900  1.0000 0.0865952391
C   C44       1.0  0.83498  0.50113  0.89100  1.0000 0.0865952391
C   C45       1.0  0.84234  0.92679  0.64778  1.0000 0.0865952391
C   C46       1.0  0.84234  0.07321  0.35222  1.0000 0.0865952391
C   C47       1.0  0.84234  0.57321  0.14778  1.0000 0.0865952391
C   C48       1.0  0.84234  0.42679  0.85222  1.0000 0.0865952391
C   C49       1.0  0.81842  0.12994  0.64172  1.0000 -0.0803276671
C   C50       1.0  0.81842  0.87006  0.35828  1.0000 -0.0803276671
C   C51       1.0  0.81842  0.37006  0.14172  1.0000 -0.0803276671
C   C52       1.0  0.81842  0.62994  0.85828  1.0000 -0.0803276671
C   C53       1.0  0.18002  0.24546  0.62520  1.0000 0.2293802315
C   C54       1.0  0.18002  0.75454  0.37480  1.0000 0.2293802315
C   C55       1.0  0.18002  0.25454  0.12520  1.0000 0.2293802315
C   C56       1.0  0.18002  0.74546  0.87480  1.0000 0.2293802315
C   C57       1.0  0.79233  0.07199  0.57518  1.0000 -0.1500122761
C   C58       1.0  0.79233  0.92801  0.42482  1.0000 -0.1500122761
C   C59       1.0  0.79233  0.42801  0.07518  1.0000 -0.1500122761
C   C60       1.0  0.79233  0.57199  0.92482  1.0000 -0.1500122761
C   C61       1.0  0.77760  0.11946  0.57529  1.0000 -0.0901255621
C   C62       1.0  0.77760  0.88054  0.42471  1.0000 -0.0901255621
C   C63       1.0  0.77760  0.38054  0.07529  1.0000 -0.0901255621
C   C64       1.0  0.77760  0.61946  0.92471  1.0000 -0.0901255621
C   C65       1.0  0.83654  0.90023  0.68776  1.0000 0.0865952391
C   C66       1.0  0.83654  0.09977  0.31224  1.0000 0.0865952391
C   C67       1.0  0.83654  0.59977  0.18776  1.0000 0.0865952391
C   C68       1.0  0.83654  0.40023  0.81224  1.0000 0.0865952391
C   C69       1.0  0.77518  0.19997  0.60787  1.0000 0.5788110162
C   C70       1.0  0.77518  0.80003  0.39213  1.0000 0.5788110162
C   C71       1.0  0.77518  0.30003  0.10787  1.0000 0.5788110162
C   C72       1.0  0.77518  0.69997  0.89213  1.0000 0.5788110162
C   C73       1.0  0.92402  0.82111  0.42821  1.0000 0.5788110162
C   C74       1.0  0.92402  0.17889  0.57179  1.0000 0.5788110162
C   C75       1.0  0.92402  0.67889  0.92821  1.0000 0.5788110162
C   C76       1.0  0.92402  0.32111  0.07179  1.0000 0.5788110162
C   C77       1.0  0.86476  0.83406  0.49015  1.0000 -0.10213463
C   C78       1.0  0.86476  0.16594  0.50985  1.0000 -0.10213463
C   C79       1.0  0.86476  0.66594  0.99015  1.0000 -0.10213463
C   C80       1.0  0.86476  0.33406  0.00985  1.0000 -0.10213463
C   C81       1.0  0.83284  0.08223  0.64178  1.0000 -0.1500122761
C   C82       1.0  0.83284  0.91777  0.35822  1.0000 -0.1500122761
C   C83       1.0  0.83284  0.41777  0.14178  1.0000 -0.1500122761
C   C84       1.0  0.83284  0.58223  0.85822  1.0000 -0.1500122761
C   C85       1.0  0.85037  0.85985  0.52478  1.0000 -0.1500122761
C   C86       1.0  0.85037  0.14015  0.47522  1.0000 -0.1500122761
C   C87       1.0  0.85037  0.64015  0.02478  1.0000 -0.1500122761
C   C88       1.0  0.85037  0.35985  0.97522  1.0000 -0.1500122761
C   C89       1.0  0.87733  0.90197  0.53602  1.0000 0.0728182258
C   C90       1.0  0.87733  0.09803  0.46398  1.0000 0.0728182258
C   C91       1.0  0.87733  0.59803  0.03602  1.0000 0.0728182258
C   C92       1.0  0.87733  0.40197  0.96398  1.0000 0.0728182258
C   C93       1.0  0.83072  0.97559  0.64614  1.0000 -0.1997969558
C   C94       1.0  0.83072  0.02441  0.35386  1.0000 -0.1997969558
C   C95       1.0  0.83072  0.52441  0.14614  1.0000 -0.1997969558
C   C96       1.0  0.83072  0.47559  0.85386  1.0000 -0.1997969558
C   C97       1.0  0.10003  0.23141  0.66064  1.0000 0.0865952391
C   C98       1.0  0.10003  0.76859  0.33936  1.0000 0.0865952391
C   C99       1.0  0.10003  0.26859  0.16064  1.0000 0.0865952391
C   C100      1.0  0.10003  0.73141  0.83936  1.0000 0.0865952391
C   C101      1.0  0.15237  0.24438  0.58723  1.0000 -0.1997969558
C   C102      1.0  0.15237  0.75562  0.41277  1.0000 -0.1997969558
C   C103      1.0  0.15237  0.25562  0.08723  1.0000 -0.1997969558
C   C104      1.0  0.15237  0.74438  0.91277  1.0000 -0.1997969558
C   C105      1.0  0.25644  0.29778  0.63395  1.0000 0.4318193497
C   C106      1.0  0.25644  0.70222  0.36605  1.0000 0.4318193497
C   C107      1.0  0.25644  0.20222  0.13395  1.0000 0.4318193497
C   C108      1.0  0.25644  0.79778  0.86605  1.0000 0.4318193497
C   C109      1.0  0.93365  0.89135  0.47516  1.0000 -0.10213463
C   C110      1.0  0.93365  0.10865  0.52484  1.0000 -0.10213463
C   C111      1.0  0.93365  0.60865  0.97516  1.0000 -0.10213463
C   C112      1.0  0.93365  0.39135  0.02484  1.0000 -0.10213463
C   C113      1.0  0.15413  0.23948  0.66179  1.0000 -0.1997969558
C   C114      1.0  0.15413  0.76052  0.33821  1.0000 -0.1997969558
C   C115      1.0  0.15413  0.26052  0.16179  1.0000 -0.1997969558
C   C116      1.0  0.15413  0.73948  0.83821  1.0000 -0.1997969558
C   C117      1.0  0.09860  0.23568  0.58843  1.0000 0.1107936378
C   C118      1.0  0.09860  0.76432  0.41157  1.0000 0.1107936378
C   C119      1.0  0.09860  0.26432  0.08843  1.0000 0.1107936378
C   C120      1.0  0.09860  0.73568  0.91157  1.0000 0.1107936378
C   C121      1.0  0.78770  0.89920  0.70824  1.0000 -0.1430662254
C   C122      1.0  0.78770  0.10080  0.29176  1.0000 -0.1430662254
C   C123      1.0  0.78770  0.60080  0.20824  1.0000 -0.1430662254
C   C124      1.0  0.78770  0.39920  0.79176  1.0000 -0.1430662254
C   C125      1.0  0.87877  0.87503  0.70497  1.0000 -0.1500122761
C   C126      1.0  0.87877  0.12497  0.29503  1.0000 -0.1500122761
C   C127      1.0  0.87877  0.62497  0.20497  1.0000 -0.1500122761
C   C128      1.0  0.87877  0.37503  0.79503  1.0000 -0.1500122761
C   C129      1.0  0.26776  0.21162  0.61651  1.0000 0.4318193497
C   C130      1.0  0.26776  0.78838  0.38349  1.0000 0.4318193497
C   C131      1.0  0.26776  0.28838  0.11651  1.0000 0.4318193497
C   C132      1.0  0.26776  0.71162  0.88349  1.0000 0.4318193497
C   C133      1.0  0.91775  0.91808  0.50992  1.0000 -0.1583497541
C   C134      1.0  0.91775  0.08192  0.49008  1.0000 -0.1583497541
C   C135      1.0  0.91775  0.58192  0.00992  1.0000 -0.1583497541
C   C136      1.0  0.91775  0.41808  0.99008  1.0000 -0.1583497541
C   C137      1.0  0.42390  0.31390  0.63780  1.0000 -0.0624409474
C   C138      1.0  0.42390  0.68610  0.36220  1.0000 -0.0624409474
C   C139      1.0  0.42390  0.18610  0.13780  1.0000 -0.0624409474
C   C140      1.0  0.42390  0.81390  0.86220  1.0000 -0.0624409474
C   C141      1.0  0.34666  0.26317  0.62739  1.0000 0.0481276738
C   C142      1.0  0.34666  0.73683  0.37261  1.0000 0.0481276738
C   C143      1.0  0.34666  0.23683  0.12739  1.0000 0.0481276738
C   C144      1.0  0.34666  0.76317  0.87261  1.0000 0.0481276738
C   C145      1.0  0.31435  0.30288  0.63508  1.0000 -0.0715227672
C   C146      1.0  0.31435  0.69712  0.36492  1.0000 -0.0715227672
C   C147      1.0  0.31435  0.19712  0.13508  1.0000 -0.0715227672
C   C148      1.0  0.31435  0.80288  0.86492  1.0000 -0.0715227672
C   C149      1.0  0.40191  0.26850  0.62897  1.0000 0.0372585917
C   C150      1.0  0.40191  0.73150  0.37103  1.0000 0.0372585917
C   C151      1.0  0.40191  0.23150  0.12897  1.0000 0.0372585917
C   C152      1.0  0.40191  0.76850  0.87103  1.0000 0.0372585917
C   C153      1.0  0.43460  0.22940  0.62080  1.0000 -0.0715227672
C   C154      1.0  0.43460  0.77060  0.37920  1.0000 -0.0715227672
C   C155      1.0  0.43460  0.27060  0.12080  1.0000 -0.0715227672
C   C156      1.0  0.43460  0.72940  0.87920  1.0000 -0.0715227672
C   C157      1.0  0.32471  0.21850  0.61807  1.0000 -0.0901255621
C   C158      1.0  0.32471  0.78150  0.38193  1.0000 -0.0901255621
C   C159      1.0  0.32471  0.28150  0.11807  1.0000 -0.0901255621
C   C160      1.0  0.32471  0.71850  0.88193  1.0000 -0.0901255621
C   C161      1.0  0.56917  0.28525  0.63020  1.0000 0.2097410711
C   C162      1.0  0.56917  0.71475  0.36980  1.0000 0.2097410711
C   C163      1.0  0.56917  0.21475  0.13020  1.0000 0.2097410711
C   C164      1.0  0.56917  0.78525  0.86980  1.0000 0.2097410711
C   C165      1.0  0.33560  0.34550  0.64450  1.0000 -0.0803276671
C   C166      1.0  0.33560  0.65450  0.35550  1.0000 -0.0803276671
C   C167      1.0  0.33560  0.15450  0.14450  1.0000 -0.0803276671
C   C168      1.0  0.33560  0.84550  0.85550  1.0000 -0.0803276671
C   C169      1.0  0.48160  0.32000  0.63770  1.0000 0.419724513
C   C170      1.0  0.48160  0.68000  0.36230  1.0000 0.419724513
C   C171      1.0  0.48160  0.18000  0.13770  1.0000 0.419724513
C   C172      1.0  0.48160  0.82000  0.86230  1.0000 0.419724513
C   C173      1.0  0.39230  0.35120  0.64580  1.0000 -0.0715227672
C   C174      1.0  0.39230  0.64880  0.35420  1.0000 -0.0715227672
C   C175      1.0  0.39230  0.14880  0.14580  1.0000 -0.0715227672
C   C176      1.0  0.39230  0.85120  0.85420  1.0000 -0.0715227672
C   C177      1.0  0.35790  0.18110  0.60840  1.0000 -0.0901255621
C   C178      1.0  0.35790  0.81890  0.39160  1.0000 -0.0901255621
C   C179      1.0  0.35790  0.31890  0.10840  1.0000 -0.0901255621
C   C180      1.0  0.35790  0.68110  0.89160  1.0000 -0.0901255621
C   C181      1.0  0.41160  0.18620  0.61100  1.0000 -0.0803276671
C   C182      1.0  0.41160  0.81380  0.38900  1.0000 -0.0803276671
C   C183      1.0  0.41160  0.31380  0.11100  1.0000 -0.0803276671
C   C184      1.0  0.41160  0.68620  0.88900  1.0000 -0.0803276671
C   C185      1.0  0.59550  0.28860  0.66758  1.0000 -0.209134532
C   C186      1.0  0.59550  0.71140  0.33242  1.0000 -0.209134532
C   C187      1.0  0.59550  0.21140  0.16758  1.0000 -0.209134532
C   C188      1.0  0.59550  0.78860  0.83242  1.0000 -0.209134532
C   C189      1.0  0.59510  0.28470  0.59402  1.0000 -0.1997969558
C   C190      1.0  0.59510  0.71530  0.40598  1.0000 -0.1997969558
C   C191      1.0  0.59510  0.21530  0.09402  1.0000 -0.1997969558
C   C192      1.0  0.59510  0.78470  0.90598  1.0000 -0.1997969558
C   C193      1.0  0.65020  0.29120  0.66596  1.0000 0.1107936378
C   C194      1.0  0.65020  0.70880  0.33404  1.0000 0.1107936378
C   C195      1.0  0.65020  0.20880  0.16596  1.0000 0.1107936378
C   C196      1.0  0.65020  0.79120  0.83404  1.0000 0.1107936378
C   C197      1.0  0.65075  0.28660  0.59629  1.0000 0.118480279
C   C198      1.0  0.65075  0.71340  0.40371  1.0000 0.118480279
C   C199      1.0  0.65075  0.21340  0.09629  1.0000 0.118480279
C   C200      1.0  0.65075  0.78660  0.90371  1.0000 0.118480279
C   C201      1.0  0.49250  0.23510  0.62210  1.0000 0.419724513
C   C202      1.0  0.49250  0.76490  0.37790  1.0000 0.419724513
C   C203      1.0  0.49250  0.26490  0.12210  1.0000 0.419724513
C   C204      1.0  0.49250  0.73510  0.87790  1.0000 0.419724513
C   C205      1.0  0.95794  0.35763  0.60483  1.0000 -0.0282900392
C   C206      1.0  0.95794  0.64237  0.39517  1.0000 -0.0282900392
C   C207      1.0  0.95794  0.14237  0.10483  1.0000 -0.0282900392
C   C208      1.0  0.95794  0.85763  0.89517  1.0000 -0.0282900392
C   C209      1.0  0.96838  0.38744  0.57037  1.0000 -0.0901255621
C   C210      1.0  0.96838  0.61256  0.42963  1.0000 -0.0901255621
C   C211      1.0  0.96838  0.11256  0.07037  1.0000 -0.0901255621
C   C212      1.0  0.96838  0.88744  0.92963  1.0000 -0.0901255621
C   C213      1.0  0.97168  0.30591  0.60267  1.0000 0.5692025984
C   C214      1.0  0.97168  0.69409  0.39733  1.0000 0.5692025984
C   C215      1.0  0.97168  0.19409  0.10267  1.0000 0.5692025984
C   C216      1.0  0.97168  0.80591  0.89733  1.0000 0.5692025984
C   C217      1.0  0.93574  0.37736  0.63976  1.0000 -0.0901255621
C   C218      1.0  0.93574  0.62264  0.36024  1.0000 -0.0901255621
C   C219      1.0  0.93574  0.12264  0.13976  1.0000 -0.0901255621
C   C220      1.0  0.93574  0.87736  0.86024  1.0000 -0.0901255621
C   C221      1.0  0.92205  0.50693  0.61106  1.0000 0.0865952391
C   C222      1.0  0.92205  0.49307  0.38894  1.0000 0.0865952391
C   C223      1.0  0.92205  0.99307  0.11106  1.0000 0.0865952391
C   C224      1.0  0.92205  0.00693  0.88894  1.0000 0.0865952391
C   C225      1.0  0.95653  0.43572  0.57236  1.0000 -0.1500122761
C   C226      1.0  0.95653  0.56428  0.42764  1.0000 -0.1500122761
C   C227      1.0  0.95653  0.06428  0.07236  1.0000 -0.1500122761
C   C228      1.0  0.95653  0.93572  0.92764  1.0000 -0.1500122761
C   C229      1.0  0.93434  0.45473  0.60846  1.0000 0.0728182258
C   C230      1.0  0.93434  0.54527  0.39154  1.0000 0.0728182258
C   C231      1.0  0.93434  0.04527  0.10846  1.0000 0.0728182258
C   C232      1.0  0.93434  0.95473  0.89154  1.0000 0.0728182258
C   C233      1.0  0.92412  0.42564  0.64228  1.0000 -0.1500122761
C   C234      1.0  0.92412  0.57436  0.35772  1.0000 -0.1500122761
C   C235      1.0  0.92412  0.07436  0.14228  1.0000 -0.1500122761
C   C236      1.0  0.92412  0.92564  0.85772  1.0000 -0.1500122761
C   C237      1.0  0.90246  0.53036  0.57496  1.0000 -0.209134532
C   C238      1.0  0.90246  0.46964  0.42504  1.0000 -0.209134532
C   C239      1.0  0.90246  0.96964  0.07496  1.0000 -0.209134532
C   C240      1.0  0.90246  0.03036  0.92504  1.0000 -0.209134532
C   C241      1.0  0.89849  0.60405  0.61371  1.0000 -0.1766466962
C   C242      1.0  0.89849  0.39595  0.38629  1.0000 -0.1766466962
C   C243      1.0  0.89849  0.89595  0.11371  1.0000 -0.1766466962
C   C244      1.0  0.89849  0.10405  0.88629  1.0000 -0.1766466962
C   C245      1.0  0.91774  0.58152  0.64958  1.0000 0.0865952391
C   C246      1.0  0.91774  0.41848  0.35042  1.0000 0.0865952391
C   C247      1.0  0.91774  0.91848  0.14958  1.0000 0.0865952391
C   C248      1.0  0.91774  0.08152  0.85042  1.0000 0.0865952391
C   C249      1.0  0.92356  0.60784  0.68850  1.0000 0.0728182258
C   C250      1.0  0.92356  0.39216  0.31150  1.0000 0.0728182258
C   C251      1.0  0.92356  0.89216  0.18850  1.0000 0.0728182258
C   C252      1.0  0.92356  0.10784  0.81150  1.0000 0.0728182258
C   C253      1.0  0.89063  0.57936  0.57627  1.0000 0.0865952391
C   C254      1.0  0.89063  0.42064  0.42373  1.0000 0.0865952391
C   C255      1.0  0.89063  0.92064  0.07627  1.0000 0.0865952391
C   C256      1.0  0.89063  0.07936  0.92373  1.0000 0.0865952391
C   C257      1.0  0.87270  0.60369  0.53772  1.0000 0.0728182258
C   C258      1.0  0.87270  0.39631  0.46228  1.0000 0.0728182258
C   C259      1.0  0.87270  0.89631  0.03772  1.0000 0.0728182258
C   C260      1.0  0.87270  0.10369  0.96228  1.0000 0.0728182258
C   C261      1.0  0.92934  0.53234  0.64733  1.0000 -0.1997969558
C   C262      1.0  0.92934  0.46766  0.35267  1.0000 -0.1997969558
C   C263      1.0  0.92934  0.96766  0.14733  1.0000 -0.1997969558
C   C264      1.0  0.92934  0.03234  0.85267  1.0000 -0.1997969558
C   C265      1.0  0.84036  0.65012  0.46575  1.0000 -0.0282900392
C   C266      1.0  0.84036  0.34988  0.53425  1.0000 -0.0282900392
C   C267      1.0  0.84036  0.84988  0.96575  1.0000 -0.0282900392
C   C268      1.0  0.84036  0.15012  0.03425  1.0000 -0.0282900392
C   C269      1.0  0.87929  0.67065  0.49083  1.0000 -0.0901255621
C   C270      1.0  0.87929  0.32935  0.50917  1.0000 -0.0901255621
C   C271      1.0  0.87929  0.82935  0.99083  1.0000 -0.0901255621
C   C272      1.0  0.87929  0.17065  0.00917  1.0000 -0.0901255621
C   C273      1.0  0.89469  0.64865  0.52720  1.0000 -0.1500122761
C   C274      1.0  0.89469  0.35135  0.47280  1.0000 -0.1500122761
C   C275      1.0  0.89469  0.85135  0.02720  1.0000 -0.1500122761
C   C276      1.0  0.89469  0.14865  0.97280  1.0000 -0.1500122761
C   C277      1.0  0.93490  0.65876  0.76285  1.0000 -0.0282900392
C   C278      1.0  0.93490  0.34124  0.23715  1.0000 -0.0282900392
C   C279      1.0  0.93490  0.84124  0.26285  1.0000 -0.0282900392
C   C280      1.0  0.93490  0.15876  0.73715  1.0000 -0.0282900392
C   C281      1.0  0.81871  0.60593  0.47728  1.0000 -0.10213463
C   C282      1.0  0.81871  0.39407  0.52272  1.0000 -0.10213463
C   C283      1.0  0.81871  0.89407  0.97728  1.0000 -0.10213463
C   C284      1.0  0.81871  0.10593  0.02272  1.0000 -0.10213463
C   C285      1.0  0.96649  0.60024  0.71499  1.0000 -0.1500122761
C   C286      1.0  0.96649  0.39976  0.28501  1.0000 -0.1500122761
C   C287      1.0  0.96649  0.89976  0.21499  1.0000 -0.1500122761
C   C288      1.0  0.96649  0.10024  0.78501  1.0000 -0.1500122761
C   C289      1.0  0.97276  0.62539  0.75091  1.0000 -0.10213463
C   C290      1.0  0.97276  0.37461  0.24909  1.0000 -0.10213463
C   C291      1.0  0.97276  0.87461  0.25091  1.0000 -0.1069060323
C   C292      1.0  0.97276  0.12539  0.74909  1.0000 -0.10213463
C   C293      1.0  0.88612  0.64172  0.70044  1.0000 -0.1430662254
C   C294      1.0  0.88612  0.35828  0.29956  1.0000 -0.1430662254
C   C295      1.0  0.88612  0.85828  0.20044  1.0000 -0.1430662254
C   C296      1.0  0.88612  0.14172  0.79956  1.0000 -0.1430662254
C   C297      1.0  0.83486  0.58286  0.51209  1.0000 -0.1500122761
C   C298      1.0  0.83486  0.41714  0.48791  1.0000 -0.1500122761
C   C299      1.0  0.83486  0.91714  0.01209  1.0000 -0.1500122761
C   C300      1.0  0.83486  0.08286  0.98791  1.0000 -0.1500122761
C   C301      1.0  0.89078  0.66638  0.73755  1.0000 -0.1069060323
C   C302      1.0  0.89078  0.33362  0.26245  1.0000 -0.1069060323
C   C303      1.0  0.89078  0.83362  0.23755  1.0000 -0.1069060323
C   C304      1.0  0.89078  0.16638  0.76245  1.0000 -0.1069060323
C   C305      1.0  0.94053  0.68614  0.80309  1.0000 0.5897204642
C   C306      1.0  0.94053  0.31386  0.19691  1.0000 0.5897204642
C   C307      1.0  0.94053  0.81386  0.30309  1.0000 0.5897204642
C   C308      1.0  0.94053  0.18614  0.69691  1.0000 0.5897204642
C   C309      1.0  0.82356  0.67449  0.42702  1.0000 0.5897204642
C   C310      1.0  0.82356  0.32551  0.57298  1.0000 0.5897204642
C   C311      1.0  0.82356  0.82551  0.92702  1.0000 0.5897204642
C   C312      1.0  0.82356  0.17449  0.07298  1.0000 0.5897204642
C   C313      1.0  0.18211  0.82101  0.19904  1.0000 0.5897204642
C   C314      1.0  0.18211  0.17899  0.80096  1.0000 0.5897204642
C   C315      1.0  0.18211  0.67899  0.69904  1.0000 0.5897204642
C   C316      1.0  0.18211  0.32101  0.30096  1.0000 0.5897204642
C   C317      1.0  0.17531  0.84925  0.23789  1.0000 -0.045162997
C   C318      1.0  0.17531  0.15075  0.76211  1.0000 -0.045162997
C   C319      1.0  0.17531  0.65075  0.73789  1.0000 -0.045162997
C   C320      1.0  0.17531  0.34925  0.26211  1.0000 -0.045162997
C   C321      1.0  0.12751  0.85056  0.25870  1.0000 -0.1069060323
C   C322      1.0  0.12751  0.14944  0.74130  1.0000 -0.1069060323
C   C323      1.0  0.12751  0.64944  0.75870  1.0000 -0.1069060323
C   C324      1.0  0.12751  0.35056  0.24130  1.0000 -0.1069060323
C   C325      1.0  0.21745  0.87330  0.25559  1.0000 -0.10213463
C   C326      1.0  0.21745  0.12670  0.74441  1.0000 -0.10213463
C   C327      1.0  0.21745  0.62670  0.75559  1.0000 -0.10213463
C   C328      1.0  0.21745  0.37330  0.24441  1.0000 -0.10213463
C   C329      1.0  0.17989  0.05257  0.39198  1.0000 0.0728182258
C   C330      1.0  0.17989  0.94743  0.60802  1.0000 0.0728182258
C   C331      1.0  0.17989  0.44743  0.89198  1.0000 0.0728182258
C   C332      1.0  0.17989  0.55257  0.10802  1.0000 0.0728182258
C   C333      1.0  0.20839  0.14835  0.39139  1.0000 -0.0203758634
C   C334      1.0  0.20839  0.85165  0.60861  1.0000 -0.0203758634
C   C335      1.0  0.20839  0.35165  0.89139  1.0000 -0.0203758634
C   C336      1.0  0.20839  0.64835  0.10861  1.0000 -0.0203758634
C   C337      1.0  0.13821  0.92831  0.42611  1.0000 0.0845296347
C   C338      1.0  0.13821  0.07169  0.57389  1.0000 0.0865952391
C   C339      1.0  0.13821  0.57169  0.92611  1.0000 0.0845296347
C   C340      1.0  0.13821  0.42831  0.07389  1.0000 0.0865952391
C   C341      1.0  0.14904  0.97703  0.42636  1.0000 -0.1997969558
C   C342      1.0  0.14904  0.02297  0.57364  1.0000 -0.1997969558
C   C343      1.0  0.14904  0.52297  0.92636  1.0000 -0.1997969558
C   C344      1.0  0.14904  0.47703  0.07364  1.0000 -0.1997969558
C   C345      1.0  0.09355  0.84940  0.53492  1.0000 -0.0203758634
C   C346      1.0  0.09355  0.15060  0.46508  1.0000 -0.0203758634
C   C347      1.0  0.09355  0.65060  0.03492  1.0000 -0.0203758634
C   C348      1.0  0.09355  0.34940  0.96508  1.0000 -0.0203758634
C   C349      1.0  0.14235  0.90398  0.38874  1.0000 -0.1766466962
C   C350      1.0  0.14235  0.09602  0.61126  1.0000 -0.1766466962
C   C351      1.0  0.14235  0.59602  0.88874  1.0000 -0.1766466962
C   C352      1.0  0.14235  0.40398  0.11126  1.0000 -0.1766466962
C   C353      1.0  0.16502  0.00113  0.39100  1.0000 0.0865952391
C   C354      1.0  0.16502  0.99887  0.60900  1.0000 0.0865952391
C   C355      1.0  0.16502  0.49887  0.89100  1.0000 0.0865952391
C   C356      1.0  0.16502  0.50113  0.10900  1.0000 0.0865952391
C   C357      1.0  0.15766  0.92679  0.35222  1.0000 0.0865952391
C   C358      1.0  0.15766  0.07321  0.64778  1.0000 0.0865952391
C   C359      1.0  0.15766  0.57321  0.85222  1.0000 0.0865952391
C   C360      1.0  0.15766  0.42679  0.14778  1.0000 0.0865952391
C   C361      1.0  0.18158  0.12994  0.35828  1.0000 -0.0803276671
C   C362      1.0  0.18158  0.87006  0.64172  1.0000 -0.0803276671
C   C363      1.0  0.18158  0.37006  0.85828  1.0000 -0.0803276671
C   C364      1.0  0.18158  0.62994  0.14172  1.0000 -0.0803276671
C   C365      1.0  0.81998  0.24546  0.37480  1.0000 0.2293802315
C   C366      1.0  0.81998  0.75454  0.62520  1.0000 0.2293802315
C   C367      1.0  0.81998  0.25454  0.87480  1.0000 0.2293802315
C   C368      1.0  0.81998  0.74546  0.12520  1.0000 0.2293802315
C   C369      1.0  0.20767  0.07199  0.42482  1.0000 -0.1500122761
C   C370      1.0  0.20767  0.92801  0.57518  1.0000 -0.1500122761
C   C371      1.0  0.20767  0.42801  0.92482  1.0000 -0.1500122761
C   C372      1.0  0.20767  0.57199  0.07518  1.0000 -0.1500122761
C   C373      1.0  0.22240  0.11946  0.42471  1.0000 -0.0901255621
C   C374      1.0  0.22240  0.88054  0.57529  1.0000 -0.0901255621
C   C375      1.0  0.22240  0.38054  0.92471  1.0000 -0.0901255621
C   C376      1.0  0.22240  0.61946  0.07529  1.0000 -0.0901255621
C   C377      1.0  0.16346  0.90023  0.31224  1.0000 0.0865952391
C   C378      1.0  0.16346  0.09977  0.68776  1.0000 0.0865952391
C   C379      1.0  0.16346  0.59977  0.81224  1.0000 0.0865952391
C   C380      1.0  0.16346  0.40023  0.18776  1.0000 0.0865952391
C   C381      1.0  0.22482  0.19997  0.39213  1.0000 0.5788110162
C   C382      1.0  0.22482  0.80003  0.60787  1.0000 0.5788110162
C   C383      1.0  0.22482  0.30003  0.89213  1.0000 0.5788110162
C   C384      1.0  0.22482  0.69997  0.10787  1.0000 0.5788110162
C   C385      1.0  0.07598  0.82111  0.57179  1.0000 0.5788110162
C   C386      1.0  0.07598  0.17889  0.42821  1.0000 0.5788110162
C   C387      1.0  0.07598  0.67889  0.07179  1.0000 0.5788110162
C   C388      1.0  0.07598  0.32111  0.92821  1.0000 0.5788110162
C   C389      1.0  0.13524  0.83406  0.50985  1.0000 -0.10213463
C   C390      1.0  0.13524  0.16594  0.49015  1.0000 -0.10213463
C   C391      1.0  0.13524  0.66594  0.00985  1.0000 -0.10213463
C   C392      1.0  0.13524  0.33406  0.99015  1.0000 -0.10213463
C   C393      1.0  0.16716  0.08223  0.35822  1.0000 -0.1500122761
C   C394      1.0  0.16716  0.91777  0.64178  1.0000 -0.1500122761
C   C395      1.0  0.16716  0.41777  0.85822  1.0000 -0.1500122761
C   C396      1.0  0.16716  0.58223  0.14178  1.0000 -0.1500122761
C   C397      1.0  0.14963  0.85985  0.47522  1.0000 -0.1500122761
C   C398      1.0  0.14963  0.14015  0.52478  1.0000 -0.1500122761
C   C399      1.0  0.14963  0.64015  0.97522  1.0000 -0.1500122761
C   C400      1.0  0.14963  0.35985  0.02478  1.0000 -0.1500122761
C   C401      1.0  0.12267  0.90197  0.46398  1.0000 0.0728182258
C   C402      1.0  0.12267  0.09803  0.53602  1.0000 0.0728182258
C   C403      1.0  0.12267  0.59803  0.96398  1.0000 0.0728182258
C   C404      1.0  0.12267  0.40197  0.03602  1.0000 0.0728182258
C   C405      1.0  0.16928  0.97559  0.35386  1.0000 -0.1997969558
C   C406      1.0  0.16928  0.02441  0.64614  1.0000 -0.1997969558
C   C407      1.0  0.16928  0.52441  0.85386  1.0000 -0.1997969558
C   C408      1.0  0.16928  0.47559  0.14614  1.0000 -0.1997969558
C   C409      1.0  0.89997  0.23141  0.33936  1.0000 0.0865952391
C   C410      1.0  0.89997  0.76859  0.66064  1.0000 0.0865952391
C   C411      1.0  0.89997  0.26859  0.83936  1.0000 0.0865952391
C   C412      1.0  0.89997  0.73141  0.16064  1.0000 0.0865952391
C   C413      1.0  0.84763  0.24438  0.41277  1.0000 -0.1997969558
C   C414      1.0  0.84763  0.75562  0.58723  1.0000 -0.1997969558
C   C415      1.0  0.84763  0.25562  0.91277  1.0000 -0.1997969558
C   C416      1.0  0.84763  0.74438  0.08723  1.0000 -0.1997969558
C   C417      1.0  0.74356  0.29778  0.36605  1.0000 0.4318193497
C   C418      1.0  0.74356  0.70222  0.63395  1.0000 0.4318193497
C   C419      1.0  0.74356  0.20222  0.86605  1.0000 0.4318193497
C   C420      1.0  0.74356  0.79778  0.13395  1.0000 0.4318193497
C   C421      1.0  0.06635  0.89135  0.52484  1.0000 -0.10213463
C   C422      1.0  0.06635  0.10865  0.47516  1.0000 -0.10213463
C   C423      1.0  0.06635  0.60865  0.02484  1.0000 -0.10213463
C   C424      1.0  0.06635  0.39135  0.97516  1.0000 -0.10213463
C   C425      1.0  0.84587  0.23948  0.33821  1.0000 -0.1997969558
C   C426      1.0  0.84587  0.76052  0.66179  1.0000 -0.1997969558
C   C427      1.0  0.84587  0.26052  0.83821  1.0000 -0.1997969558
C   C428      1.0  0.84587  0.73948  0.16179  1.0000 -0.1997969558
C   C429      1.0  0.90140  0.23568  0.41157  1.0000 0.1107936378
C   C430      1.0  0.90140  0.76432  0.58843  1.0000 0.1107936378
C   C431      1.0  0.90140  0.26432  0.91157  1.0000 0.1107936378
C   C432      1.0  0.90140  0.73568  0.08843  1.0000 0.1107936378
C   C433      1.0  0.21230  0.89920  0.29176  1.0000 -0.1430662254
C   C434      1.0  0.21230  0.10080  0.70824  1.0000 -0.1430662254
C   C435      1.0  0.21230  0.60080  0.79176  1.0000 -0.1430662254
C   C436      1.0  0.21230  0.39920  0.20824  1.0000 -0.1430662254
C   C437      1.0  0.12123  0.87503  0.29503  1.0000 -0.1500122761
C   C438      1.0  0.12123  0.12497  0.70497  1.0000 -0.1500122761
C   C439      1.0  0.12123  0.62497  0.79503  1.0000 -0.1500122761
C   C440      1.0  0.12123  0.37503  0.20497  1.0000 -0.1500122761
C   C441      1.0  0.73224  0.21162  0.38349  1.0000 0.4318193497
C   C442      1.0  0.73224  0.78838  0.61651  1.0000 0.4318193497
C   C443      1.0  0.73224  0.28838  0.88349  1.0000 0.4318193497
C   C444      1.0  0.73224  0.71162  0.11651  1.0000 0.4318193497
C   C445      1.0  0.08225  0.91808  0.49008  1.0000 -0.1583497541
C   C446      1.0  0.08225  0.08192  0.50992  1.0000 -0.1583497541
C   C447      1.0  0.08225  0.58192  0.99008  1.0000 -0.1583497541
C   C448      1.0  0.08225  0.41808  0.00992  1.0000 -0.1583497541
C   C449      1.0  0.57610  0.31390  0.36220  1.0000 -0.0624409474
C   C450      1.0  0.57610  0.68610  0.63780  1.0000 -0.0624409474
C   C451      1.0  0.57610  0.18610  0.86220  1.0000 -0.0624409474
C   C452      1.0  0.57610  0.81390  0.13780  1.0000 -0.0624409474
C   C453      1.0  0.65334  0.26317  0.37261  1.0000 0.0481276738
C   C454      1.0  0.65334  0.73683  0.62739  1.0000 0.0481276738
C   C455      1.0  0.65334  0.23683  0.87261  1.0000 0.0481276738
C   C456      1.0  0.65334  0.76317  0.12739  1.0000 0.0481276738
C   C457      1.0  0.68565  0.30288  0.36492  1.0000 -0.0715227672
C   C458      1.0  0.68565  0.69712  0.63508  1.0000 -0.0715227672
C   C459      1.0  0.68565  0.19712  0.86492  1.0000 -0.0715227672
C   C460      1.0  0.68565  0.80288  0.13508  1.0000 -0.0715227672
C   C461      1.0  0.59809  0.26850  0.37103  1.0000 0.0372585917
C   C462      1.0  0.59809  0.73150  0.62897  1.0000 0.0372585917
C   C463      1.0  0.59809  0.23150  0.87103  1.0000 0.0372585917
C   C464      1.0  0.59809  0.76850  0.12897  1.0000 0.0372585917
C   C465      1.0  0.56540  0.22940  0.37920  1.0000 -0.0715227672
C   C466      1.0  0.56540  0.77060  0.62080  1.0000 -0.0715227672
C   C467      1.0  0.56540  0.27060  0.87920  1.0000 -0.0715227672
C   C468      1.0  0.56540  0.72940  0.12080  1.0000 -0.0715227672
C   C469      1.0  0.67529  0.21850  0.38193  1.0000 -0.0901255621
C   C470      1.0  0.67529  0.78150  0.61807  1.0000 -0.0901255621
C   C471      1.0  0.67529  0.28150  0.88193  1.0000 -0.0901255621
C   C472      1.0  0.67529  0.71850  0.11807  1.0000 -0.0901255621
C   C473      1.0  0.43083  0.28525  0.36980  1.0000 0.2097410711
C   C474      1.0  0.43083  0.71475  0.63020  1.0000 0.2097410711
C   C475      1.0  0.43083  0.21475  0.86980  1.0000 0.2097410711
C   C476      1.0  0.43083  0.78525  0.13020  1.0000 0.2097410711
C   C477      1.0  0.66440  0.34550  0.35550  1.0000 -0.0803276671
C   C478      1.0  0.66440  0.65450  0.64450  1.0000 -0.0803276671
C   C479      1.0  0.66440  0.15450  0.85550  1.0000 -0.0803276671
C   C480      1.0  0.66440  0.84550  0.14450  1.0000 -0.0803276671
C   C481      1.0  0.51840  0.32000  0.36230  1.0000 0.419724513
C   C482      1.0  0.51840  0.68000  0.63770  1.0000 0.419724513
C   C483      1.0  0.51840  0.18000  0.86230  1.0000 0.419724513
C   C484      1.0  0.51840  0.82000  0.13770  1.0000 0.419724513
C   C485      1.0  0.60770  0.35120  0.35420  1.0000 -0.0715227672
C   C486      1.0  0.60770  0.64880  0.64580  1.0000 -0.0715227672
C   C487      1.0  0.60770  0.14880  0.85420  1.0000 -0.0715227672
C   C488      1.0  0.60770  0.85120  0.14580  1.0000 -0.0715227672
C   C489      1.0  0.64210  0.18110  0.39160  1.0000 -0.0901255621
C   C490      1.0  0.64210  0.81890  0.60840  1.0000 -0.0901255621
C   C491      1.0  0.64210  0.31890  0.89160  1.0000 -0.0901255621
C   C492      1.0  0.64210  0.68110  0.10840  1.0000 -0.0901255621
C   C493      1.0  0.58840  0.18620  0.38900  1.0000 -0.0803276671
C   C494      1.0  0.58840  0.81380  0.61100  1.0000 -0.0803276671
C   C495      1.0  0.58840  0.31380  0.88900  1.0000 -0.0803276671
C   C496      1.0  0.58840  0.68620  0.11100  1.0000 -0.0803276671
C   C497      1.0  0.40450  0.28860  0.33242  1.0000 -0.209134532
C   C498      1.0  0.40450  0.71140  0.66758  1.0000 -0.209134532
C   C499      1.0  0.40450  0.21140  0.83242  1.0000 -0.209134532
C   C500      1.0  0.40450  0.78860  0.16758  1.0000 -0.209134532
C   C501      1.0  0.40490  0.28470  0.40598  1.0000 -0.1997969558
C   C502      1.0  0.40490  0.71530  0.59402  1.0000 -0.1997969558
C   C503      1.0  0.40490  0.21530  0.90598  1.0000 -0.1997969558
C   C504      1.0  0.40490  0.78470  0.09402  1.0000 -0.1997969558
C   C505      1.0  0.34980  0.29120  0.33404  1.0000 0.1107936378
C   C506      1.0  0.34980  0.70880  0.66596  1.0000 0.1107936378
C   C507      1.0  0.34980  0.20880  0.83404  1.0000 0.1107936378
C   C508      1.0  0.34980  0.79120  0.16596  1.0000 0.1107936378
C   C509      1.0  0.34925  0.28660  0.40371  1.0000 0.118480279
C   C510      1.0  0.34925  0.71340  0.59629  1.0000 0.118480279
C   C511      1.0  0.34925  0.21340  0.90371  1.0000 0.118480279
C   C512      1.0  0.34925  0.78660  0.09629  1.0000 0.118480279
C   C513      1.0  0.50750  0.23510  0.37790  1.0000 0.419724513
C   C514      1.0  0.50750  0.76490  0.62210  1.0000 0.419724513
C   C515      1.0  0.50750  0.26490  0.87790  1.0000 0.419724513
C   C516      1.0  0.50750  0.73510  0.12210  1.0000 0.419724513
C   C517      1.0  0.04206  0.35763  0.39517  1.0000 -0.0282900392
C   C518      1.0  0.04206  0.64237  0.60483  1.0000 -0.0282900392
C   C519      1.0  0.04206  0.14237  0.89517  1.0000 -0.0282900392
C   C520      1.0  0.04206  0.85763  0.10483  1.0000 -0.0282900392
C   C521      1.0  0.03162  0.38744  0.42963  1.0000 -0.0901255621
C   C522      1.0  0.03162  0.61256  0.57037  1.0000 -0.0901255621
C   C523      1.0  0.03162  0.11256  0.92963  1.0000 -0.0901255621
C   C524      1.0  0.03162  0.88744  0.07037  1.0000 -0.0901255621
C   C525      1.0  0.02832  0.30591  0.39733  1.0000 0.5692025984
C   C526      1.0  0.02832  0.69409  0.60267  1.0000 0.5692025984
C   C527      1.0  0.02832  0.19409  0.89733  1.0000 0.5692025984
C   C528      1.0  0.02832  0.80591  0.10267  1.0000 0.5692025984
C   C529      1.0  0.06426  0.37736  0.36024  1.0000 -0.0901255621
C   C530      1.0  0.06426  0.62264  0.63976  1.0000 -0.0901255621
C   C531      1.0  0.06426  0.12264  0.86024  1.0000 -0.0901255621
C   C532      1.0  0.06426  0.87736  0.13976  1.0000 -0.0901255621
C   C533      1.0  0.07795  0.50693  0.38894  1.0000 0.0865952391
C   C534      1.0  0.07795  0.49307  0.61106  1.0000 0.0865952391
C   C535      1.0  0.07795  0.99307  0.88894  1.0000 0.0865952391
C   C536      1.0  0.07795  0.00693  0.11106  1.0000 0.0865952391
C   C537      1.0  0.04347  0.43572  0.42764  1.0000 -0.1500122761
C   C538      1.0  0.04347  0.56428  0.57236  1.0000 -0.1500122761
C   C539      1.0  0.04347  0.06428  0.92764  1.0000 -0.1500122761
C   C540      1.0  0.04347  0.93572  0.07236  1.0000 -0.1500122761
C   C541      1.0  0.06566  0.45473  0.39154  1.0000 0.0728182258
C   C542      1.0  0.06566  0.54527  0.60846  1.0000 0.0728182258
C   C543      1.0  0.06566  0.04527  0.89154  1.0000 0.0728182258
C   C544      1.0  0.06566  0.95473  0.10846  1.0000 0.0728182258
C   C545      1.0  0.07588  0.42564  0.35772  1.0000 -0.1500122761
C   C546      1.0  0.07588  0.57436  0.64228  1.0000 -0.1500122761
C   C547      1.0  0.07588  0.07436  0.85772  1.0000 -0.1500122761
C   C548      1.0  0.07588  0.92564  0.14228  1.0000 -0.1500122761
C   C549      1.0  0.09754  0.53036  0.42504  1.0000 -0.209134532
C   C550      1.0  0.09754  0.46964  0.57496  1.0000 -0.209134532
C   C551      1.0  0.09754  0.96964  0.92504  1.0000 -0.209134532
C   C552      1.0  0.09754  0.03036  0.07496  1.0000 -0.209134532
C   C553      1.0  0.10151  0.60405  0.38629  1.0000 -0.1766466962
C   C554      1.0  0.10151  0.39595  0.61371  1.0000 -0.1766466962
C   C555      1.0  0.10151  0.89595  0.88629  1.0000 -0.1766466962
C   C556      1.0  0.10151  0.10405  0.11371  1.0000 -0.1766466962
C   C557      1.0  0.08226  0.58152  0.35042  1.0000 0.0865952391
C   C558      1.0  0.08226  0.41848  0.64958  1.0000 0.0865952391
C   C559      1.0  0.08226  0.91848  0.85042  1.0000 0.0865952391
C   C560      1.0  0.08226  0.08152  0.14958  1.0000 0.0865952391
C   C561      1.0  0.07644  0.60784  0.31150  1.0000 0.0728182258
C   C562      1.0  0.07644  0.39216  0.68850  1.0000 0.0728182258
C   C563      1.0  0.07644  0.89216  0.81150  1.0000 0.0728182258
C   C564      1.0  0.07644  0.10784  0.18850  1.0000 0.0728182258
C   C565      1.0  0.10937  0.57936  0.42373  1.0000 0.0865952391
C   C566      1.0  0.10937  0.42064  0.57627  1.0000 0.0865952391
C   C567      1.0  0.10937  0.92064  0.92373  1.0000 0.0865952391
C   C568      1.0  0.10937  0.07936  0.07627  1.0000 0.0865952391
C   C569      1.0  0.12730  0.60369  0.46228  1.0000 0.0728182258
C   C570      1.0  0.12730  0.39631  0.53772  1.0000 0.0728182258
C   C571      1.0  0.12730  0.89631  0.96228  1.0000 0.0728182258
C   C572      1.0  0.12730  0.10369  0.03772  1.0000 0.0728182258
C   C573      1.0  0.07066  0.53234  0.35267  1.0000 -0.1997969558
C   C574      1.0  0.07066  0.46766  0.64733  1.0000 -0.1997969558
C   C575      1.0  0.07066  0.96766  0.85267  1.0000 -0.1997969558
C   C576      1.0  0.07066  0.03234  0.14733  1.0000 -0.1997969558
C   C577      1.0  0.15964  0.65012  0.53425  1.0000 -0.0282900392
C   C578      1.0  0.15964  0.34988  0.46575  1.0000 -0.0282900392
C   C579      1.0  0.15964  0.84988  0.03425  1.0000 -0.0282900392
C   C580      1.0  0.15964  0.15012  0.96575  1.0000 -0.0282900392
C   C581      1.0  0.12071  0.67065  0.50917  1.0000 -0.0901255621
C   C582      1.0  0.12071  0.32935  0.49083  1.0000 -0.0901255621
C   C583      1.0  0.12071  0.82935  0.00917  1.0000 -0.0901255621
C   C584      1.0  0.12071  0.17065  0.99083  1.0000 -0.0901255621
C   C585      1.0  0.10531  0.64865  0.47280  1.0000 -0.1500122761
C   C586      1.0  0.10531  0.35135  0.52720  1.0000 -0.1500122761
C   C587      1.0  0.10531  0.85135  0.97280  1.0000 -0.1500122761
C   C588      1.0  0.10531  0.14865  0.02720  1.0000 -0.1500122761
C   C589      1.0  0.06510  0.65876  0.23715  1.0000 -0.0282900392
C   C590      1.0  0.06510  0.34124  0.76285  1.0000 -0.0282900392
C   C591      1.0  0.06510  0.84124  0.73715  1.0000 -0.0282900392
C   C592      1.0  0.06510  0.15876  0.26285  1.0000 -0.0282900392
C   C593      1.0  0.18129  0.60593  0.52272  1.0000 -0.10213463
C   C594      1.0  0.18129  0.39407  0.47728  1.0000 -0.10213463
C   C595      1.0  0.18129  0.89407  0.02272  1.0000 -0.10213463
C   C596      1.0  0.18129  0.10593  0.97728  1.0000 -0.10213463
C   C597      1.0  0.03351  0.60024  0.28501  1.0000 -0.1500122761
C   C598      1.0  0.03351  0.39976  0.71499  1.0000 -0.1500122761
C   C599      1.0  0.03351  0.89976  0.78501  1.0000 -0.1500122761
C   C600      1.0  0.03351  0.10024  0.21499  1.0000 -0.1500122761
C   C601      1.0  0.02724  0.62539  0.24909  1.0000 -0.10213463
C   C602      1.0  0.02724  0.37461  0.75091  1.0000 -0.10213463
C   C603      1.0  0.02724  0.87461  0.74909  1.0000 -0.10213463
C   C604      1.0  0.02724  0.12539  0.25091  1.0000 -0.10213463
C   C605      1.0  0.11388  0.64172  0.29956  1.0000 -0.1430662254
C   C606      1.0  0.11388  0.35828  0.70044  1.0000 -0.1430662254
C   C607      1.0  0.11388  0.85828  0.79956  1.0000 -0.1430662254
C   C608      1.0  0.11388  0.14172  0.20044  1.0000 -0.1430662254
C   C609      1.0  0.16514  0.58286  0.48791  1.0000 -0.1500122761
C   C610      1.0  0.16514  0.41714  0.51209  1.0000 -0.1500122761
C   C611      1.0  0.16514  0.91714  0.98791  1.0000 -0.1500122761
C   C612      1.0  0.16514  0.08286  0.01209  1.0000 -0.1500122761
C   C613      1.0  0.10922  0.66638  0.26245  1.0000 -0.1069060323
C   C614      1.0  0.10922  0.33362  0.73755  1.0000 -0.1069060323
C   C615      1.0  0.10922  0.83362  0.76245  1.0000 -0.1069060323
C   C616      1.0  0.10922  0.16638  0.23755  1.0000 -0.1069060323
C   C617      1.0  0.05947  0.68614  0.19691  1.0000 0.5897204642
C   C618      1.0  0.05947  0.31386  0.80309  1.0000 0.5897204642
C   C619      1.0  0.05947  0.81386  0.69691  1.0000 0.5897204642
C   C620      1.0  0.05947  0.18614  0.30309  1.0000 0.5897204642
C   C621      1.0  0.17644  0.67449  0.57298  1.0000 0.5897204642
C   C622      1.0  0.17644  0.32551  0.42702  1.0000 0.5897204642
C   C623      1.0  0.17644  0.82551  0.07298  1.0000 0.5897204642
C   C624      1.0  0.17644  0.17449  0.92702  1.0000 0.5897204642
N   N1        1.0  0.07301  0.22948  0.62460  1.0000 -0.2398682123
N   N2        1.0  0.07301  0.77052  0.37540  1.0000 -0.2398682123
N   N3        1.0  0.07301  0.27052  0.12460  1.0000 -0.2398682123
N   N4        1.0  0.07301  0.72948  0.87540  1.0000 -0.2398682123
N   N5        1.0  0.23673  0.25206  0.62456  1.0000 -0.2314415861
N   N6        1.0  0.23673  0.74794  0.37544  1.0000 -0.2314415861
N   N7        1.0  0.23673  0.24794  0.12456  1.0000 -0.2314415861
N   N8        1.0  0.23673  0.75206  0.87544  1.0000 -0.2314415861
N   N9        1.0  0.51174  0.27920  0.63053  1.0000 -0.2314415861
N   N10       1.0  0.51174  0.72080  0.36947  1.0000 -0.2314415861
N   N11       1.0  0.51174  0.22080  0.13053  1.0000 -0.2314415861
N   N12       1.0  0.51174  0.77920  0.86947  1.0000 -0.2314415861
N   N13       1.0  0.67699  0.28979  0.63158  1.0000 -0.2219980972
N   N14       1.0  0.67699  0.71021  0.36842  1.0000 -0.2219980972
N   N15       1.0  0.67699  0.21021  0.13158  1.0000 -0.2219980972
N   N16       1.0  0.67699  0.78979  0.86842  1.0000 -0.2219980972
N   N17       1.0  0.92699  0.22948  0.37540  1.0000 -0.2398682123
N   N18       1.0  0.92699  0.77052  0.62460  1.0000 -0.2398682123
N   N19       1.0  0.92699  0.27052  0.87540  1.0000 -0.2398682123
N   N20       1.0  0.92699  0.72948  0.12460  1.0000 -0.2398682123
N   N21       1.0  0.76327  0.25206  0.37544  1.0000 -0.2314415861
N   N22       1.0  0.76327  0.74794  0.62456  1.0000 -0.2314415861
N   N23       1.0  0.76327  0.24794  0.87544  1.0000 -0.2314415861
N   N24       1.0  0.76327  0.75206  0.12456  1.0000 -0.2314415861
N   N25       1.0  0.48826  0.27920  0.36947  1.0000 -0.2314415861
N   N26       1.0  0.48826  0.72080  0.63053  1.0000 -0.2314415861
N   N27       1.0  0.48826  0.22080  0.86947  1.0000 -0.2314415861
N   N28       1.0  0.48826  0.77920  0.13053  1.0000 -0.2314415861
N   N29       1.0  0.32301  0.28979  0.36842  1.0000 -0.2219980972
N   N30       1.0  0.32301  0.71021  0.63158  1.0000 -0.2219980972
N   N31       1.0  0.32301  0.21021  0.86842  1.0000 -0.2219980972
N   N32       1.0  0.32301  0.78979  0.13158  1.0000 -0.2219980972
O   O1        1.0  0.77162  0.82149  0.81662  1.0000 -0.5465269944
O   O2        1.0  0.77162  0.17851  0.18338  1.0000 -0.5465269944
O   O3        1.0  0.77162  0.67851  0.31662  1.0000 -0.5465269944
O   O4        1.0  0.77162  0.32149  0.68338  1.0000 -0.5465269944
O   O5        1.0  0.74579  0.21680  0.58073  1.0000 -0.5321893243
O   O6        1.0  0.74579  0.78320  0.41927  1.0000 -0.5321893243
O   O7        1.0  0.74579  0.28320  0.08073  1.0000 -0.5321893243
O   O8        1.0  0.74579  0.71680  0.91927  1.0000 -0.5321893243
O   O9        1.0  0.79382  0.22677  0.63729  1.0000 -0.5694638638
O   O10       1.0  0.79382  0.77323  0.36271  1.0000 -0.5694638638
O   O11       1.0  0.79382  0.27323  0.13729  1.0000 -0.5694638638
O   O12       1.0  0.79382  0.72677  0.86271  1.0000 -0.5694638638
O   O13       1.0  0.22549  0.32960  0.64135  1.0000 -0.4216372164
O   O14       1.0  0.22549  0.67040  0.35865  1.0000 -0.4216372164
O   O15       1.0  0.22549  0.17040  0.14135  1.0000 -0.4216372164
O   O16       1.0  0.22549  0.82960  0.85865  1.0000 -0.4216372164
O   O17       1.0  0.24595  0.17409  0.60765  1.0000 -0.4216372164
O   O18       1.0  0.24595  0.82591  0.39235  1.0000 -0.4216372164
O   O19       1.0  0.24595  0.32591  0.10765  1.0000 -0.4216372164
O   O20       1.0  0.24595  0.67409  0.89235  1.0000 -0.4216372164
O   O21       1.0  0.50379  0.35717  0.64590  1.0000 -0.4092019441
O   O22       1.0  0.50379  0.64283  0.35410  1.0000 -0.4092019441
O   O23       1.0  0.50379  0.14283  0.14590  1.0000 -0.4092019441
O   O24       1.0  0.50379  0.85717  0.85410  1.0000 -0.4092019441
O   O25       1.0  0.88992  0.79357  0.41242  1.0000 -0.5694638638
O   O26       1.0  0.88992  0.20643  0.58758  1.0000 -0.5694638638
O   O27       1.0  0.88992  0.70643  0.91242  1.0000 -0.5694638638
O   O28       1.0  0.88992  0.29357  0.08758  1.0000 -0.5694638638
O   O29       1.0  0.85663  0.79862  0.81481  1.0000 -0.5427350773
O   O30       1.0  0.85663  0.20138  0.18519  1.0000 -0.5427350773
O   O31       1.0  0.85663  0.70138  0.31481  1.0000 -0.5427350773
O   O32       1.0  0.85663  0.29862  0.68519  1.0000 -0.5427350773
O   O33       1.0  0.97046  0.82624  0.41581  1.0000 -0.5230723059
O   O34       1.0  0.97046  0.17376  0.58419  1.0000 -0.5230723059
O   O35       1.0  0.97046  0.67376  0.91581  1.0000 -0.5230723059
O   O36       1.0  0.97046  0.32624  0.08419  1.0000 -0.5230723059
O   O37       1.0  0.52208  0.20182  0.61600  1.0000 -0.4092019441
O   O38       1.0  0.52208  0.79818  0.38400  1.0000 -0.4092019441
O   O39       1.0  0.52208  0.29818  0.11600  1.0000 -0.4092019441
O   O40       1.0  0.52208  0.70182  0.88400  1.0000 -0.4092019441
O   O41       1.0  0.95543  0.27871  0.63360  1.0000 -0.5883486902
O   O42       1.0  0.95543  0.72129  0.36640  1.0000 -0.5883486902
O   O43       1.0  0.95543  0.22129  0.13360  1.0000 -0.5883486902
O   O44       1.0  0.95543  0.77871  0.86640  1.0000 -0.5883486902
O   O45       1.0  0.99832  0.28948  0.57382  1.0000 -0.5120652949
O   O46       1.0  0.99832  0.71052  0.42618  1.0000 -0.5120652949
O   O47       1.0  0.99832  0.21052  0.07382  1.0000 -0.5120652949
O   O48       1.0  0.99832  0.78948  0.92618  1.0000 -0.5120652949
O   O49       1.0  0.77632  0.66787  0.41470  1.0000 -0.5321893243
O   O50       1.0  0.77632  0.33213  0.58530  1.0000 -0.5321893243
O   O51       1.0  0.77632  0.83213  0.91470  1.0000 -0.5321893243
O   O52       1.0  0.77632  0.16787  0.08530  1.0000 -0.5321893243
O   O53       1.0  0.90005  0.70597  0.81739  1.0000 -0.5465269944
O   O54       1.0  0.90005  0.29403  0.18261  1.0000 -0.5465269944
O   O55       1.0  0.90005  0.79403  0.31739  1.0000 -0.5465269944
O   O56       1.0  0.90005  0.20597  0.68261  1.0000 -0.5465269944
O   O57       1.0  0.85618  0.70159  0.40943  1.0000 -0.5613123586
O   O58       1.0  0.85618  0.29841  0.59057  1.0000 -0.5613123586
O   O59       1.0  0.85618  0.79841  0.90943  1.0000 -0.5613123586
O   O60       1.0  0.85618  0.20159  0.09057  1.0000 -0.5613123586
O   O61       1.0  0.98624  0.68685  0.82001  1.0000 -0.5427350773
O   O62       1.0  0.98624  0.31315  0.17999  1.0000 -0.5427350773
O   O63       1.0  0.98624  0.81315  0.32001  1.0000 -0.5427350773
O   O64       1.0  0.98624  0.18685  0.67999  1.0000 -0.5427350773
O   O65       1.0  0.22838  0.82149  0.18338  1.0000 -0.5465269944
O   O66       1.0  0.22838  0.17851  0.81662  1.0000 -0.5465269944
O   O67       1.0  0.22838  0.67851  0.68338  1.0000 -0.5465269944
O   O68       1.0  0.22838  0.32149  0.31662  1.0000 -0.5465269944
O   O69       1.0  0.25421  0.21680  0.41927  1.0000 -0.5321893243
O   O70       1.0  0.25421  0.78320  0.58073  1.0000 -0.5321893243
O   O71       1.0  0.25421  0.28320  0.91927  1.0000 -0.5321893243
O   O72       1.0  0.25421  0.71680  0.08073  1.0000 -0.5321893243
O   O73       1.0  0.20618  0.22677  0.36271  1.0000 -0.5694638638
O   O74       1.0  0.20618  0.77323  0.63729  1.0000 -0.5694638638
O   O75       1.0  0.20618  0.27323  0.86271  1.0000 -0.5694638638
O   O76       1.0  0.20618  0.72677  0.13729  1.0000 -0.5694638638
O   O77       1.0  0.77451  0.32960  0.35865  1.0000 -0.4216372164
O   O78       1.0  0.77451  0.67040  0.64135  1.0000 -0.4216372164
O   O79       1.0  0.77451  0.17040  0.85865  1.0000 -0.4216372164
O   O80       1.0  0.77451  0.82960  0.14135  1.0000 -0.4216372164
O   O81       1.0  0.75405  0.17409  0.39235  1.0000 -0.4216372164
O   O82       1.0  0.75405  0.82591  0.60765  1.0000 -0.4216372164
O   O83       1.0  0.75405  0.32591  0.89235  1.0000 -0.4216372164
O   O84       1.0  0.75405  0.67409  0.10765  1.0000 -0.4216372164
O   O85       1.0  0.49621  0.35717  0.35410  1.0000 -0.4092019441
O   O86       1.0  0.49621  0.64283  0.64590  1.0000 -0.4092019441
O   O87       1.0  0.49621  0.14283  0.85410  1.0000 -0.4092019441
O   O88       1.0  0.49621  0.85717  0.14590  1.0000 -0.4092019441
O   O89       1.0  0.11008  0.79357  0.58758  1.0000 -0.5694638638
O   O90       1.0  0.11008  0.20643  0.41242  1.0000 -0.5694638638
O   O91       1.0  0.11008  0.70643  0.08758  1.0000 -0.5694638638
O   O92       1.0  0.11008  0.29357  0.91242  1.0000 -0.5694638638
O   O93       1.0  0.14337  0.79862  0.18519  1.0000 -0.5427350773
O   O94       1.0  0.14337  0.20138  0.81481  1.0000 -0.5427350773
O   O95       1.0  0.14337  0.70138  0.68519  1.0000 -0.5427350773
O   O96       1.0  0.14337  0.29862  0.31481  1.0000 -0.5427350773
O   O97       1.0  0.02954  0.82624  0.58419  1.0000 -0.5230723059
O   O98       1.0  0.02954  0.17376  0.41581  1.0000 -0.5230723059
O   O99       1.0  0.02954  0.67376  0.08419  1.0000 -0.5230723059
O   O100      1.0  0.02954  0.32624  0.91581  1.0000 -0.5230723059
O   O101      1.0  0.47792  0.20182  0.38400  1.0000 -0.4092019441
O   O102      1.0  0.47792  0.79818  0.61600  1.0000 -0.4092019441
O   O103      1.0  0.47792  0.29818  0.88400  1.0000 -0.4092019441
O   O104      1.0  0.47792  0.70182  0.11600  1.0000 -0.4092019441
O   O105      1.0  0.04457  0.27871  0.36640  1.0000 -0.5883486902
O   O106      1.0  0.04457  0.72129  0.63360  1.0000 -0.5883486902
O   O107      1.0  0.04457  0.22129  0.86640  1.0000 -0.5883486902
O   O108      1.0  0.04457  0.77871  0.13360  1.0000 -0.5883486902
O   O109      1.0  0.00168  0.28948  0.42618  1.0000 -0.5120652949
O   O110      1.0  0.00168  0.71052  0.57382  1.0000 -0.5120652949
O   O111      1.0  0.00168  0.21052  0.92618  1.0000 -0.5120652949
O   O112      1.0  0.00168  0.78948  0.07382  1.0000 -0.5120652949
O   O113      1.0  0.22368  0.66787  0.58530  1.0000 -0.5321893243
O   O114      1.0  0.22368  0.33213  0.41470  1.0000 -0.5321893243
O   O115      1.0  0.22368  0.83213  0.08530  1.0000 -0.5321893243
O   O116      1.0  0.22368  0.16787  0.91470  1.0000 -0.5321893243
O   O117      1.0  0.09995  0.70597  0.18261  1.0000 -0.5465269944
O   O118      1.0  0.09995  0.29403  0.81739  1.0000 -0.5465269944
O   O119      1.0  0.09995  0.79403  0.68261  1.0000 -0.5465269944
O   O120      1.0  0.09995  0.20597  0.31739  1.0000 -0.5465269944
O   O121      1.0  0.14382  0.70159  0.59057  1.0000 -0.5613123586
O   O122      1.0  0.14382  0.29841  0.40943  1.0000 -0.5613123586
O   O123      1.0  0.14382  0.79841  0.09057  1.0000 -0.5613123586
O   O124      1.0  0.14382  0.20159  0.90943  1.0000 -0.5613123586
O   O125      1.0  0.01376  0.68685  0.17999  1.0000 -0.5427350773
O   O126      1.0  0.01376  0.31315  0.82001  1.0000 -0.5427350773
O   O127      1.0  0.01376  0.81315  0.67999  1.0000 -0.5427350773
O   O128      1.0  0.01376  0.18685  0.32001  1.0000 -0.5427350773
