# DDEC6 charges by PACMAN v1.1 (https://github.com/mtap-research/PACMAN-charge/)
data_ja9b10501_si_012_ASR_pacman
_symmetry_space_group_name_H-M   'P 1'
_cell_length_a   18.60510000
_cell_length_b   18.60510000
_cell_length_c   37.38400000
_cell_angle_alpha   90.00000000
_cell_angle_beta   90.00000000
_cell_angle_gamma   90.00000000
_symmetry_Int_Tables_number   1
_chemical_formula_structural   Al16P8H156.24C220.08O84.08
_chemical_formula_sum   'Al16 P8 H156.24 C220.08 O84.08'
_cell_volume   12940.46210484
_cell_formula_units_Z   1
loop_
 _symmetry_equiv_pos_site_id
 _symmetry_equiv_pos_as_xyz
  1  'x, y, z'
loop_
 _atom_site_type_symbol
 _atom_site_label
 _atom_site_symmetry_multiplicity
 _atom_site_fract_x
 _atom_site_fract_y
 _atom_site_fract_z
 _atom_site_occupancy
 _atom_site_charge
Al  Al1  1  0.09072000  0.13480000  0.08018000  1.0 1.6454748893
Al  Al2  1  0.90928000  0.86520000  0.08018000  1.0 1.6417329472
Al  Al3  1  0.36520000  0.59072000  0.58018000  1.0 1.6454748893
Al  Al4  1  0.63480000  0.40928000  0.58018000  1.0 1.6454748893
Al  Al5  1  0.40928000  0.63480000  0.41982000  1.0 1.6454748893
Al  Al6  1  0.59072000  0.36520000  0.41982000  1.0 1.6454748893
Al  Al7  1  0.13480000  0.09072000  0.91982000  1.0 1.6454748893
Al  Al8  1  0.86520000  0.90928000  0.91982000  1.0 1.6454748893
Al  Al9  1  0.16346000  0.16346000  0.00000000  1.0 1.6638953727
Al  Al10  1  0.83654000  0.83654000  0.00000000  1.0 1.6638953727
Al  Al11  1  0.33654000  0.66346000  0.50000000  1.0 1.6638953727
Al  Al12  1  0.66346000  0.33654000  0.50000000  1.0 1.6638953727
Al  Al13  1  0.00000000  0.00000000  0.11504000  1.0 1.6417329472
Al  Al14  1  0.50000000  0.50000000  0.61504000  1.0 1.6417329472
Al  Al15  1  0.50000000  0.50000000  0.38496000  1.0 1.6417329472
Al  Al16  1  0.00000000  0.00000000  0.88496000  1.0 1.6417329472
P  P1  1  0.04107000  0.25411000  0.03277000  1.0 1.0058838617
P  P2  1  0.95893000  0.74589000  0.03277000  1.0 1.0058838617
P  P3  1  0.24589000  0.54107000  0.53277000  1.0 1.0058838617
P  P4  1  0.75411000  0.45893000  0.53277000  1.0 1.0058838617
P  P5  1  0.45893000  0.75411000  0.46723000  1.0 1.0058838617
P  P6  1  0.54107000  0.24589000  0.46723000  1.0 1.0058838617
P  P7  1  0.25411000  0.04107000  0.96723000  1.0 1.0058838617
P  P8  1  0.74589000  0.95893000  0.96723000  1.0 1.0058838617
H  H1  1  0.98702000  0.06974000  0.06083000  1.0 0.4202202749
H  H2  1  0.12078000  0.05767000  0.03041000  1.0 0.4202202749
H  H3  1  0.86178000  0.29141000  0.45136000  1.0 0.1302775647
H  H4  1  0.20616000  0.54282000  0.38814000  1.0 0.1193652026
H  H5  1  0.83809000  0.29996000  0.32752000  1.0 0.1103657649
H  H6  1  0.73736000  0.29012000  0.36291000  1.0 0.1302775647
H  H7  1  0.33364000  0.38487000  0.34948000  1.0 0.1302775647
H  H8  1  0.96460000  0.29904000  0.41598000  1.0 0.1103657649
H  H9  1  0.03526000  0.37177000  0.37782000  1.0 0.1103657649
H  H10  1  0.09198000  0.25990000  0.17140000  1.0 0.1302775647
H  H11  1  0.98741000  0.09032000  0.21577000  1.0 0.1302775647
H  H12  1  0.94050000  0.24293000  0.30397000  1.0 0.1103657649
H  H13  1  0.13660000  0.32421000  0.28556000  1.0 0.1103657649
H  H14  1  0.09276000  0.31789000  0.22682000  1.0 0.1103657649
H  H15  1  0.98912000  0.14937000  0.27100000  1.0 0.1103657649
H  H16  1  0.10614000  0.48258000  0.36709000  1.0 0.1103657649
H  H17  1  0.23367000  0.32499000  0.32798000  1.0 0.1193652026
H  H18  1  0.01298000  0.93026000  0.06083000  1.0 0.4202202749
H  H19  1  0.87922000  0.94233000  0.03041000  1.0 0.4202202749
H  H20  1  0.13822000  0.70859000  0.45136000  1.0 0.1302775647
H  H21  1  0.79384000  0.45718000  0.38814000  1.0 0.1193652026
H  H22  1  0.16191000  0.70004000  0.32752000  1.0 0.1103657649
H  H23  1  0.26264000  0.70988000  0.36291000  1.0 0.1302775647
H  H24  1  0.66636000  0.61513000  0.34948000  1.0 0.1302775647
H  H25  1  0.03540000  0.70096000  0.41598000  1.0 0.1103657649
H  H26  1  0.96474000  0.62823000  0.37782000  1.0 0.1103657649
H  H27  1  0.90802000  0.74010000  0.17140000  1.0 0.1302775647
H  H28  1  0.01259000  0.90968000  0.21577000  1.0 0.1302775647
H  H29  1  0.05950000  0.75707000  0.30397000  1.0 0.1103657649
H  H30  1  0.86340000  0.67579000  0.28556000  1.0 0.1103657649
H  H31  1  0.90724000  0.68211000  0.22682000  1.0 0.1103657649
H  H32  1  0.01088000  0.85063000  0.27100000  1.0 0.1103657649
H  H33  1  0.89386000  0.51742000  0.36709000  1.0 0.1103657649
H  H34  1  0.76633000  0.67501000  0.32798000  1.0 0.1193652026
H  H35  1  0.43026000  0.48702000  0.56083000  1.0 0.4202202749
H  H36  1  0.44233000  0.62078000  0.53041000  1.0 0.4202202749
H  H37  1  0.20859000  0.36178000  0.95136000  1.0 0.1302775647
H  H38  1  0.95718000  0.70616000  0.88814000  1.0 0.1193652026
H  H39  1  0.20004000  0.33809000  0.82752000  1.0 0.1103657649
H  H40  1  0.20988000  0.23736000  0.86291000  1.0 0.1302775647
H  H41  1  0.11513000  0.83364000  0.84948000  1.0 0.1302775647
H  H42  1  0.20096000  0.46460000  0.91598000  1.0 0.1103657649
H  H43  1  0.12823000  0.53526000  0.87782000  1.0 0.1103657649
H  H44  1  0.24010000  0.59198000  0.67140000  1.0 0.1302775647
H  H45  1  0.40968000  0.48741000  0.71577000  1.0 0.1302775647
H  H46  1  0.25707000  0.44050000  0.80397000  1.0 0.1103657649
H  H47  1  0.17579000  0.63660000  0.78556000  1.0 0.1103657649
H  H48  1  0.18211000  0.59276000  0.72682000  1.0 0.1103657649
H  H49  1  0.35063000  0.48912000  0.77100000  1.0 0.1103657649
H  H50  1  0.01742000  0.60614000  0.86709000  1.0 0.1103657649
H  H51  1  0.17501000  0.73367000  0.82798000  1.0 0.1193652026
H  H52  1  0.56974000  0.51298000  0.56083000  1.0 0.4202202749
H  H53  1  0.55767000  0.37922000  0.53041000  1.0 0.4202202749
H  H54  1  0.79141000  0.63822000  0.95136000  1.0 0.1302775647
H  H55  1  0.04282000  0.29384000  0.88814000  1.0 0.1193652026
H  H56  1  0.79996000  0.66191000  0.82752000  1.0 0.1103657649
H  H57  1  0.79012000  0.76264000  0.86291000  1.0 0.1302775647
H  H58  1  0.88487000  0.16636000  0.84948000  1.0 0.1302775647
H  H59  1  0.79904000  0.53540000  0.91598000  1.0 0.1103657649
H  H60  1  0.87177000  0.46474000  0.87782000  1.0 0.1103657649
H  H61  1  0.75990000  0.40802000  0.67140000  1.0 0.1302775647
H  H62  1  0.59032000  0.51259000  0.71577000  1.0 0.1302775647
H  H63  1  0.74293000  0.55950000  0.80397000  1.0 0.1103657649
H  H64  1  0.82421000  0.36340000  0.78556000  1.0 0.1103657649
H  H65  1  0.81789000  0.40724000  0.72682000  1.0 0.1103657649
H  H66  1  0.64937000  0.51088000  0.77100000  1.0 0.1103657649
H  H67  1  0.98258000  0.39386000  0.86709000  1.0 0.1103657649
H  H68  1  0.82499000  0.26633000  0.82798000  1.0 0.1193652026
H  H69  1  0.51298000  0.56974000  0.43917000  1.0 0.4202202749
H  H70  1  0.37922000  0.55767000  0.46959000  1.0 0.4202202749
H  H71  1  0.63822000  0.79141000  0.04864000  1.0 0.1302775647
H  H72  1  0.29384000  0.04282000  0.11186000  1.0 0.1193652026
H  H73  1  0.66191000  0.79996000  0.17248000  1.0 0.1103657649
H  H74  1  0.76264000  0.79012000  0.13709000  1.0 0.1302775647
H  H75  1  0.16636000  0.88487000  0.15052000  1.0 0.1302775647
H  H76  1  0.53540000  0.79904000  0.08402000  1.0 0.1103657649
H  H77  1  0.46474000  0.87177000  0.12218000  1.0 0.1103657649
H  H78  1  0.40802000  0.75990000  0.32860000  1.0 0.1302775647
H  H79  1  0.51259000  0.59032000  0.28423000  1.0 0.1302775647
H  H80  1  0.55950000  0.74293000  0.19603000  1.0 0.1103657649
H  H81  1  0.36340000  0.82421000  0.21444000  1.0 0.1103657649
H  H82  1  0.40724000  0.81789000  0.27318000  1.0 0.1103657649
H  H83  1  0.51088000  0.64937000  0.22900000  1.0 0.1103657649
H  H84  1  0.39386000  0.98258000  0.13291000  1.0 0.1103657649
H  H85  1  0.26633000  0.82499000  0.17202000  1.0 0.1193652026
H  H86  1  0.48702000  0.43026000  0.43917000  1.0 0.4202202749
H  H87  1  0.62078000  0.44233000  0.46959000  1.0 0.4202202749
H  H88  1  0.36178000  0.20859000  0.04864000  1.0 0.1302775647
H  H89  1  0.70616000  0.95718000  0.11186000  1.0 0.1193652026
H  H90  1  0.33809000  0.20004000  0.17248000  1.0 0.1103657649
H  H91  1  0.23736000  0.20988000  0.13709000  1.0 0.1302775647
H  H92  1  0.83364000  0.11513000  0.15052000  1.0 0.1302775647
H  H93  1  0.46460000  0.20096000  0.08402000  1.0 0.1103657649
H  H94  1  0.53526000  0.12823000  0.12218000  1.0 0.1103657649
H  H95  1  0.59198000  0.24010000  0.32860000  1.0 0.1302775647
H  H96  1  0.48741000  0.40968000  0.28423000  1.0 0.1302775647
H  H97  1  0.44050000  0.25707000  0.19603000  1.0 0.1103657649
H  H98  1  0.63660000  0.17579000  0.21444000  1.0 0.1103657649
H  H99  1  0.59276000  0.18211000  0.27318000  1.0 0.1103657649
H  H100  1  0.48912000  0.35063000  0.22900000  1.0 0.1103657649
H  H101  1  0.60614000  0.01742000  0.13291000  1.0 0.1103657649
H  H102  1  0.73367000  0.17501000  0.17202000  1.0 0.1193652026
H  H103  1  0.06974000  0.98702000  0.93917000  1.0 0.4202202749
H  H104  1  0.05767000  0.12078000  0.96959000  1.0 0.4202202749
H  H105  1  0.29141000  0.86178000  0.54864000  1.0 0.1302775647
H  H106  1  0.54282000  0.20616000  0.61186000  1.0 0.1193652026
H  H107  1  0.29996000  0.83809000  0.67248000  1.0 0.1103657649
H  H108  1  0.29012000  0.73736000  0.63709000  1.0 0.1302775647
H  H109  1  0.38487000  0.33364000  0.65052000  1.0 0.1302775647
H  H110  1  0.29904000  0.96460000  0.58402000  1.0 0.1103657649
H  H111  1  0.37177000  0.03526000  0.62218000  1.0 0.1103657649
H  H112  1  0.25990000  0.09198000  0.82860000  1.0 0.1302775647
H  H113  1  0.09032000  0.98741000  0.78423000  1.0 0.1302775647
H  H114  1  0.24293000  0.94050000  0.69603000  1.0 0.1103657649
H  H115  1  0.32421000  0.13660000  0.71444000  1.0 0.1103657649
H  H116  1  0.31789000  0.09276000  0.77318000  1.0 0.1103657649
H  H117  1  0.14937000  0.98912000  0.72900000  1.0 0.1103657649
H  H118  1  0.48258000  0.10614000  0.63291000  1.0 0.1103657649
H  H119  1  0.32499000  0.23367000  0.67202000  1.0 0.1193652026
H  H120  1  0.93026000  0.01298000  0.93917000  1.0 0.4202202749
H  H121  1  0.94233000  0.87922000  0.96959000  1.0 0.4202202749
H  H122  1  0.70859000  0.13822000  0.54864000  1.0 0.1302775647
H  H123  1  0.45718000  0.79384000  0.61186000  1.0 0.1193652026
H  H124  1  0.70004000  0.16191000  0.67248000  1.0 0.1103657649
H  H125  1  0.70988000  0.26264000  0.63709000  1.0 0.1302775647
H  H126  1  0.61513000  0.66636000  0.65052000  1.0 0.1302775647
H  H127  1  0.70096000  0.03540000  0.58402000  1.0 0.1103657649
H  H128  1  0.62823000  0.96474000  0.62218000  1.0 0.1103657649
H  H129  1  0.74010000  0.90802000  0.82860000  1.0 0.1302775647
H  H130  1  0.90968000  0.01259000  0.78423000  1.0 0.1302775647
H  H131  1  0.75707000  0.05950000  0.69603000  1.0 0.1103657649
H  H132  1  0.67579000  0.86340000  0.71444000  1.0 0.1103657649
H  H133  1  0.68211000  0.90724000  0.77318000  1.0 0.1103657649
H  H134  1  0.85063000  0.01088000  0.72900000  1.0 0.1103657649
H  H135  1  0.51742000  0.89386000  0.63291000  1.0 0.1103657649
H  H136  1  0.67501000  0.76633000  0.67202000  1.0 0.1193652026
H  H137  1  0.01331000  0.29667000  0.03028000  0.49 0.1627414649
H  H138  1  0.98669000  0.70333000  0.03028000  0.49 0.1627414649
H  H139  1  0.20333000  0.51331000  0.53028000  0.49 0.1627414649
H  H140  1  0.79667000  0.48669000  0.53028000  0.49 0.1627414649
H  H141  1  0.48669000  0.79667000  0.46972000  0.49 0.1627414649
H  H142  1  0.51331000  0.20333000  0.46972000  0.49 0.1627414649
H  H143  1  0.29667000  0.01331000  0.96972000  0.49 0.1627414649
H  H144  1  0.70333000  0.98669000  0.96972000  0.49 0.1627414649
H  H145  1  0.96387000  0.26013000  0.99672000  0.51 0.3686434817
H  H146  1  0.03581000  0.35650000  0.07562000  0.51 0.1481349248
H  H147  1  0.11788000  0.33258000  0.07090000  0.51 0.1627414649
H  H148  1  0.08001000  0.38114000  0.04101000  0.51 0.1377501659
H  H149  1  0.03613000  0.73987000  0.99672000  0.51 0.3686434817
H  H150  1  0.96419000  0.64350000  0.07562000  0.51 0.1481349248
H  H151  1  0.88212000  0.66742000  0.07090000  0.51 0.1627414649
H  H152  1  0.91999000  0.61886000  0.04101000  0.51 0.1377501659
H  H153  1  0.23987000  0.46387000  0.49672000  0.51 0.3686434817
H  H154  1  0.14350000  0.53581000  0.57562000  0.51 0.1481349248
H  H155  1  0.16742000  0.61788000  0.57090000  0.51 0.1627414649
H  H156  1  0.11886000  0.58001000  0.54101000  0.51 0.1377501659
H  H157  1  0.76013000  0.53613000  0.49672000  0.51 0.3686434817
H  H158  1  0.85650000  0.46419000  0.57562000  0.51 0.1481349248
H  H159  1  0.83258000  0.38212000  0.57090000  0.51 0.1627414649
H  H160  1  0.88114000  0.41999000  0.54101000  0.51 0.1377501659
H  H161  1  0.53613000  0.76013000  0.50328000  0.51 0.3686434817
H  H162  1  0.46419000  0.85650000  0.42438000  0.51 0.1481349248
H  H163  1  0.38212000  0.83258000  0.42910000  0.51 0.1627414649
H  H164  1  0.41999000  0.88114000  0.45899000  0.51 0.1377501659
H  H165  1  0.46387000  0.23987000  0.50328000  0.51 0.3686434817
H  H166  1  0.53581000  0.14350000  0.42438000  0.51 0.1481349248
H  H167  1  0.61788000  0.16742000  0.42910000  0.51 0.1627414649
H  H168  1  0.58001000  0.11886000  0.45899000  0.51 0.1377501659
H  H169  1  0.26013000  0.96387000  0.00328000  0.51 0.3686434817
H  H170  1  0.35650000  0.03581000  0.92438000  0.51 0.1481349248
H  H171  1  0.33258000  0.11788000  0.92910000  0.51 0.1627414649
H  H172  1  0.38114000  0.08001000  0.95899000  0.51 0.1377501659
H  H173  1  0.73987000  0.03613000  0.00328000  0.51 0.3686434817
H  H174  1  0.64350000  0.96419000  0.92438000  0.51 0.1481349248
H  H175  1  0.66742000  0.88212000  0.92910000  0.51 0.1627414649
H  H176  1  0.61886000  0.91999000  0.95899000  0.51 0.1377501659
C  C1  1  0.04146000  0.13163000  0.15286000  1.0 0.6185870559
C  C2  1  0.34544000  0.50648000  0.38440000  1.0 0.6185870559
C  C3  1  0.85720000  0.29286000  0.42606000  1.0 -0.090359052
C  C4  1  0.72371000  0.29427000  0.43315000  1.0 0.6185870559
C  C5  1  0.27971000  0.47065000  0.37145000  1.0 -0.0582346843
C  C6  1  0.79035000  0.29019000  0.41102000  1.0 -0.0437497663
C  C7  1  0.91162000  0.30046000  0.36753000  1.0 0.0723204309
C  C8  1  0.21202000  0.49819000  0.37614000  1.0 -0.090359052
C  C9  1  0.84334000  0.29788000  0.35278000  1.0 -0.1507671799
C  C10  1  0.03905000  0.27770000  0.28960000  1.0 0.0723204309
C  C11  1  0.04027000  0.16950000  0.18834000  1.0 -0.0437497663
C  C12  1  0.78358000  0.29242000  0.37364000  1.0 -0.090359052
C  C13  1  0.28715000  0.40465000  0.35316000  1.0 -0.090359052
C  C14  1  0.03965000  0.24046000  0.25438000  1.0 0.0723204309
C  C15  1  0.91844000  0.29765000  0.40514000  1.0 -0.1583775589
C  C16  1  0.15899000  0.39589000  0.34625000  1.0 0.0790747752
C  C17  1  0.03585000  0.34834000  0.35524000  1.0 -0.2016769169
C  C18  1  0.07099000  0.23726000  0.19164000  1.0 -0.0984370537
C  C19  1  0.00891000  0.13643000  0.21790000  1.0 -0.1089569587
C  C20  1  0.97985000  0.27195000  0.31130000  1.0 -0.209066372
C  C21  1  0.09594000  0.31924000  0.30073000  1.0 -0.2016769169
C  C22  1  0.07096000  0.27193000  0.22466000  1.0 -0.1583775589
C  C23  1  0.00962000  0.17213000  0.25067000  1.0 -0.1583775589
C  C24  1  0.97649000  0.30883000  0.34466000  1.0 0.0790747752
C  C25  1  0.09550000  0.35446000  0.33389000  1.0 0.0790747752
C  C26  1  0.15247000  0.46218000  0.36374000  1.0 -0.1583775589
C  C27  1  0.22773000  0.36886000  0.34065000  1.0 -0.1507671799
C  C28  1  0.95854000  0.86837000  0.15286000  1.0 0.6185870559
C  C29  1  0.65456000  0.49352000  0.38440000  1.0 0.6185870559
C  C30  1  0.14280000  0.70714000  0.42606000  1.0 -0.090359052
C  C31  1  0.27629000  0.70573000  0.43315000  1.0 0.6185870559
C  C32  1  0.72029000  0.52935000  0.37145000  1.0 -0.0582346843
C  C33  1  0.20965000  0.70981000  0.41102000  1.0 -0.0437497663
C  C34  1  0.08838000  0.69954000  0.36753000  1.0 0.0723204309
C  C35  1  0.78798000  0.50181000  0.37614000  1.0 -0.090359052
C  C36  1  0.15666000  0.70212000  0.35278000  1.0 -0.1507671799
C  C37  1  0.96095000  0.72230000  0.28960000  1.0 0.0723204309
C  C38  1  0.95973000  0.83050000  0.18834000  1.0 -0.0437497663
C  C39  1  0.21642000  0.70758000  0.37364000  1.0 -0.090359052
C  C40  1  0.71285000  0.59535000  0.35316000  1.0 -0.090359052
C  C41  1  0.96035000  0.75954000  0.25438000  1.0 0.0723204309
C  C42  1  0.08156000  0.70235000  0.40514000  1.0 -0.1583775589
C  C43  1  0.84101000  0.60411000  0.34625000  1.0 0.0790747752
C  C44  1  0.96415000  0.65166000  0.35524000  1.0 -0.2016769169
C  C45  1  0.92901000  0.76274000  0.19164000  1.0 -0.0984370537
C  C46  1  0.99109000  0.86357000  0.21790000  1.0 -0.1089569587
C  C47  1  0.02015000  0.72805000  0.31130000  1.0 -0.209066372
C  C48  1  0.90406000  0.68076000  0.30073000  1.0 -0.2016769169
C  C49  1  0.92904000  0.72807000  0.22466000  1.0 -0.1583775589
C  C50  1  0.99038000  0.82787000  0.25067000  1.0 -0.1583775589
C  C51  1  0.02351000  0.69117000  0.34466000  1.0 0.0790747752
C  C52  1  0.90450000  0.64554000  0.33389000  1.0 0.0790747752
C  C53  1  0.84753000  0.53782000  0.36374000  1.0 -0.1583775589
C  C54  1  0.77227000  0.63114000  0.34065000  1.0 -0.1507671799
C  C55  1  0.36837000  0.54146000  0.65286000  1.0 0.6185870559
C  C56  1  0.99352000  0.84544000  0.88440000  1.0 0.6185870559
C  C57  1  0.20714000  0.35720000  0.92606000  1.0 -0.090359052
C  C58  1  0.20573000  0.22371000  0.93315000  1.0 0.6185870559
C  C59  1  0.02935000  0.77971000  0.87145000  1.0 -0.0582346843
C  C60  1  0.20981000  0.29035000  0.91102000  1.0 -0.0437497663
C  C61  1  0.19954000  0.41162000  0.86753000  1.0 0.0723204309
C  C62  1  0.00181000  0.71202000  0.87614000  1.0 -0.090359052
C  C63  1  0.20212000  0.34334000  0.85278000  1.0 -0.1507671799
C  C64  1  0.22230000  0.53905000  0.78960000  1.0 0.0723204309
C  C65  1  0.33050000  0.54027000  0.68834000  1.0 -0.0437497663
C  C66  1  0.20758000  0.28358000  0.87364000  1.0 -0.090359052
C  C67  1  0.09535000  0.78715000  0.85316000  1.0 -0.090359052
C  C68  1  0.25954000  0.53965000  0.75438000  1.0 0.0723204309
C  C69  1  0.20235000  0.41844000  0.90514000  1.0 -0.1583775589
C  C70  1  0.10411000  0.65899000  0.84625000  1.0 0.0790747752
C  C71  1  0.15166000  0.53585000  0.85524000  1.0 -0.2016769169
C  C72  1  0.26274000  0.57099000  0.69164000  1.0 -0.0984370537
C  C73  1  0.36357000  0.50891000  0.71790000  1.0 -0.1089569587
C  C74  1  0.22805000  0.47985000  0.81130000  1.0 -0.209066372
C  C75  1  0.18076000  0.59594000  0.80073000  1.0 -0.2016769169
C  C76  1  0.22807000  0.57096000  0.72466000  1.0 -0.1583775589
C  C77  1  0.32787000  0.50962000  0.75067000  1.0 -0.1583775589
C  C78  1  0.19117000  0.47649000  0.84466000  1.0 0.0790747752
C  C79  1  0.14554000  0.59550000  0.83389000  1.0 0.0790747752
C  C80  1  0.03782000  0.65247000  0.86374000  1.0 -0.1583775589
C  C81  1  0.13114000  0.72773000  0.84065000  1.0 -0.1507671799
C  C82  1  0.63163000  0.45854000  0.65286000  1.0 0.6185870559
C  C83  1  0.00648000  0.15456000  0.88440000  1.0 0.6185870559
C  C84  1  0.79286000  0.64280000  0.92606000  1.0 -0.090359052
C  C85  1  0.79427000  0.77629000  0.93315000  1.0 0.6185870559
C  C86  1  0.97065000  0.22029000  0.87145000  1.0 -0.0582346843
C  C87  1  0.79019000  0.70965000  0.91102000  1.0 -0.0437497663
C  C88  1  0.80046000  0.58838000  0.86753000  1.0 0.0723204309
C  C89  1  0.99819000  0.28798000  0.87614000  1.0 -0.090359052
C  C90  1  0.79788000  0.65666000  0.85278000  1.0 -0.1507671799
C  C91  1  0.77770000  0.46095000  0.78960000  1.0 0.0723204309
C  C92  1  0.66950000  0.45973000  0.68834000  1.0 -0.0437497663
C  C93  1  0.79242000  0.71642000  0.87364000  1.0 -0.090359052
C  C94  1  0.90465000  0.21285000  0.85316000  1.0 -0.090359052
C  C95  1  0.74046000  0.46035000  0.75438000  1.0 0.0723204309
C  C96  1  0.79765000  0.58156000  0.90514000  1.0 -0.1583775589
C  C97  1  0.89589000  0.34101000  0.84625000  1.0 0.0790747752
C  C98  1  0.84834000  0.46415000  0.85524000  1.0 -0.2016769169
C  C99  1  0.73726000  0.42901000  0.69164000  1.0 -0.0984370537
C  C100  1  0.63643000  0.49109000  0.71790000  1.0 -0.1089569587
C  C101  1  0.77195000  0.52015000  0.81130000  1.0 -0.209066372
C  C102  1  0.81924000  0.40406000  0.80073000  1.0 -0.2016769169
C  C103  1  0.77193000  0.42904000  0.72466000  1.0 -0.1583775589
C  C104  1  0.67213000  0.49038000  0.75067000  1.0 -0.1583775589
C  C105  1  0.80883000  0.52351000  0.84466000  1.0 0.0790747752
C  C106  1  0.85446000  0.40450000  0.83389000  1.0 0.0790747752
C  C107  1  0.96218000  0.34753000  0.86374000  1.0 -0.1583775589
C  C108  1  0.86886000  0.27227000  0.84065000  1.0 -0.1507671799
C  C109  1  0.45854000  0.63163000  0.34714000  1.0 0.6185870559
C  C110  1  0.15456000  0.00648000  0.11560000  1.0 0.6185870559
C  C111  1  0.64280000  0.79286000  0.07394000  1.0 -0.090359052
C  C112  1  0.77629000  0.79427000  0.06685000  1.0 0.6185870559
C  C113  1  0.22029000  0.97065000  0.12855000  1.0 -0.0582346843
C  C114  1  0.70965000  0.79019000  0.08898000  1.0 -0.0437497663
C  C115  1  0.58838000  0.80046000  0.13247000  1.0 0.0723204309
C  C116  1  0.28798000  0.99819000  0.12386000  1.0 -0.090359052
C  C117  1  0.65666000  0.79788000  0.14722000  1.0 -0.1507671799
C  C118  1  0.46095000  0.77770000  0.21040000  1.0 0.0723204309
C  C119  1  0.45973000  0.66950000  0.31166000  1.0 -0.0437497663
C  C120  1  0.71642000  0.79242000  0.12636000  1.0 -0.090359052
C  C121  1  0.21285000  0.90465000  0.14684000  1.0 -0.090359052
C  C122  1  0.46035000  0.74046000  0.24562000  1.0 0.0723204309
C  C123  1  0.58156000  0.79765000  0.09486000  1.0 -0.1583775589
C  C124  1  0.34101000  0.89589000  0.15375000  1.0 0.0790747752
C  C125  1  0.46415000  0.84834000  0.14476000  1.0 -0.2016769169
C  C126  1  0.42901000  0.73726000  0.30836000  1.0 -0.0984370537
C  C127  1  0.49109000  0.63643000  0.28210000  1.0 -0.1089569587
C  C128  1  0.52015000  0.77195000  0.18870000  1.0 -0.209066372
C  C129  1  0.40406000  0.81924000  0.19927000  1.0 -0.2016769169
C  C130  1  0.42904000  0.77193000  0.27534000  1.0 -0.1583775589
C  C131  1  0.49038000  0.67213000  0.24933000  1.0 -0.1583775589
C  C132  1  0.52351000  0.80883000  0.15534000  1.0 0.0790747752
C  C133  1  0.40450000  0.85446000  0.16611000  1.0 0.0790747752
C  C134  1  0.34753000  0.96218000  0.13626000  1.0 -0.1583775589
C  C135  1  0.27227000  0.86886000  0.15935000  1.0 -0.1507671799
C  C136  1  0.54146000  0.36837000  0.34714000  1.0 0.6185870559
C  C137  1  0.84544000  0.99352000  0.11560000  1.0 0.6185870559
C  C138  1  0.35720000  0.20714000  0.07394000  1.0 -0.090359052
C  C139  1  0.22371000  0.20573000  0.06685000  1.0 0.6185870559
C  C140  1  0.77971000  0.02935000  0.12855000  1.0 -0.0582346843
C  C141  1  0.29035000  0.20981000  0.08898000  1.0 -0.0437497663
C  C142  1  0.41162000  0.19954000  0.13247000  1.0 0.0723204309
C  C143  1  0.71202000  0.00181000  0.12386000  1.0 -0.090359052
C  C144  1  0.34334000  0.20212000  0.14722000  1.0 -0.1507671799
C  C145  1  0.53905000  0.22230000  0.21040000  1.0 0.0723204309
C  C146  1  0.54027000  0.33050000  0.31166000  1.0 -0.0437497663
C  C147  1  0.28358000  0.20758000  0.12636000  1.0 -0.090359052
C  C148  1  0.78715000  0.09535000  0.14684000  1.0 -0.090359052
C  C149  1  0.53965000  0.25954000  0.24562000  1.0 0.0723204309
C  C150  1  0.41844000  0.20235000  0.09486000  1.0 -0.1583775589
C  C151  1  0.65899000  0.10411000  0.15375000  1.0 0.0790747752
C  C152  1  0.53585000  0.15166000  0.14476000  1.0 -0.2016769169
C  C153  1  0.57099000  0.26274000  0.30836000  1.0 -0.0984370537
C  C154  1  0.50891000  0.36357000  0.28210000  1.0 -0.1089569587
C  C155  1  0.47985000  0.22805000  0.18870000  1.0 -0.209066372
C  C156  1  0.59594000  0.18076000  0.19927000  1.0 -0.2016769169
C  C157  1  0.57096000  0.22807000  0.27534000  1.0 -0.1583775589
C  C158  1  0.50962000  0.32787000  0.24933000  1.0 -0.1583775589
C  C159  1  0.47649000  0.19117000  0.15534000  1.0 0.0790747752
C  C160  1  0.59550000  0.14554000  0.16611000  1.0 0.0790747752
C  C161  1  0.65247000  0.03782000  0.13626000  1.0 -0.1583775589
C  C162  1  0.72773000  0.13114000  0.15935000  1.0 -0.1507671799
C  C163  1  0.13163000  0.04146000  0.84714000  1.0 0.6185870559
C  C164  1  0.50648000  0.34544000  0.61560000  1.0 0.6185870559
C  C165  1  0.29286000  0.85720000  0.57394000  1.0 -0.090359052
C  C166  1  0.29427000  0.72371000  0.56685000  1.0 0.6185870559
C  C167  1  0.47065000  0.27971000  0.62855000  1.0 -0.0582346843
C  C168  1  0.29019000  0.79035000  0.58898000  1.0 -0.0437497663
C  C169  1  0.30046000  0.91162000  0.63247000  1.0 0.0723204309
C  C170  1  0.49819000  0.21202000  0.62386000  1.0 -0.090359052
C  C171  1  0.29788000  0.84334000  0.64722000  1.0 -0.1507671799
C  C172  1  0.27770000  0.03905000  0.71040000  1.0 0.0723204309
C  C173  1  0.16950000  0.04027000  0.81166000  1.0 -0.0437497663
C  C174  1  0.29242000  0.78358000  0.62636000  1.0 -0.090359052
C  C175  1  0.40465000  0.28715000  0.64684000  1.0 -0.090359052
C  C176  1  0.24046000  0.03965000  0.74562000  1.0 0.0723204309
C  C177  1  0.29765000  0.91844000  0.59486000  1.0 -0.1583775589
C  C178  1  0.39589000  0.15899000  0.65375000  1.0 0.0790747752
C  C179  1  0.34834000  0.03585000  0.64476000  1.0 -0.2016769169
C  C180  1  0.23726000  0.07099000  0.80836000  1.0 -0.0984370537
C  C181  1  0.13643000  0.00891000  0.78210000  1.0 -0.1089569587
C  C182  1  0.27195000  0.97985000  0.68870000  1.0 -0.209066372
C  C183  1  0.31924000  0.09594000  0.69927000  1.0 -0.2016769169
C  C184  1  0.27193000  0.07096000  0.77534000  1.0 -0.1583775589
C  C185  1  0.17213000  0.00962000  0.74933000  1.0 -0.1507671799
C  C186  1  0.30883000  0.97649000  0.65534000  1.0 0.0790747752
C  C187  1  0.35446000  0.09550000  0.66611000  1.0 0.0790747752
C  C188  1  0.46218000  0.15247000  0.63626000  1.0 -0.1583775589
C  C189  1  0.36886000  0.22773000  0.65935000  1.0 -0.1507671799
C  C190  1  0.86837000  0.95854000  0.84714000  1.0 0.6185870559
C  C191  1  0.49352000  0.65456000  0.61560000  1.0 0.6185870559
C  C192  1  0.70714000  0.14280000  0.57394000  1.0 -0.090359052
C  C193  1  0.70573000  0.27629000  0.56685000  1.0 0.6185870559
C  C194  1  0.52935000  0.72029000  0.62855000  1.0 -0.0582346843
C  C195  1  0.70981000  0.20965000  0.58898000  1.0 -0.0437497663
C  C196  1  0.69954000  0.08838000  0.63247000  1.0 0.0723204309
C  C197  1  0.50181000  0.78798000  0.62386000  1.0 -0.090359052
C  C198  1  0.70212000  0.15666000  0.64722000  1.0 -0.1507671799
C  C199  1  0.72230000  0.96095000  0.71040000  1.0 0.0723204309
C  C200  1  0.83050000  0.95973000  0.81166000  1.0 -0.0437497663
C  C201  1  0.70758000  0.21642000  0.62636000  1.0 -0.090359052
C  C202  1  0.59535000  0.71285000  0.64684000  1.0 -0.090359052
C  C203  1  0.75954000  0.96035000  0.74562000  1.0 0.0723204309
C  C204  1  0.70235000  0.08156000  0.59486000  1.0 -0.1583775589
C  C205  1  0.60411000  0.84101000  0.65375000  1.0 0.0790747752
C  C206  1  0.65166000  0.96415000  0.64476000  1.0 -0.2016769169
C  C207  1  0.76274000  0.92901000  0.80836000  1.0 -0.0984370537
C  C208  1  0.86357000  0.99109000  0.78210000  1.0 -0.1089569587
C  C209  1  0.72805000  0.02015000  0.68870000  1.0 -0.209066372
C  C210  1  0.68076000  0.90406000  0.69927000  1.0 -0.2016769169
C  C211  1  0.72807000  0.92904000  0.77534000  1.0 -0.1583775589
C  C212  1  0.82787000  0.99038000  0.74933000  1.0 -0.1507671799
C  C213  1  0.69117000  0.02351000  0.65534000  1.0 0.0790747752
C  C214  1  0.64554000  0.90450000  0.66611000  1.0 0.0790747752
C  C215  1  0.53782000  0.84753000  0.63626000  1.0 -0.1583775589
C  C216  1  0.63114000  0.77227000  0.65935000  1.0 -0.1507671799
C  C217  1  0.07270000  0.34220000  0.05830000  0.51 -0.5999805216
C  C218  1  0.92730000  0.65780000  0.05830000  0.51 -0.5999805216
C  C219  1  0.15780000  0.57270000  0.55830000  0.51 -0.5999805216
C  C220  1  0.84220000  0.42730000  0.55830000  0.51 -0.5999805216
C  C221  1  0.42730000  0.84220000  0.44170000  0.51 -0.5999805216
C  C222  1  0.57270000  0.15780000  0.44170000  0.51 -0.5999805216
C  C223  1  0.34220000  0.07270000  0.94170000  0.51 -0.5999805216
C  C224  1  0.65780000  0.92730000  0.94170000  0.51 -0.5999805216
O  O1  1  0.01885000  0.06877000  0.08069000  1.0 -1.0077433843
O  O2  1  0.06467000  0.16708000  0.12677000  1.0 -0.5718598886
O  O3  1  0.12426000  0.10752000  0.03564000  1.0 -0.980859812
O  O4  1  0.01871000  0.06828000  0.15243000  1.0 -0.5718598886
O  O5  1  0.66474000  0.29610000  0.41681000  1.0 -0.5798986761
O  O6  1  0.34049000  0.56900000  0.39725000  1.0 -0.5911795158
O  O7  1  0.40410000  0.47102000  0.38201000  1.0 -0.6059557904
O  O8  1  0.73152000  0.29705000  0.46669000  1.0 -0.5610208308
O  O9  1  0.02887000  0.20574000  0.06059000  1.0 -0.6594042141
O  O10  1  0.09434000  0.23768000  0.00944000  1.0 -0.645444553
O  O11  1  0.98115000  0.93123000  0.08069000  1.0 -1.0077433843
O  O12  1  0.93533000  0.83292000  0.12677000  1.0 -0.5610208308
O  O13  1  0.87574000  0.89248000  0.03564000  1.0 -0.980859812
O  O14  1  0.98129000  0.93172000  0.15243000  1.0 -0.5718598886
O  O15  1  0.33526000  0.70390000  0.41681000  1.0 -0.5798986761
O  O16  1  0.65951000  0.43100000  0.39725000  1.0 -0.5911795158
O  O17  1  0.59590000  0.52898000  0.38201000  1.0 -0.6059557904
O  O18  1  0.26848000  0.70295000  0.46669000  1.0 -0.5610208308
O  O19  1  0.97113000  0.79426000  0.06059000  1.0 -0.6594042141
O  O20  1  0.90566000  0.76232000  0.00944000  1.0 -0.645444553
O  O21  1  0.43123000  0.51885000  0.58069000  1.0 -1.0077433843
O  O22  1  0.33292000  0.56467000  0.62677000  1.0 -0.5718598886
O  O23  1  0.39248000  0.62426000  0.53564000  1.0 -0.980859812
O  O24  1  0.43172000  0.51871000  0.65243000  1.0 -0.5718598886
O  O25  1  0.20390000  0.16474000  0.91681000  1.0 -0.5798986761
O  O26  1  0.93100000  0.84049000  0.89725000  1.0 -0.5911795158
O  O27  1  0.02898000  0.90410000  0.88201000  1.0 -0.6059557904
O  O28  1  0.20295000  0.23152000  0.96669000  1.0 -0.5610208308
O  O29  1  0.29426000  0.52887000  0.56059000  1.0 -0.6594042141
O  O30  1  0.26232000  0.59434000  0.50944000  1.0 -0.645444553
O  O31  1  0.56877000  0.48115000  0.58069000  1.0 -1.0077433843
O  O32  1  0.66708000  0.43533000  0.62677000  1.0 -0.5610208308
O  O33  1  0.60752000  0.37574000  0.53564000  1.0 -0.980859812
O  O34  1  0.56828000  0.48129000  0.65243000  1.0 -0.5718598886
O  O35  1  0.79610000  0.83526000  0.91681000  1.0 -0.5798986761
O  O36  1  0.06900000  0.15951000  0.89725000  1.0 -0.5911795158
O  O37  1  0.97102000  0.09590000  0.88201000  1.0 -0.6059557904
O  O38  1  0.79705000  0.76848000  0.96669000  1.0 -0.5610208308
O  O39  1  0.70574000  0.47113000  0.56059000  1.0 -0.6594042141
O  O40  1  0.73768000  0.40566000  0.50944000  1.0 -0.645444553
O  O41  1  0.48115000  0.56877000  0.41931000  1.0 -1.0077433843
O  O42  1  0.43533000  0.66708000  0.37323000  1.0 -0.5718598886
O  O43  1  0.37574000  0.60752000  0.46436000  1.0 -0.980859812
O  O44  1  0.48129000  0.56828000  0.34757000  1.0 -0.5718598886
O  O45  1  0.83526000  0.79610000  0.08319000  1.0 -0.5798986761
O  O46  1  0.15951000  0.06900000  0.10275000  1.0 -0.5911795158
O  O47  1  0.09590000  0.97102000  0.11799000  1.0 -0.6059557904
O  O48  1  0.76848000  0.79705000  0.03331000  1.0 -0.5610208308
O  O49  1  0.47113000  0.70574000  0.43941000  1.0 -0.6594042141
O  O50  1  0.40566000  0.73768000  0.49056000  1.0 -0.645444553
O  O51  1  0.51885000  0.43123000  0.41931000  1.0 -1.0077433843
O  O52  1  0.56467000  0.33292000  0.37323000  1.0 -0.5718598886
O  O53  1  0.62426000  0.39248000  0.46436000  1.0 -0.980859812
O  O54  1  0.51871000  0.43172000  0.34757000  1.0 -0.5718598886
O  O55  1  0.16474000  0.20390000  0.08319000  1.0 -0.5798986761
O  O56  1  0.84049000  0.93100000  0.10275000  1.0 -0.5911795158
O  O57  1  0.90410000  0.02898000  0.11799000  1.0 -0.6059557904
O  O58  1  0.23152000  0.20295000  0.03331000  1.0 -0.5610208308
O  O59  1  0.52887000  0.29426000  0.43941000  1.0 -0.6594042141
O  O60  1  0.59434000  0.26232000  0.49056000  1.0 -0.645444553
O  O61  1  0.06877000  0.01885000  0.91931000  1.0 -1.0077433843
O  O62  1  0.16708000  0.06467000  0.87323000  1.0 -0.5718598886
O  O63  1  0.10752000  0.12426000  0.96436000  1.0 -0.980859812
O  O64  1  0.06828000  0.01871000  0.84757000  1.0 -0.5718598886
O  O65  1  0.29610000  0.66474000  0.58319000  1.0 -0.5798986761
O  O66  1  0.56900000  0.34049000  0.60275000  1.0 -0.5911795158
O  O67  1  0.47102000  0.40410000  0.61799000  1.0 -0.6059557904
O  O68  1  0.29705000  0.73152000  0.53331000  1.0 -0.5610208308
O  O69  1  0.20574000  0.02887000  0.93941000  1.0 -0.6594042141
O  O70  1  0.23768000  0.09434000  0.99056000  1.0 -0.645444553
O  O71  1  0.93123000  0.98115000  0.91931000  1.0 -1.0077433843
O  O72  1  0.83292000  0.93533000  0.87323000  1.0 -0.5610208308
O  O73  1  0.89248000  0.87574000  0.96436000  1.0 -0.980859812
O  O74  1  0.93172000  0.98129000  0.84757000  1.0 -0.5718598886
O  O75  1  0.70390000  0.33526000  0.58319000  1.0 -0.5798986761
O  O76  1  0.43100000  0.65951000  0.60275000  1.0 -0.5911795158
O  O77  1  0.52898000  0.59590000  0.61799000  1.0 -0.6059557904
O  O78  1  0.70295000  0.26848000  0.53331000  1.0 -0.5610208308
O  O79  1  0.79426000  0.97113000  0.93941000  1.0 -0.6594042141
O  O80  1  0.76232000  0.90566000  0.99056000  1.0 -0.645444553
O  O81  1  0.97310000  0.28380000  0.01528000  0.51 -0.5798986761
O  O82  1  0.02690000  0.71620000  0.01528000  0.51 -0.5718598886
O  O83  1  0.21620000  0.47310000  0.51528000  0.51 -0.5798986761
O  O84  1  0.78380000  0.52690000  0.51528000  0.51 -0.5798986761
O  O85  1  0.52690000  0.78380000  0.48472000  0.51 -0.5718598886
O  O86  1  0.47310000  0.21620000  0.48472000  0.51 -0.5718598886
O  O87  1  0.28380000  0.97310000  0.98472000  0.51 -0.5718598886
O  O88  1  0.71620000  0.02690000  0.98472000  0.51 -0.5798986761
