# generated by PACMAN-DDEC6 charge (https://github.com/sxm13/PACMAN/)
data_structure
_chemical_formula_sum              "Al16 P8 H176 C224 O88"
_cell_length_a       18.7104
_cell_length_b       18.7104
_cell_length_c       37.1528
_cell_angle_alpha    90
_cell_angle_beta     90
_cell_angle_gamma    90

_symmetry_space_group_name_H-M    "P 1"
_symmetry_Int_Tables_number       1

loop_
  _symmetry_equiv_pos_as_xyz
  'x, y, z'

loop_
  _atom_site_type_symbol
  _atom_site_label
  _atom_site_symmetry_multiplicity
  _atom_site_fract_x
  _atom_site_fract_y
  _atom_site_fract_z
  _atom_site_occupancy
  _atom_site_charge
Al  Al1       1.0  0.13403  0.90867  0.91934  1.0000 1.651596971
Al  Al2       1.0  0.86597  0.09133  0.91934  1.0000 1.651596971
Al  Al3       1.0  0.59133  0.63403  0.41934  1.0000 1.651596971
Al  Al4       1.0  0.40867  0.36597  0.41934  1.0000 1.651596971
Al  Al5       1.0  0.36597  0.40867  0.58066  1.0000 1.651596971
Al  Al6       1.0  0.63403  0.59133  0.58066  1.0000 1.651596971
Al  Al7       1.0  0.90867  0.13403  0.08066  1.0000 1.651596971
Al  Al8       1.0  0.09133  0.86597  0.08066  1.0000 1.651596971
Al  Al9       1.0  0.00000  0.00000  0.88430  1.0000 1.6431091355
Al  Al10      1.0  0.50000  0.50000  0.38430  1.0000 1.6431091355
Al  Al11      1.0  0.50000  0.50000  0.61570  1.0000 1.6431091355
Al  Al12      1.0  0.00000  0.00000  0.11570  1.0000 1.6431091355
Al  Al13      1.0  0.16379  0.83621  0.00000  1.0000 1.6837364959
Al  Al14      1.0  0.83621  0.16379  0.00000  1.0000 1.6837364959
Al  Al15      1.0  0.66379  0.66379  0.50000  1.0000 1.6837364959
Al  Al16      1.0  0.33621  0.33621  0.50000  1.0000 1.6837364959
P   P1        1.0  0.25555  0.95809  0.96628  1.0000 1.0020977037
P   P2        1.0  0.74445  0.04191  0.96628  1.0000 1.0020977037
P   P3        1.0  0.54191  0.75555  0.46628  1.0000 1.0020977037
P   P4        1.0  0.45809  0.24445  0.46628  1.0000 1.0020977037
P   P5        1.0  0.24445  0.45809  0.53372  1.0000 1.0020977037
P   P6        1.0  0.75555  0.54191  0.53372  1.0000 1.0020977037
P   P7        1.0  0.95809  0.25555  0.03372  1.0000 1.0020977037
P   P8        1.0  0.04191  0.74445  0.03372  1.0000 1.0020977037
H   H1        1.0  0.05748  0.87962  0.96965  1.0000 0.4221644143
H   H2        1.0  0.06839  0.01175  0.93958  1.0000 0.4221644143
H   H3        1.0  0.54099  0.79303  0.61091  1.0000 0.1204463059
H   H4        1.0  0.38253  0.66593  0.64935  1.0000 0.127836846
H   H5        1.0  0.29632  0.26091  0.63773  1.0000 0.127836846
H   H6        1.0  0.30112  0.15930  0.67280  1.0000 0.110967992
H   H7        1.0  0.29079  0.13955  0.54824  1.0000 0.1362245094
H   H8        1.0  0.24580  0.05972  0.69528  1.0000 0.110967992
H   H9        1.0  0.25583  0.90449  0.82776  1.0000 0.1362245094
H   H10       1.0  0.47794  0.89282  0.63067  1.0000 0.110967992
H   H11       1.0  0.29922  0.03722  0.58251  1.0000 0.110967992
H   H12       1.0  0.37427  0.96615  0.62121  1.0000 0.110967992
H   H13       1.0  0.09060  0.01284  0.78285  1.0000 0.127836846
H   H14       1.0  0.32314  0.86195  0.71269  1.0000 0.110967992
H   H15       1.0  0.14838  0.01079  0.72745  1.0000 0.110967992
H   H16       1.0  0.31526  0.90514  0.77209  1.0000 0.110967992
H   H17       1.0  0.32176  0.76555  0.66936  1.0000 0.110967992
H   H18       1.0  0.94252  0.12038  0.96965  1.0000 0.4221644143
H   H19       1.0  0.93161  0.98825  0.93958  1.0000 0.4221644143
H   H20       1.0  0.45901  0.20697  0.61091  1.0000 0.1204463059
H   H21       1.0  0.61747  0.33407  0.64935  1.0000 0.127836846
H   H22       1.0  0.70368  0.73909  0.63773  1.0000 0.127836846
H   H23       1.0  0.69888  0.84070  0.67280  1.0000 0.110967992
H   H24       1.0  0.70921  0.86045  0.54824  1.0000 0.1362245094
H   H25       1.0  0.75420  0.94028  0.69528  1.0000 0.110967992
H   H26       1.0  0.74417  0.09551  0.82776  1.0000 0.1362245094
H   H27       1.0  0.52206  0.10718  0.63067  1.0000 0.110967992
H   H28       1.0  0.70078  0.96278  0.58251  1.0000 0.110967992
H   H29       1.0  0.62573  0.03385  0.62121  1.0000 0.110967992
H   H30       1.0  0.90940  0.98716  0.78285  1.0000 0.127836846
H   H31       1.0  0.67686  0.13805  0.71269  1.0000 0.110967992
H   H32       1.0  0.85162  0.98921  0.72745  1.0000 0.110967992
H   H33       1.0  0.68474  0.09486  0.77209  1.0000 0.110967992
H   H34       1.0  0.67824  0.23445  0.66936  1.0000 0.110967992
H   H35       1.0  0.62038  0.55748  0.46965  1.0000 0.4221644143
H   H36       1.0  0.48825  0.56839  0.43958  1.0000 0.4221644143
H   H37       1.0  0.70697  0.04099  0.11091  1.0000 0.1204463059
H   H38       1.0  0.83407  0.88253  0.14935  1.0000 0.127836846
H   H39       1.0  0.23909  0.79632  0.13773  1.0000 0.127836846
H   H40       1.0  0.34070  0.80112  0.17280  1.0000 0.110967992
H   H41       1.0  0.36045  0.79079  0.04824  1.0000 0.1362245094
H   H42       1.0  0.44028  0.74580  0.19528  1.0000 0.110967992
H   H43       1.0  0.59551  0.75583  0.32776  1.0000 0.1362245094
H   H44       1.0  0.60718  0.97794  0.13067  1.0000 0.110967992
H   H45       1.0  0.46278  0.79922  0.08251  1.0000 0.110967992
H   H46       1.0  0.53385  0.87427  0.12121  1.0000 0.110967992
H   H47       1.0  0.48716  0.59060  0.28285  1.0000 0.127836846
H   H48       1.0  0.63805  0.82314  0.21269  1.0000 0.110967992
H   H49       1.0  0.48921  0.64838  0.22745  1.0000 0.110967992
H   H50       1.0  0.59486  0.81526  0.27209  1.0000 0.110967992
H   H51       1.0  0.73445  0.82176  0.16936  1.0000 0.110967992
H   H52       1.0  0.37962  0.44252  0.46965  1.0000 0.4221644143
H   H53       1.0  0.51175  0.43161  0.43958  1.0000 0.4221644143
H   H54       1.0  0.29303  0.95901  0.11091  1.0000 0.1204463059
H   H55       1.0  0.16593  0.11747  0.14935  1.0000 0.127836846
H   H56       1.0  0.76091  0.20368  0.13773  1.0000 0.127836846
H   H57       1.0  0.65930  0.19888  0.17280  1.0000 0.110967992
H   H58       1.0  0.63955  0.20921  0.04824  1.0000 0.1362245094
H   H59       1.0  0.55972  0.25420  0.19528  1.0000 0.110967992
H   H60       1.0  0.40449  0.24417  0.32776  1.0000 0.1362245094
H   H61       1.0  0.39282  0.02206  0.13067  1.0000 0.110967992
H   H62       1.0  0.53722  0.20078  0.08251  1.0000 0.110967992
H   H63       1.0  0.46615  0.12573  0.12121  1.0000 0.110967992
H   H64       1.0  0.51284  0.40940  0.28285  1.0000 0.127836846
H   H65       1.0  0.36195  0.17686  0.21269  1.0000 0.110967992
H   H66       1.0  0.51079  0.35162  0.22745  1.0000 0.110967992
H   H67       1.0  0.40514  0.18474  0.27209  1.0000 0.110967992
H   H68       1.0  0.26555  0.17824  0.16936  1.0000 0.110967992
H   H69       1.0  0.44252  0.37962  0.53035  1.0000 0.4221644143
H   H70       1.0  0.43161  0.51175  0.56042  1.0000 0.4221644143
H   H71       1.0  0.95901  0.29303  0.88909  1.0000 0.1204463059
H   H72       1.0  0.11747  0.16593  0.85065  1.0000 0.127836846
H   H73       1.0  0.20368  0.76091  0.86227  1.0000 0.127836846
H   H74       1.0  0.19888  0.65930  0.82720  1.0000 0.110967992
H   H75       1.0  0.20921  0.63955  0.95176  1.0000 0.1362245094
H   H76       1.0  0.25420  0.55972  0.80472  1.0000 0.110967992
H   H77       1.0  0.24417  0.40449  0.67224  1.0000 0.1362245094
H   H78       1.0  0.02206  0.39282  0.86933  1.0000 0.110967992
H   H79       1.0  0.20078  0.53722  0.91749  1.0000 0.110967992
H   H80       1.0  0.12573  0.46615  0.87879  1.0000 0.110967992
H   H81       1.0  0.40940  0.51284  0.71715  1.0000 0.127836846
H   H82       1.0  0.17686  0.36195  0.78731  1.0000 0.110967992
H   H83       1.0  0.35162  0.51079  0.77255  1.0000 0.110967992
H   H84       1.0  0.18474  0.40514  0.72791  1.0000 0.110967992
H   H85       1.0  0.17824  0.26555  0.83064  1.0000 0.110967992
H   H86       1.0  0.55748  0.62038  0.53035  1.0000 0.4221644143
H   H87       1.0  0.56839  0.48825  0.56042  1.0000 0.4221644143
H   H88       1.0  0.04099  0.70697  0.88909  1.0000 0.1204463059
H   H89       1.0  0.88253  0.83407  0.85065  1.0000 0.127836846
H   H90       1.0  0.79632  0.23909  0.86227  1.0000 0.127836846
H   H91       1.0  0.80112  0.34070  0.82720  1.0000 0.110967992
H   H92       1.0  0.79079  0.36045  0.95176  1.0000 0.1362245094
H   H93       1.0  0.74580  0.44028  0.80472  1.0000 0.110967992
H   H94       1.0  0.75583  0.59551  0.67224  1.0000 0.1362245094
H   H95       1.0  0.97794  0.60718  0.86933  1.0000 0.110967992
H   H96       1.0  0.79922  0.46278  0.91749  1.0000 0.110967992
H   H97       1.0  0.87427  0.53385  0.87879  1.0000 0.110967992
H   H98       1.0  0.59060  0.48716  0.71715  1.0000 0.127836846
H   H99       1.0  0.82314  0.63805  0.78731  1.0000 0.110967992
H   H100      1.0  0.64838  0.48921  0.77255  1.0000 0.110967992
H   H101      1.0  0.81526  0.59486  0.72791  1.0000 0.110967992
H   H102      1.0  0.82176  0.73445  0.83064  1.0000 0.110967992
H   H103      1.0  0.87962  0.05748  0.03035  1.0000 0.4221644143
H   H104      1.0  0.01175  0.06839  0.06042  1.0000 0.4221644143
H   H105      1.0  0.79303  0.54099  0.38909  1.0000 0.1204463059
H   H106      1.0  0.66593  0.38253  0.35065  1.0000 0.127836846
H   H107      1.0  0.26091  0.29632  0.36227  1.0000 0.127836846
H   H108      1.0  0.15930  0.30112  0.32720  1.0000 0.110967992
H   H109      1.0  0.13955  0.29079  0.45176  1.0000 0.1362245094
H   H110      1.0  0.05972  0.24580  0.30472  1.0000 0.110967992
H   H111      1.0  0.90449  0.25583  0.17224  1.0000 0.1362245094
H   H112      1.0  0.89282  0.47794  0.36933  1.0000 0.110967992
H   H113      1.0  0.03722  0.29922  0.41749  1.0000 0.110967992
H   H114      1.0  0.96615  0.37427  0.37879  1.0000 0.110967992
H   H115      1.0  0.01284  0.09060  0.21715  1.0000 0.127836846
H   H116      1.0  0.86195  0.32314  0.28731  1.0000 0.110967992
H   H117      1.0  0.01079  0.14838  0.27255  1.0000 0.110967992
H   H118      1.0  0.90514  0.31526  0.22791  1.0000 0.110967992
H   H119      1.0  0.76555  0.32176  0.33064  1.0000 0.110967992
H   H120      1.0  0.12038  0.94252  0.03035  1.0000 0.4221644143
H   H121      1.0  0.98825  0.93161  0.06042  1.0000 0.4221644143
H   H122      1.0  0.20697  0.45901  0.38909  1.0000 0.1204463059
H   H123      1.0  0.33407  0.61747  0.35065  1.0000 0.127836846
H   H124      1.0  0.73909  0.70368  0.36227  1.0000 0.127836846
H   H125      1.0  0.84070  0.69888  0.32720  1.0000 0.110967992
H   H126      1.0  0.86045  0.70921  0.45176  1.0000 0.1362245094
H   H127      1.0  0.94028  0.75420  0.30472  1.0000 0.110967992
H   H128      1.0  0.09551  0.74417  0.17224  1.0000 0.1362245094
H   H129      1.0  0.10718  0.52206  0.36933  1.0000 0.110967992
H   H130      1.0  0.96278  0.70078  0.41749  1.0000 0.110967992
H   H131      1.0  0.03385  0.62573  0.37879  1.0000 0.110967992
H   H132      1.0  0.98716  0.90940  0.21715  1.0000 0.127836846
H   H133      1.0  0.13805  0.67686  0.28731  1.0000 0.110967992
H   H134      1.0  0.98921  0.85162  0.27255  1.0000 0.110967992
H   H135      1.0  0.09486  0.68474  0.22791  1.0000 0.110967992
H   H136      1.0  0.23445  0.67824  0.33064  1.0000 0.110967992
H   H137      1.0  0.29892  0.98425  0.96808  0.4900 0.110967992
H   H138      1.0  0.70108  0.01575  0.96808  0.4900 0.110967992
H   H139      1.0  0.51575  0.79892  0.46808  0.4900 0.110967992
H   H140      1.0  0.48425  0.20108  0.46808  0.4900 0.110967992
H   H141      1.0  0.20108  0.48425  0.53192  0.4900 0.110967992
H   H142      1.0  0.79892  0.51575  0.53192  0.4900 0.110967992
H   H143      1.0  0.98425  0.29892  0.03192  0.4900 0.110967992
H   H144      1.0  0.01575  0.70108  0.03192  0.4900 0.110967992
H   H145      1.0  0.28245  0.06075  0.96971  0.5100 0.3481631839
H   H146      1.0  0.33429  0.93358  0.91699  0.5100 0.1653864162
H   H147      1.0  0.36344  0.89491  0.95250  0.5100 0.1600641089
H   H148      1.0  0.37588  0.97881  0.94696  0.5100 0.1204463059
H   H149      1.0  0.71755  0.93925  0.96971  0.5100 0.3481631839
H   H150      1.0  0.66571  0.06642  0.91699  0.5100 0.1653864162
H   H151      1.0  0.63656  0.10509  0.95250  0.5100 0.1600641089
H   H152      1.0  0.62412  0.02119  0.94696  0.5100 0.1204463059
H   H153      1.0  0.43925  0.78245  0.46971  0.5100 0.3481631839
H   H154      1.0  0.56642  0.83429  0.41699  0.5100 0.1653864162
H   H155      1.0  0.60509  0.86344  0.45250  0.5100 0.1600641089
H   H156      1.0  0.52119  0.87588  0.44696  0.5100 0.1204463059
H   H157      1.0  0.56075  0.21755  0.46971  0.5100 0.3481631839
H   H158      1.0  0.43358  0.16571  0.41699  0.5100 0.1653864162
H   H159      1.0  0.39491  0.13656  0.45250  0.5100 0.1600641089
H   H160      1.0  0.47881  0.12412  0.44696  0.5100 0.1204463059
H   H161      1.0  0.21755  0.56075  0.53029  0.5100 0.3481631839
H   H162      1.0  0.16571  0.43358  0.58301  0.5100 0.1653864162
H   H163      1.0  0.13656  0.39491  0.54750  0.5100 0.1600641089
H   H164      1.0  0.12412  0.47881  0.55304  0.5100 0.1204463059
H   H165      1.0  0.78245  0.43925  0.53029  0.5100 0.3481631839
H   H166      1.0  0.83429  0.56642  0.58301  0.5100 0.1653864162
H   H167      1.0  0.86344  0.60509  0.54750  0.5100 0.1600641089
H   H168      1.0  0.87588  0.52119  0.55304  0.5100 0.1204463059
H   H169      1.0  0.06075  0.28245  0.03029  0.5100 0.3481631839
H   H170      1.0  0.93358  0.33429  0.08301  0.5100 0.1653864162
H   H171      1.0  0.89491  0.36344  0.04750  0.5100 0.1600641089
H   H172      1.0  0.97881  0.37588  0.05304  0.5100 0.1204463059
H   H173      1.0  0.93925  0.71755  0.03029  0.5100 0.3481631839
H   H174      1.0  0.06642  0.66571  0.08301  0.5100 0.1653864162
H   H175      1.0  0.10509  0.63656  0.04750  0.5100 0.1600641089
H   H176      1.0  0.02119  0.62412  0.05304  0.5100 0.1204463059
C   C1        1.0  0.12989  0.95863  0.84618  1.0000 0.6168052804
C   C2        1.0  0.29229  0.20970  0.58906  1.0000 -0.0469132623
C   C3        1.0  0.29586  0.27596  0.56731  1.0000 0.6168052804
C   C4        1.0  0.49619  0.78732  0.62260  1.0000 -0.0909150067
C   C5        1.0  0.50535  0.65345  0.61537  1.0000 0.6168052804
C   C6        1.0  0.40222  0.71211  0.64552  1.0000 -0.0961522146
C   C7        1.0  0.29616  0.21517  0.62663  1.0000 -0.0909150067
C   C8        1.0  0.16805  0.95878  0.81077  1.0000 -0.0405962931
C   C9        1.0  0.30123  0.08656  0.63140  1.0000 0.0698116964
C   C10       1.0  0.39409  0.83953  0.65187  1.0000 0.0764586164
C   C11       1.0  0.29969  0.15503  0.64733  1.0000 -0.1564989206
C   C12       1.0  0.46765  0.71905  0.62789  1.0000 -0.0405962931
C   C13       1.0  0.23888  0.95823  0.74429  1.0000 0.0698116964
C   C14       1.0  0.29337  0.14351  0.57370  1.0000 -0.0849237068
C   C15       1.0  0.27231  0.01939  0.68733  1.0000 -0.1981104685
C   C16       1.0  0.23425  0.92667  0.80749  1.0000 -0.0961522146
C   C17       1.0  0.45869  0.84647  0.63453  1.0000 -0.1498773953
C   C18       1.0  0.29809  0.08254  0.59402  1.0000 -0.1564989206
C   C19       1.0  0.34856  0.96430  0.64324  1.0000 -0.2118995113
C   C20       1.0  0.13607  0.99067  0.78067  1.0000 -0.108234125
C   C21       1.0  0.27569  0.95903  0.70902  1.0000 0.0764586164
C   C22       1.0  0.35206  0.90319  0.66522  1.0000 0.0764586164
C   C23       1.0  0.31793  0.90247  0.69751  1.0000 -0.1981104685
C   C24       1.0  0.30692  0.02209  0.65417  1.0000 0.0764586164
C   C25       1.0  0.17068  0.98985  0.74786  1.0000 -0.1498773953
C   C26       1.0  0.26956  0.92689  0.77413  1.0000 -0.1564989206
C   C27       1.0  0.36621  0.77109  0.65732  1.0000 -0.1498773953
C   C28       1.0  0.87011  0.04137  0.84618  1.0000 0.6168052804
C   C29       1.0  0.70771  0.79030  0.58906  1.0000 -0.0469132623
C   C30       1.0  0.70414  0.72404  0.56731  1.0000 0.6168052804
C   C31       1.0  0.50381  0.21268  0.62260  1.0000 -0.0909150067
C   C32       1.0  0.49465  0.34655  0.61537  1.0000 0.6168052804
C   C33       1.0  0.59778  0.28789  0.64552  1.0000 -0.0961522146
C   C34       1.0  0.70384  0.78483  0.62663  1.0000 -0.0909150067
C   C35       1.0  0.83195  0.04122  0.81077  1.0000 -0.0405962931
C   C36       1.0  0.69877  0.91344  0.63140  1.0000 0.0698116964
C   C37       1.0  0.60591  0.16047  0.65187  1.0000 0.0764586164
C   C38       1.0  0.70031  0.84497  0.64733  1.0000 -0.1564989206
C   C39       1.0  0.53235  0.28095  0.62789  1.0000 -0.0405962931
C   C40       1.0  0.76112  0.04177  0.74429  1.0000 0.0698116964
C   C41       1.0  0.70663  0.85649  0.57370  1.0000 -0.0849237068
C   C42       1.0  0.72769  0.98061  0.68733  1.0000 -0.1981104685
C   C43       1.0  0.76575  0.07333  0.80749  1.0000 -0.0961522146
C   C44       1.0  0.54131  0.15353  0.63453  1.0000 -0.1498773953
C   C45       1.0  0.70191  0.91746  0.59402  1.0000 -0.1564989206
C   C46       1.0  0.65144  0.03570  0.64324  1.0000 -0.2118995113
C   C47       1.0  0.86393  0.00933  0.78067  1.0000 -0.108234125
C   C48       1.0  0.72431  0.04097  0.70902  1.0000 0.0764586164
C   C49       1.0  0.64794  0.09681  0.66522  1.0000 0.0764586164
C   C50       1.0  0.68207  0.09753  0.69751  1.0000 -0.1981104685
C   C51       1.0  0.69308  0.97791  0.65417  1.0000 0.0764586164
C   C52       1.0  0.82932  0.01015  0.74786  1.0000 -0.1498773953
C   C53       1.0  0.73044  0.07311  0.77413  1.0000 -0.1564989206
C   C54       1.0  0.63379  0.22891  0.65732  1.0000 -0.1498773953
C   C55       1.0  0.54137  0.62989  0.34618  1.0000 0.6168052804
C   C56       1.0  0.29030  0.79229  0.08906  1.0000 -0.0469132623
C   C57       1.0  0.22404  0.79586  0.06731  1.0000 0.6168052804
C   C58       1.0  0.71268  0.99619  0.12260  1.0000 -0.0909150067
C   C59       1.0  0.84655  0.00535  0.11537  1.0000 0.6168052804
C   C60       1.0  0.78789  0.90222  0.14552  1.0000 -0.0961522146
C   C61       1.0  0.28483  0.79616  0.12663  1.0000 -0.0909150067
C   C62       1.0  0.54122  0.66805  0.31077  1.0000 -0.0405962931
C   C63       1.0  0.41344  0.80123  0.13140  1.0000 0.0698116964
C   C64       1.0  0.66047  0.89409  0.15187  1.0000 0.0764586164
C   C65       1.0  0.34497  0.79969  0.14733  1.0000 -0.1564989206
C   C66       1.0  0.78095  0.96765  0.12789  1.0000 -0.0405962931
C   C67       1.0  0.54177  0.73888  0.24429  1.0000 0.0698116964
C   C68       1.0  0.35649  0.79337  0.07370  1.0000 -0.0849237068
C   C69       1.0  0.48061  0.77231  0.18733  1.0000 -0.1981104685
C   C70       1.0  0.57333  0.73425  0.30749  1.0000 -0.0961522146
C   C71       1.0  0.65353  0.95869  0.13453  1.0000 -0.1498773953
C   C72       1.0  0.41746  0.79809  0.09402  1.0000 -0.1564989206
C   C73       1.0  0.53570  0.84856  0.14324  1.0000 -0.2118995113
C   C74       1.0  0.50933  0.63607  0.28067  1.0000 -0.108234125
C   C75       1.0  0.54097  0.77569  0.20902  1.0000 0.0764586164
C   C76       1.0  0.59681  0.85206  0.16522  1.0000 0.0764586164
C   C77       1.0  0.59753  0.81793  0.19751  1.0000 -0.1981104685
C   C78       1.0  0.47791  0.80692  0.15417  1.0000 0.0764586164
C   C79       1.0  0.51015  0.67068  0.24786  1.0000 -0.1498773953
C   C80       1.0  0.57311  0.76956  0.27413  1.0000 -0.1564989206
C   C81       1.0  0.72891  0.86621  0.15732  1.0000 -0.1498773953
C   C82       1.0  0.45863  0.37011  0.34618  1.0000 0.6168052804
C   C83       1.0  0.70970  0.20771  0.08906  1.0000 -0.0469132623
C   C84       1.0  0.77596  0.20414  0.06731  1.0000 0.6168052804
C   C85       1.0  0.28732  0.00381  0.12260  1.0000 -0.0909150067
C   C86       1.0  0.15345  0.99465  0.11537  1.0000 0.6168052804
C   C87       1.0  0.21211  0.09778  0.14552  1.0000 -0.0961522146
C   C88       1.0  0.71517  0.20384  0.12663  1.0000 -0.0909150067
C   C89       1.0  0.45878  0.33195  0.31077  1.0000 -0.0405962931
C   C90       1.0  0.58656  0.19877  0.13140  1.0000 0.0698116964
C   C91       1.0  0.33953  0.10591  0.15187  1.0000 0.0764586164
C   C92       1.0  0.65503  0.20031  0.14733  1.0000 -0.1564989206
C   C93       1.0  0.21905  0.03235  0.12789  1.0000 -0.0405962931
C   C94       1.0  0.45823  0.26112  0.24429  1.0000 0.0698116964
C   C95       1.0  0.64351  0.20663  0.07370  1.0000 -0.0909150067
C   C96       1.0  0.51939  0.22769  0.18733  1.0000 -0.1981104685
C   C97       1.0  0.42667  0.26575  0.30749  1.0000 -0.0961522146
C   C98       1.0  0.34647  0.04131  0.13453  1.0000 -0.1498773953
C   C99       1.0  0.58254  0.20191  0.09402  1.0000 -0.1564989206
C   C100      1.0  0.46430  0.15144  0.14324  1.0000 -0.2118995113
C   C101      1.0  0.49067  0.36393  0.28067  1.0000 -0.108234125
C   C102      1.0  0.45903  0.22431  0.20902  1.0000 0.0764586164
C   C103      1.0  0.40319  0.14794  0.16522  1.0000 0.0764586164
C   C104      1.0  0.40247  0.18207  0.19751  1.0000 -0.1981104685
C   C105      1.0  0.52209  0.19308  0.15417  1.0000 0.0764586164
C   C106      1.0  0.48985  0.32932  0.24786  1.0000 -0.1498773953
C   C107      1.0  0.42689  0.23044  0.27413  1.0000 -0.1564989206
C   C108      1.0  0.27109  0.13379  0.15732  1.0000 -0.1498773953
C   C109      1.0  0.37011  0.45863  0.65382  1.0000 0.6168052804
C   C110      1.0  0.20771  0.70970  0.91094  1.0000 -0.0469132623
C   C111      1.0  0.20414  0.77596  0.93269  1.0000 0.6168052804
C   C112      1.0  0.00381  0.28732  0.87740  1.0000 -0.0909150067
C   C113      1.0  0.99465  0.15345  0.88463  1.0000 0.6168052804
C   C114      1.0  0.09778  0.21211  0.85448  1.0000 -0.0961522146
C   C115      1.0  0.20384  0.71517  0.87337  1.0000 -0.0909150067
C   C116      1.0  0.33195  0.45878  0.68923  1.0000 -0.0405962931
C   C117      1.0  0.19877  0.58656  0.86860  1.0000 0.0698116964
C   C118      1.0  0.10591  0.33953  0.84813  1.0000 0.0764586164
C   C119      1.0  0.20031  0.65503  0.85267  1.0000 -0.1564989206
C   C120      1.0  0.03235  0.21905  0.87211  1.0000 -0.0405962931
C   C121      1.0  0.26112  0.45823  0.75571  1.0000 0.0698116964
C   C122      1.0  0.20663  0.64351  0.92630  1.0000 -0.0849237068
C   C123      1.0  0.22769  0.51939  0.81267  1.0000 -0.1981104685
C   C124      1.0  0.26575  0.42667  0.69251  1.0000 -0.0961522146
C   C125      1.0  0.04131  0.34647  0.86547  1.0000 -0.1498773953
C   C126      1.0  0.20191  0.58254  0.90598  1.0000 -0.1564989206
C   C127      1.0  0.15144  0.46430  0.85676  1.0000 -0.2118995113
C   C128      1.0  0.36393  0.49067  0.71933  1.0000 -0.108234125
C   C129      1.0  0.22431  0.45903  0.79098  1.0000 0.0764586164
C   C130      1.0  0.14794  0.40319  0.83478  1.0000 0.0764586164
C   C131      1.0  0.18207  0.40247  0.80249  1.0000 -0.1981104685
C   C132      1.0  0.19308  0.52209  0.84583  1.0000 0.0764586164
C   C133      1.0  0.32932  0.48985  0.75214  1.0000 -0.1498773953
C   C134      1.0  0.23044  0.42689  0.72587  1.0000 -0.1564989206
C   C135      1.0  0.13379  0.27109  0.84268  1.0000 -0.1498773953
C   C136      1.0  0.62989  0.54137  0.65382  1.0000 0.6168052804
C   C137      1.0  0.79229  0.29030  0.91094  1.0000 -0.0469132623
C   C138      1.0  0.79586  0.22404  0.93269  1.0000 0.6168052804
C   C139      1.0  0.99619  0.71268  0.87740  1.0000 -0.0909150067
C   C140      1.0  0.00535  0.84655  0.88463  1.0000 0.6168052804
C   C141      1.0  0.90222  0.78789  0.85448  1.0000 -0.0961522146
C   C142      1.0  0.79616  0.28483  0.87337  1.0000 -0.0909150067
C   C143      1.0  0.66805  0.54122  0.68923  1.0000 -0.0405962931
C   C144      1.0  0.80123  0.41344  0.86860  1.0000 0.0698116964
C   C145      1.0  0.89409  0.66047  0.84813  1.0000 0.0764586164
C   C146      1.0  0.79969  0.34497  0.85267  1.0000 -0.1564989206
C   C147      1.0  0.96765  0.78095  0.87211  1.0000 -0.0405962931
C   C148      1.0  0.73888  0.54177  0.75571  1.0000 0.0698116964
C   C149      1.0  0.79337  0.35649  0.92630  1.0000 -0.0849237068
C   C150      1.0  0.77231  0.48061  0.81267  1.0000 -0.1981104685
C   C151      1.0  0.73425  0.57333  0.69251  1.0000 -0.0961522146
C   C152      1.0  0.95869  0.65353  0.86547  1.0000 -0.1498773953
C   C153      1.0  0.79809  0.41746  0.90598  1.0000 -0.1564989206
C   C154      1.0  0.84856  0.53570  0.85676  1.0000 -0.2118995113
C   C155      1.0  0.63607  0.50933  0.71933  1.0000 -0.108234125
C   C156      1.0  0.77569  0.54097  0.79098  1.0000 0.0764586164
C   C157      1.0  0.85206  0.59681  0.83478  1.0000 0.0764586164
C   C158      1.0  0.81793  0.59753  0.80249  1.0000 -0.1981104685
C   C159      1.0  0.80692  0.47791  0.84583  1.0000 0.0764586164
C   C160      1.0  0.67068  0.51015  0.75214  1.0000 -0.1498773953
C   C161      1.0  0.76956  0.57311  0.72587  1.0000 -0.1564989206
C   C162      1.0  0.86621  0.72891  0.84268  1.0000 -0.1498773953
C   C163      1.0  0.95863  0.12989  0.15382  1.0000 0.6168052804
C   C164      1.0  0.20970  0.29229  0.41094  1.0000 -0.0469132623
C   C165      1.0  0.27596  0.29586  0.43269  1.0000 0.6168052804
C   C166      1.0  0.78732  0.49619  0.37740  1.0000 -0.0909150067
C   C167      1.0  0.65345  0.50535  0.38463  1.0000 0.6168052804
C   C168      1.0  0.71211  0.40222  0.35448  1.0000 -0.0961522146
C   C169      1.0  0.21517  0.29616  0.37337  1.0000 -0.0909150067
C   C170      1.0  0.95878  0.16805  0.18923  1.0000 -0.0405962931
C   C171      1.0  0.08656  0.30123  0.36860  1.0000 0.0698116964
C   C172      1.0  0.83953  0.39409  0.34813  1.0000 0.0764586164
C   C173      1.0  0.15503  0.29969  0.35267  1.0000 -0.1564989206
C   C174      1.0  0.71905  0.46765  0.37211  1.0000 -0.0405962931
C   C175      1.0  0.95823  0.23888  0.25571  1.0000 0.0698116964
C   C176      1.0  0.14351  0.29337  0.42630  1.0000 -0.0909150067
C   C177      1.0  0.01939  0.27231  0.31267  1.0000 -0.1981104685
C   C178      1.0  0.92667  0.23425  0.19251  1.0000 -0.0961522146
C   C179      1.0  0.84647  0.45869  0.36547  1.0000 -0.1498773953
C   C180      1.0  0.08254  0.29809  0.40598  1.0000 -0.1564989206
C   C181      1.0  0.96430  0.34856  0.35676  1.0000 -0.2118995113
C   C182      1.0  0.99067  0.13607  0.21933  1.0000 -0.108234125
C   C183      1.0  0.95903  0.27569  0.29098  1.0000 0.0764586164
C   C184      1.0  0.90319  0.35206  0.33478  1.0000 0.0764586164
C   C185      1.0  0.90247  0.31793  0.30249  1.0000 -0.1981104685
C   C186      1.0  0.02209  0.30692  0.34583  1.0000 0.0764586164
C   C187      1.0  0.98985  0.17068  0.25214  1.0000 -0.1498773953
C   C188      1.0  0.92689  0.26956  0.22587  1.0000 -0.1564989206
C   C189      1.0  0.77109  0.36621  0.34268  1.0000 -0.1498773953
C   C190      1.0  0.04137  0.87011  0.15382  1.0000 0.6168052804
C   C191      1.0  0.79030  0.70771  0.41094  1.0000 -0.0469132623
C   C192      1.0  0.72404  0.70414  0.43269  1.0000 0.6168052804
C   C193      1.0  0.21268  0.50381  0.37740  1.0000 -0.0909150067
C   C194      1.0  0.34655  0.49465  0.38463  1.0000 0.6168052804
C   C195      1.0  0.28789  0.59778  0.35448  1.0000 -0.0961522146
C   C196      1.0  0.78483  0.70384  0.37337  1.0000 -0.0909150067
C   C197      1.0  0.04122  0.83195  0.18923  1.0000 -0.0405962931
C   C198      1.0  0.91344  0.69877  0.36860  1.0000 0.0698116964
C   C199      1.0  0.16047  0.60591  0.34813  1.0000 0.0764586164
C   C200      1.0  0.84497  0.70031  0.35267  1.0000 -0.1564989206
C   C201      1.0  0.28095  0.53235  0.37211  1.0000 -0.0405962931
C   C202      1.0  0.04177  0.76112  0.25571  1.0000 0.0698116964
C   C203      1.0  0.85649  0.70663  0.42630  1.0000 -0.0849237068
C   C204      1.0  0.98061  0.72769  0.31267  1.0000 -0.1981104685
C   C205      1.0  0.07333  0.76575  0.19251  1.0000 -0.0961522146
C   C206      1.0  0.15353  0.54131  0.36547  1.0000 -0.1498773953
C   C207      1.0  0.91746  0.70191  0.40598  1.0000 -0.1564989206
C   C208      1.0  0.03570  0.65144  0.35676  1.0000 -0.2118995113
C   C209      1.0  0.00933  0.86393  0.21933  1.0000 -0.108234125
C   C210      1.0  0.04097  0.72431  0.29098  1.0000 0.0764586164
C   C211      1.0  0.09681  0.64794  0.33478  1.0000 0.0764586164
C   C212      1.0  0.09753  0.68207  0.30249  1.0000 -0.1981104685
C   C213      1.0  0.97791  0.69308  0.34583  1.0000 0.0764586164
C   C214      1.0  0.01015  0.82932  0.25214  1.0000 -0.1498773953
C   C215      1.0  0.07311  0.73044  0.22587  1.0000 -0.1564989206
C   C216      1.0  0.22891  0.63379  0.34268  1.0000 -0.1498773953
C   C217      1.0  0.34270  0.93910  0.94290  0.5100 -0.5992446801
C   C218      1.0  0.65730  0.06090  0.94290  0.5100 -0.5992446801
C   C219      1.0  0.56090  0.84270  0.44290  0.5100 -0.5992446801
C   C220      1.0  0.43910  0.15730  0.44290  0.5100 -0.5992446801
C   C221      1.0  0.15730  0.43910  0.55710  0.5100 -0.5992446801
C   C222      1.0  0.84270  0.56090  0.55710  0.5100 -0.5992446801
C   C223      1.0  0.93910  0.34270  0.05710  0.5100 -0.5992446801
C   C224      1.0  0.06090  0.65730  0.05710  0.5100 -0.5992446801
O   O1        1.0  0.10694  0.87579  0.96419  1.0000 -0.9839333965
O   O2        1.0  0.06789  0.98072  0.91934  1.0000 -1.0081417633
O   O3        1.0  0.06780  0.98172  0.84678  1.0000 -0.5610232277
O   O4        1.0  0.16484  0.93419  0.87231  1.0000 -0.5610232277
O   O5        1.0  0.29816  0.33480  0.58386  1.0000 -0.5820215715
O   O6        1.0  0.56776  0.65952  0.60316  1.0000 -0.5867449491
O   O7        1.0  0.20420  0.97077  0.93844  1.0000 -0.6859843208
O   O8        1.0  0.47043  0.59574  0.61855  1.0000 -0.5992446801
O   O9        1.0  0.29667  0.26961  0.53354  1.0000 -0.5610232277
O   O10       1.0  0.23706  0.90464  0.99044  1.0000 -0.6479787005
O   O11       1.0  0.89306  0.12421  0.96419  1.0000 -0.9839333965
O   O12       1.0  0.93211  0.01928  0.91934  1.0000 -1.0081417633
O   O13       1.0  0.93220  0.01828  0.84678  1.0000 -0.5610232277
O   O14       1.0  0.83516  0.06581  0.87231  1.0000 -0.5610232277
O   O15       1.0  0.70184  0.66520  0.58386  1.0000 -0.5820215715
O   O16       1.0  0.43224  0.34048  0.60316  1.0000 -0.5867449491
O   O17       1.0  0.79580  0.02923  0.93844  1.0000 -0.6859843208
O   O18       1.0  0.52957  0.40426  0.61855  1.0000 -0.5992446801
O   O19       1.0  0.70333  0.73039  0.53354  1.0000 -0.5610232277
O   O20       1.0  0.76294  0.09536  0.99044  1.0000 -0.6479787005
O   O21       1.0  0.62421  0.60694  0.46419  1.0000 -0.9839333965
O   O22       1.0  0.51928  0.56789  0.41934  1.0000 -1.0081417633
O   O23       1.0  0.51828  0.56780  0.34678  1.0000 -0.5610232277
O   O24       1.0  0.56581  0.66484  0.37231  1.0000 -0.5610232277
O   O25       1.0  0.16520  0.79816  0.08386  1.0000 -0.5820215715
O   O26       1.0  0.84048  0.06776  0.10316  1.0000 -0.5867449491
O   O27       1.0  0.52923  0.70420  0.43844  1.0000 -0.6859843208
O   O28       1.0  0.90426  0.97043  0.11855  1.0000 -0.5992446801
O   O29       1.0  0.23039  0.79667  0.03354  1.0000 -0.5610232277
O   O30       1.0  0.59536  0.73706  0.49044  1.0000 -0.6479787005
O   O31       1.0  0.37579  0.39306  0.46419  1.0000 -0.9839333965
O   O32       1.0  0.48072  0.43211  0.41934  1.0000 -1.0081417633
O   O33       1.0  0.48172  0.43220  0.34678  1.0000 -0.5610232277
O   O34       1.0  0.43419  0.33516  0.37231  1.0000 -0.5610232277
O   O35       1.0  0.83480  0.20184  0.08386  1.0000 -0.5820215715
O   O36       1.0  0.15952  0.93224  0.10316  1.0000 -0.5867449491
O   O37       1.0  0.47077  0.29580  0.43844  1.0000 -0.6859843208
O   O38       1.0  0.09574  0.02957  0.11855  1.0000 -0.5992446801
O   O39       1.0  0.76961  0.20333  0.03354  1.0000 -0.5610232277
O   O40       1.0  0.40464  0.26294  0.49044  1.0000 -0.6479787005
O   O41       1.0  0.39306  0.37579  0.53581  1.0000 -0.9839333965
O   O42       1.0  0.43211  0.48072  0.58066  1.0000 -1.0081417633
O   O43       1.0  0.43220  0.48172  0.65322  1.0000 -0.5610232277
O   O44       1.0  0.33516  0.43419  0.62769  1.0000 -0.5610232277
O   O45       1.0  0.20184  0.83480  0.91614  1.0000 -0.5820215715
O   O46       1.0  0.93224  0.15952  0.89684  1.0000 -0.5867449491
O   O47       1.0  0.29580  0.47077  0.56156  1.0000 -0.6859843208
O   O48       1.0  0.02957  0.09574  0.88145  1.0000 -0.5992446801
O   O49       1.0  0.20333  0.76961  0.96646  1.0000 -0.5610232277
O   O50       1.0  0.26294  0.40464  0.50956  1.0000 -0.6479787005
O   O51       1.0  0.60694  0.62421  0.53581  1.0000 -0.9839333965
O   O52       1.0  0.56789  0.51928  0.58066  1.0000 -1.0081417633
O   O53       1.0  0.56780  0.51828  0.65322  1.0000 -0.5610232277
O   O54       1.0  0.66484  0.56581  0.62769  1.0000 -0.5610232277
O   O55       1.0  0.79816  0.16520  0.91614  1.0000 -0.5820215715
O   O56       1.0  0.06776  0.84048  0.89684  1.0000 -0.5867449491
O   O57       1.0  0.70420  0.52923  0.56156  1.0000 -0.6859843208
O   O58       1.0  0.97043  0.90426  0.88145  1.0000 -0.5992446801
O   O59       1.0  0.79667  0.23039  0.96646  1.0000 -0.5610232277
O   O60       1.0  0.73706  0.59536  0.50956  1.0000 -0.6479787005
O   O61       1.0  0.87579  0.10694  0.03581  1.0000 -0.9839333965
O   O62       1.0  0.98072  0.06789  0.08066  1.0000 -1.0081417633
O   O63       1.0  0.98172  0.06780  0.15322  1.0000 -0.5610232277
O   O64       1.0  0.93419  0.16484  0.12769  1.0000 -0.5610232277
O   O65       1.0  0.33480  0.29816  0.41614  1.0000 -0.5820215715
O   O66       1.0  0.65952  0.56776  0.39684  1.0000 -0.5867449491
O   O67       1.0  0.97077  0.20420  0.06156  1.0000 -0.6859843208
O   O68       1.0  0.59574  0.47043  0.38145  1.0000 -0.5992446801
O   O69       1.0  0.26961  0.29667  0.46646  1.0000 -0.5610232277
O   O70       1.0  0.90464  0.23706  0.00956  1.0000 -0.6479787005
O   O71       1.0  0.12421  0.89306  0.03581  1.0000 -0.9839333965
O   O72       1.0  0.01928  0.93211  0.08066  1.0000 -1.0081417633
O   O73       1.0  0.01828  0.93220  0.15322  1.0000 -0.5610232277
O   O74       1.0  0.06581  0.83516  0.12769  1.0000 -0.5610232277
O   O75       1.0  0.66520  0.70184  0.41614  1.0000 -0.5820215715
O   O76       1.0  0.34048  0.43224  0.39684  1.0000 -0.5867449491
O   O77       1.0  0.02923  0.79580  0.06156  1.0000 -0.6859843208
O   O78       1.0  0.40426  0.52957  0.38145  1.0000 -0.5992446801
O   O79       1.0  0.73039  0.70333  0.46646  1.0000 -0.5610232277
O   O80       1.0  0.09536  0.76294  0.00956  1.0000 -0.6479787005
O   O81       1.0  0.27880  0.02800  0.98507  0.5100 -0.5369567273
O   O82       1.0  0.72120  0.97200  0.98507  0.5100 -0.5369567273
O   O83       1.0  0.47200  0.77880  0.48507  0.5100 -0.5369567273
O   O84       1.0  0.52800  0.22120  0.48507  0.5100 -0.5369567273
O   O85       1.0  0.22120  0.52800  0.51493  0.5100 -0.5369567273
O   O86       1.0  0.77880  0.47200  0.51493  0.5100 -0.5369567273
O   O87       1.0  0.02800  0.27880  0.01493  0.5100 -0.5369567273
O   O88       1.0  0.97200  0.72120  0.01493  0.5100 -0.5369567273
