# DDEC6 charges by PACMAN v1.1 (https://github.com/mtap-research/PACMAN-charge/)
data_ja6b01345_si_001_ASR_pacman
_symmetry_space_group_name_H-M   'P 1'
_cell_length_a   37.72600000
_cell_length_b   37.72600000
_cell_length_c   37.72600000
_cell_angle_alpha   90.00000000
_cell_angle_beta   90.00000000
_cell_angle_gamma   90.00000000
_symmetry_Int_Tables_number   1
_chemical_formula_structural   Zn5(C60O7)2
_chemical_formula_sum   'Zn40 C960 O112'
_cell_volume   53693.57009318
_cell_formula_units_Z   8
loop_
 _symmetry_equiv_pos_site_id
 _symmetry_equiv_pos_as_xyz
  1  'x, y, z'
loop_
 _atom_site_type_symbol
 _atom_site_label
 _atom_site_symmetry_multiplicity
 _atom_site_fract_x
 _atom_site_fract_y
 _atom_site_fract_z
 _atom_site_occupancy
 _atom_site_charge
Zn  Zn1  1  0.55983000  0.44017000  0.44017000  1.0 0.9064705444
Zn  Zn2  1  0.44017000  0.55983000  0.44017000  1.0 0.9064705444
Zn  Zn3  1  0.44017000  0.44017000  0.55983000  1.0 0.9064705444
Zn  Zn4  1  0.55983000  0.55983000  0.55983000  1.0 0.9064705444
Zn  Zn5  1  0.55983000  0.94017000  0.94017000  1.0 0.9064705444
Zn  Zn6  1  0.44017000  0.05983000  0.94017000  1.0 0.9064705444
Zn  Zn7  1  0.44017000  0.94017000  0.05983000  1.0 0.9064705444
Zn  Zn8  1  0.55983000  0.05983000  0.05983000  1.0 0.9064705444
Zn  Zn9  1  0.05983000  0.44017000  0.94017000  1.0 0.9064705444
Zn  Zn10  1  0.94017000  0.55983000  0.94017000  1.0 0.9064705444
Zn  Zn11  1  0.94017000  0.44017000  0.05983000  1.0 0.9064705444
Zn  Zn12  1  0.05983000  0.55983000  0.05983000  1.0 0.9064705444
Zn  Zn13  1  0.05983000  0.94017000  0.44017000  1.0 0.9064705444
Zn  Zn14  1  0.94017000  0.05983000  0.44017000  1.0 0.9064705444
Zn  Zn15  1  0.94017000  0.94017000  0.55983000  1.0 0.9064705444
Zn  Zn16  1  0.05983000  0.05983000  0.55983000  1.0 0.9064705444
Zn  Zn17  1  0.55937000  0.50000000  0.50000000  1.0 0.868425754
Zn  Zn18  1  0.44063000  0.50000000  0.50000000  1.0 0.868425754
Zn  Zn19  1  0.50000000  0.55937000  0.50000000  1.0 0.868425754
Zn  Zn20  1  0.50000000  0.44063000  0.50000000  1.0 0.868425754
Zn  Zn21  1  0.50000000  0.50000000  0.55937000  1.0 0.868425754
Zn  Zn22  1  0.50000000  0.50000000  0.44063000  1.0 0.868425754
Zn  Zn23  1  0.55937000  0.00000000  0.00000000  1.0 0.868425754
Zn  Zn24  1  0.44063000  0.00000000  0.00000000  1.0 0.868425754
Zn  Zn25  1  0.50000000  0.05937000  0.00000000  1.0 0.868425754
Zn  Zn26  1  0.50000000  0.94063000  0.00000000  1.0 0.868425754
Zn  Zn27  1  0.50000000  0.00000000  0.05937000  1.0 0.868425754
Zn  Zn28  1  0.50000000  0.00000000  0.94063000  1.0 0.868425754
Zn  Zn29  1  0.05937000  0.50000000  0.00000000  1.0 0.868425754
Zn  Zn30  1  0.94063000  0.50000000  0.00000000  1.0 0.868425754
Zn  Zn31  1  0.00000000  0.55937000  0.00000000  1.0 0.868425754
Zn  Zn32  1  0.00000000  0.44063000  0.00000000  1.0 0.868425754
Zn  Zn33  1  0.00000000  0.50000000  0.05937000  1.0 0.868425754
Zn  Zn34  1  0.00000000  0.50000000  0.94063000  1.0 0.868425754
Zn  Zn35  1  0.05937000  0.00000000  0.50000000  1.0 0.868425754
Zn  Zn36  1  0.94063000  0.00000000  0.50000000  1.0 0.868425754
Zn  Zn37  1  0.00000000  0.05937000  0.50000000  1.0 0.868425754
Zn  Zn38  1  0.00000000  0.94063000  0.50000000  1.0 0.868425754
Zn  Zn39  1  0.00000000  0.00000000  0.55937000  1.0 0.868425754
Zn  Zn40  1  0.00000000  0.00000000  0.44063000  1.0 0.868425754
C  C1  1  0.35731000  0.19494000  0.33185000  1.0 -0.0119490247
C  C2  1  0.64269000  0.80506000  0.33185000  1.0 -0.0119490247
C  C3  1  0.64269000  0.19494000  0.66815000  1.0 -0.0119490247
C  C4  1  0.35731000  0.80506000  0.66815000  1.0 -0.0119490247
C  C5  1  0.33185000  0.35731000  0.19494000  1.0 -0.0119490247
C  C6  1  0.33185000  0.64269000  0.80506000  1.0 -0.0119490247
C  C7  1  0.66815000  0.64269000  0.19494000  1.0 -0.0119490247
C  C8  1  0.66815000  0.35731000  0.80506000  1.0 -0.0119490247
C  C9  1  0.19494000  0.33185000  0.35731000  1.0 -0.0119490247
C  C10  1  0.80506000  0.33185000  0.64269000  1.0 -0.0119490247
C  C11  1  0.19494000  0.66815000  0.64269000  1.0 -0.0119490247
C  C12  1  0.80506000  0.66815000  0.35731000  1.0 -0.0119490247
C  C13  1  0.19494000  0.35731000  0.33185000  1.0 -0.0119490247
C  C14  1  0.80506000  0.64269000  0.33185000  1.0 -0.0119490247
C  C15  1  0.19494000  0.64269000  0.66815000  1.0 -0.0119490247
C  C16  1  0.80506000  0.35731000  0.66815000  1.0 -0.0119490247
C  C17  1  0.35731000  0.33185000  0.19494000  1.0 -0.0119490247
C  C18  1  0.64269000  0.33185000  0.80506000  1.0 -0.0119490247
C  C19  1  0.64269000  0.66815000  0.19494000  1.0 -0.0119490247
C  C20  1  0.35731000  0.66815000  0.80506000  1.0 -0.0119490247
C  C21  1  0.33185000  0.19494000  0.35731000  1.0 -0.0119490247
C  C22  1  0.33185000  0.80506000  0.64269000  1.0 -0.0119490247
C  C23  1  0.66815000  0.19494000  0.64269000  1.0 -0.0119490247
C  C24  1  0.66815000  0.80506000  0.35731000  1.0 -0.0119490247
C  C25  1  0.35731000  0.69494000  0.83185000  1.0 -0.0119490247
C  C26  1  0.64269000  0.30506000  0.83185000  1.0 -0.0119490247
C  C27  1  0.64269000  0.69494000  0.16815000  1.0 -0.0119490247
C  C28  1  0.35731000  0.30506000  0.16815000  1.0 -0.0119490247
C  C29  1  0.33185000  0.85731000  0.69494000  1.0 -0.0119490247
C  C30  1  0.33185000  0.14269000  0.30506000  1.0 -0.0119490247
C  C31  1  0.66815000  0.14269000  0.69494000  1.0 -0.0119490247
C  C32  1  0.66815000  0.85731000  0.30506000  1.0 -0.0119490247
C  C33  1  0.19494000  0.83185000  0.85731000  1.0 -0.0119490247
C  C34  1  0.80506000  0.83185000  0.14269000  1.0 -0.0119490247
C  C35  1  0.19494000  0.16815000  0.14269000  1.0 -0.0119490247
C  C36  1  0.80506000  0.16815000  0.85731000  1.0 -0.0119490247
C  C37  1  0.19494000  0.85731000  0.83185000  1.0 -0.0119490247
C  C38  1  0.80506000  0.14269000  0.83185000  1.0 -0.0119490247
C  C39  1  0.19494000  0.14269000  0.16815000  1.0 -0.0119490247
C  C40  1  0.80506000  0.85731000  0.16815000  1.0 -0.0119490247
C  C41  1  0.35731000  0.83185000  0.69494000  1.0 -0.0119490247
C  C42  1  0.64269000  0.83185000  0.30506000  1.0 -0.0119490247
C  C43  1  0.64269000  0.16815000  0.69494000  1.0 -0.0119490247
C  C44  1  0.35731000  0.16815000  0.30506000  1.0 -0.0119490247
C  C45  1  0.33185000  0.69494000  0.85731000  1.0 -0.0119490247
C  C46  1  0.33185000  0.30506000  0.14269000  1.0 -0.0119490247
C  C47  1  0.66815000  0.69494000  0.14269000  1.0 -0.0119490247
C  C48  1  0.66815000  0.30506000  0.85731000  1.0 -0.0119490247
C  C49  1  0.85731000  0.19494000  0.83185000  1.0 -0.0119490247
C  C50  1  0.14269000  0.80506000  0.83185000  1.0 -0.0119490247
C  C51  1  0.14269000  0.19494000  0.16815000  1.0 -0.0119490247
C  C52  1  0.85731000  0.80506000  0.16815000  1.0 -0.0119490247
C  C53  1  0.83185000  0.35731000  0.69494000  1.0 -0.0119490247
C  C54  1  0.83185000  0.64269000  0.30506000  1.0 -0.0119490247
C  C55  1  0.16815000  0.64269000  0.69494000  1.0 -0.0119490247
C  C56  1  0.16815000  0.35731000  0.30506000  1.0 -0.0119490247
C  C57  1  0.69494000  0.33185000  0.85731000  1.0 -0.0119490247
C  C58  1  0.30506000  0.33185000  0.14269000  1.0 -0.0119490247
C  C59  1  0.69494000  0.66815000  0.14269000  1.0 -0.0119490247
C  C60  1  0.30506000  0.66815000  0.85731000  1.0 -0.0119490247
C  C61  1  0.69494000  0.35731000  0.83185000  1.0 -0.0119490247
C  C62  1  0.30506000  0.64269000  0.83185000  1.0 -0.0119490247
C  C63  1  0.69494000  0.64269000  0.16815000  1.0 -0.0119490247
C  C64  1  0.30506000  0.35731000  0.16815000  1.0 -0.0119490247
C  C65  1  0.85731000  0.33185000  0.69494000  1.0 -0.0119490247
C  C66  1  0.14269000  0.33185000  0.30506000  1.0 -0.0119490247
C  C67  1  0.14269000  0.66815000  0.69494000  1.0 -0.0119490247
C  C68  1  0.85731000  0.66815000  0.30506000  1.0 -0.0119490247
C  C69  1  0.83185000  0.19494000  0.85731000  1.0 -0.0119490247
C  C70  1  0.83185000  0.80506000  0.14269000  1.0 -0.0119490247
C  C71  1  0.16815000  0.19494000  0.14269000  1.0 -0.0119490247
C  C72  1  0.16815000  0.80506000  0.85731000  1.0 -0.0119490247
C  C73  1  0.85731000  0.69494000  0.33185000  1.0 -0.0119490247
C  C74  1  0.14269000  0.30506000  0.33185000  1.0 -0.0119490247
C  C75  1  0.14269000  0.69494000  0.66815000  1.0 -0.0119490247
C  C76  1  0.85731000  0.30506000  0.66815000  1.0 -0.0119490247
C  C77  1  0.83185000  0.85731000  0.19494000  1.0 -0.0119490247
C  C78  1  0.83185000  0.14269000  0.80506000  1.0 -0.0119490247
C  C79  1  0.16815000  0.14269000  0.19494000  1.0 -0.0119490247
C  C80  1  0.16815000  0.85731000  0.80506000  1.0 -0.0119490247
C  C81  1  0.69494000  0.83185000  0.35731000  1.0 -0.0119490247
C  C82  1  0.30506000  0.83185000  0.64269000  1.0 -0.0119490247
C  C83  1  0.69494000  0.16815000  0.64269000  1.0 -0.0119490247
C  C84  1  0.30506000  0.16815000  0.35731000  1.0 -0.0119490247
C  C85  1  0.69494000  0.85731000  0.33185000  1.0 -0.0119490247
C  C86  1  0.30506000  0.14269000  0.33185000  1.0 -0.0119490247
C  C87  1  0.69494000  0.14269000  0.66815000  1.0 -0.0119490247
C  C88  1  0.30506000  0.85731000  0.66815000  1.0 -0.0119490247
C  C89  1  0.85731000  0.83185000  0.19494000  1.0 -0.0119490247
C  C90  1  0.14269000  0.83185000  0.80506000  1.0 -0.0119490247
C  C91  1  0.14269000  0.16815000  0.19494000  1.0 -0.0119490247
C  C92  1  0.85731000  0.16815000  0.80506000  1.0 -0.0119490247
C  C93  1  0.83185000  0.69494000  0.35731000  1.0 -0.0119490247
C  C94  1  0.83185000  0.30506000  0.64269000  1.0 -0.0119490247
C  C95  1  0.16815000  0.69494000  0.64269000  1.0 -0.0119490247
C  C96  1  0.16815000  0.30506000  0.35731000  1.0 -0.0119490247
C  C97  1  0.38634000  0.26970000  0.38634000  1.0 0.03184951
C  C98  1  0.61366000  0.73030000  0.38634000  1.0 0.03184951
C  C99  1  0.61366000  0.26970000  0.61366000  1.0 0.03184951
C  C100  1  0.38634000  0.73030000  0.61366000  1.0 0.03184951
C  C101  1  0.38634000  0.38634000  0.26970000  1.0 0.03184951
C  C102  1  0.38634000  0.61366000  0.73030000  1.0 0.03184951
C  C103  1  0.61366000  0.61366000  0.26970000  1.0 0.03184951
C  C104  1  0.61366000  0.38634000  0.73030000  1.0 0.03184951
C  C105  1  0.26970000  0.38634000  0.38634000  1.0 0.03184951
C  C106  1  0.73030000  0.38634000  0.61366000  1.0 0.03184951
C  C107  1  0.26970000  0.61366000  0.61366000  1.0 0.03184951
C  C108  1  0.73030000  0.61366000  0.38634000  1.0 0.03184951
C  C109  1  0.38634000  0.76970000  0.88634000  1.0 0.03184951
C  C110  1  0.61366000  0.23030000  0.88634000  1.0 0.03184951
C  C111  1  0.61366000  0.76970000  0.11366000  1.0 0.03184951
C  C112  1  0.38634000  0.23030000  0.11366000  1.0 0.03184951
C  C113  1  0.38634000  0.88634000  0.76970000  1.0 0.03184951
C  C114  1  0.38634000  0.11366000  0.23030000  1.0 0.03184951
C  C115  1  0.61366000  0.11366000  0.76970000  1.0 0.03184951
C  C116  1  0.61366000  0.88634000  0.23030000  1.0 0.03184951
C  C117  1  0.26970000  0.88634000  0.88634000  1.0 0.03184951
C  C118  1  0.73030000  0.88634000  0.11366000  1.0 0.03184951
C  C119  1  0.26970000  0.11366000  0.11366000  1.0 0.03184951
C  C120  1  0.73030000  0.11366000  0.88634000  1.0 0.03184951
C  C121  1  0.88634000  0.26970000  0.88634000  1.0 0.03184951
C  C122  1  0.11366000  0.73030000  0.88634000  1.0 0.03184951
C  C123  1  0.11366000  0.26970000  0.11366000  1.0 0.03184951
C  C124  1  0.88634000  0.73030000  0.11366000  1.0 0.03184951
C  C125  1  0.88634000  0.38634000  0.76970000  1.0 0.03184951
C  C126  1  0.88634000  0.61366000  0.23030000  1.0 0.03184951
C  C127  1  0.11366000  0.61366000  0.76970000  1.0 0.03184951
C  C128  1  0.11366000  0.38634000  0.23030000  1.0 0.03184951
C  C129  1  0.76970000  0.38634000  0.88634000  1.0 0.03184951
C  C130  1  0.23030000  0.38634000  0.11366000  1.0 0.03184951
C  C131  1  0.76970000  0.61366000  0.11366000  1.0 0.03184951
C  C132  1  0.23030000  0.61366000  0.88634000  1.0 0.03184951
C  C133  1  0.88634000  0.76970000  0.38634000  1.0 0.03184951
C  C134  1  0.11366000  0.23030000  0.38634000  1.0 0.03184951
C  C135  1  0.11366000  0.76970000  0.61366000  1.0 0.03184951
C  C136  1  0.88634000  0.23030000  0.61366000  1.0 0.03184951
C  C137  1  0.88634000  0.88634000  0.26970000  1.0 0.03184951
C  C138  1  0.88634000  0.11366000  0.73030000  1.0 0.03184951
C  C139  1  0.11366000  0.11366000  0.26970000  1.0 0.03184951
C  C140  1  0.11366000  0.88634000  0.73030000  1.0 0.03184951
C  C141  1  0.76970000  0.88634000  0.38634000  1.0 0.03184951
C  C142  1  0.23030000  0.88634000  0.61366000  1.0 0.03184951
C  C143  1  0.76970000  0.11366000  0.61366000  1.0 0.03184951
C  C144  1  0.23030000  0.11366000  0.38634000  1.0 0.03184951
C  C145  1  0.37038000  0.24130000  0.37038000  1.0 -0.0023351273
C  C146  1  0.62962000  0.75870000  0.37038000  1.0 -0.0023351273
C  C147  1  0.62962000  0.24130000  0.62962000  1.0 -0.0023351273
C  C148  1  0.37038000  0.75870000  0.62962000  1.0 -0.0023351273
C  C149  1  0.37038000  0.37038000  0.24130000  1.0 -0.0023351273
C  C150  1  0.37038000  0.62962000  0.75870000  1.0 -0.0023351273
C  C151  1  0.62962000  0.62962000  0.24130000  1.0 -0.0023351273
C  C152  1  0.62962000  0.37038000  0.75870000  1.0 -0.0023351273
C  C153  1  0.24130000  0.37038000  0.37038000  1.0 -0.0023351273
C  C154  1  0.75870000  0.37038000  0.62962000  1.0 -0.0023351273
C  C155  1  0.24130000  0.62962000  0.62962000  1.0 -0.0023351273
C  C156  1  0.75870000  0.62962000  0.37038000  1.0 -0.0023351273
C  C157  1  0.37038000  0.74130000  0.87038000  1.0 -0.0023351273
C  C158  1  0.62962000  0.25870000  0.87038000  1.0 -0.0023351273
C  C159  1  0.62962000  0.74130000  0.12962000  1.0 -0.0023351273
C  C160  1  0.37038000  0.25870000  0.12962000  1.0 -0.0023351273
C  C161  1  0.37038000  0.87038000  0.74130000  1.0 -0.0023351273
C  C162  1  0.37038000  0.12962000  0.25870000  1.0 -0.0023351273
C  C163  1  0.62962000  0.12962000  0.74130000  1.0 -0.0023351273
C  C164  1  0.62962000  0.87038000  0.25870000  1.0 -0.0023351273
C  C165  1  0.24130000  0.87038000  0.87038000  1.0 -0.0023351273
C  C166  1  0.75870000  0.87038000  0.12962000  1.0 -0.0023351273
C  C167  1  0.24130000  0.12962000  0.12962000  1.0 -0.0023351273
C  C168  1  0.75870000  0.12962000  0.87038000  1.0 -0.0023351273
C  C169  1  0.87038000  0.24130000  0.87038000  1.0 -0.0023351273
C  C170  1  0.12962000  0.75870000  0.87038000  1.0 -0.0023351273
C  C171  1  0.12962000  0.24130000  0.12962000  1.0 -0.0023351273
C  C172  1  0.87038000  0.75870000  0.12962000  1.0 -0.0023351273
C  C173  1  0.87038000  0.37038000  0.74130000  1.0 -0.0023351273
C  C174  1  0.87038000  0.62962000  0.25870000  1.0 -0.0023351273
C  C175  1  0.12962000  0.62962000  0.74130000  1.0 -0.0023351273
C  C176  1  0.12962000  0.37038000  0.25870000  1.0 -0.0023351273
C  C177  1  0.74130000  0.37038000  0.87038000  1.0 -0.0023351273
C  C178  1  0.25870000  0.37038000  0.12962000  1.0 -0.0023351273
C  C179  1  0.74130000  0.62962000  0.12962000  1.0 -0.0023351273
C  C180  1  0.25870000  0.62962000  0.87038000  1.0 -0.0023351273
C  C181  1  0.87038000  0.74130000  0.37038000  1.0 -0.0023351273
C  C182  1  0.12962000  0.25870000  0.37038000  1.0 -0.0023351273
C  C183  1  0.12962000  0.74130000  0.62962000  1.0 -0.0023351273
C  C184  1  0.87038000  0.25870000  0.62962000  1.0 -0.0023351273
C  C185  1  0.87038000  0.87038000  0.24130000  1.0 -0.0023351273
C  C186  1  0.87038000  0.12962000  0.75870000  1.0 -0.0023351273
C  C187  1  0.12962000  0.12962000  0.24130000  1.0 -0.0023351273
C  C188  1  0.12962000  0.87038000  0.75870000  1.0 -0.0023351273
C  C189  1  0.74130000  0.87038000  0.37038000  1.0 -0.0023351273
C  C190  1  0.25870000  0.87038000  0.62962000  1.0 -0.0023351273
C  C191  1  0.74130000  0.12962000  0.62962000  1.0 -0.0023351273
C  C192  1  0.25870000  0.12962000  0.37038000  1.0 -0.0023351273
C  C193  1  0.38382000  0.22484000  0.33887000  1.0 0.0593057704
C  C194  1  0.61618000  0.77516000  0.33887000  1.0 0.0593057704
C  C195  1  0.61618000  0.22484000  0.66113000  1.0 0.0593057704
C  C196  1  0.38382000  0.77516000  0.66113000  1.0 0.0593057704
C  C197  1  0.33887000  0.38382000  0.22484000  1.0 0.0593057704
C  C198  1  0.33887000  0.61618000  0.77516000  1.0 0.0593057704
C  C199  1  0.66113000  0.61618000  0.22484000  1.0 0.0593057704
C  C200  1  0.66113000  0.38382000  0.77516000  1.0 0.0593057704
C  C201  1  0.22484000  0.33887000  0.38382000  1.0 0.0593057704
C  C202  1  0.77516000  0.33887000  0.61618000  1.0 0.0593057704
C  C203  1  0.22484000  0.66113000  0.61618000  1.0 0.0593057704
C  C204  1  0.77516000  0.66113000  0.38382000  1.0 0.0593057704
C  C205  1  0.22484000  0.38382000  0.33887000  1.0 0.0593057704
C  C206  1  0.77516000  0.61618000  0.33887000  1.0 0.0593057704
C  C207  1  0.22484000  0.61618000  0.66113000  1.0 0.0593057704
C  C208  1  0.77516000  0.38382000  0.66113000  1.0 0.0593057704
C  C209  1  0.38382000  0.33887000  0.22484000  1.0 0.0593057704
C  C210  1  0.61618000  0.33887000  0.77516000  1.0 0.0593057704
C  C211  1  0.61618000  0.66113000  0.22484000  1.0 0.0593057704
C  C212  1  0.38382000  0.66113000  0.77516000  1.0 0.0593057704
C  C213  1  0.33887000  0.22484000  0.38382000  1.0 0.0593057704
C  C214  1  0.33887000  0.77516000  0.61618000  1.0 0.0593057704
C  C215  1  0.66113000  0.22484000  0.61618000  1.0 0.0593057704
C  C216  1  0.66113000  0.77516000  0.38382000  1.0 0.0593057704
C  C217  1  0.38382000  0.72484000  0.83887000  1.0 0.0593057704
C  C218  1  0.61618000  0.27516000  0.83887000  1.0 0.0593057704
C  C219  1  0.61618000  0.72484000  0.16113000  1.0 0.0593057704
C  C220  1  0.38382000  0.27516000  0.16113000  1.0 0.0593057704
C  C221  1  0.33887000  0.88382000  0.72484000  1.0 0.0593057704
C  C222  1  0.33887000  0.11618000  0.27516000  1.0 0.0593057704
C  C223  1  0.66113000  0.11618000  0.72484000  1.0 0.0593057704
C  C224  1  0.66113000  0.88382000  0.27516000  1.0 0.0593057704
C  C225  1  0.22484000  0.83887000  0.88382000  1.0 0.0593057704
C  C226  1  0.77516000  0.83887000  0.11618000  1.0 0.0593057704
C  C227  1  0.22484000  0.16113000  0.11618000  1.0 0.0593057704
C  C228  1  0.77516000  0.16113000  0.88382000  1.0 0.0593057704
C  C229  1  0.22484000  0.88382000  0.83887000  1.0 0.0593057704
C  C230  1  0.77516000  0.11618000  0.83887000  1.0 0.0593057704
C  C231  1  0.22484000  0.11618000  0.16113000  1.0 0.0593057704
C  C232  1  0.77516000  0.88382000  0.16113000  1.0 0.0593057704
C  C233  1  0.38382000  0.83887000  0.72484000  1.0 0.0593057704
C  C234  1  0.61618000  0.83887000  0.27516000  1.0 0.0593057704
C  C235  1  0.61618000  0.16113000  0.72484000  1.0 0.0593057704
C  C236  1  0.38382000  0.16113000  0.27516000  1.0 0.0593057704
C  C237  1  0.33887000  0.72484000  0.88382000  1.0 0.0593057704
C  C238  1  0.33887000  0.27516000  0.11618000  1.0 0.0593057704
C  C239  1  0.66113000  0.72484000  0.11618000  1.0 0.0593057704
C  C240  1  0.66113000  0.27516000  0.88382000  1.0 0.0593057704
C  C241  1  0.88382000  0.22484000  0.83887000  1.0 0.0593057704
C  C242  1  0.11618000  0.77516000  0.83887000  1.0 0.0593057704
C  C243  1  0.11618000  0.22484000  0.16113000  1.0 0.0593057704
C  C244  1  0.88382000  0.77516000  0.16113000  1.0 0.0593057704
C  C245  1  0.83887000  0.38382000  0.72484000  1.0 0.0593057704
C  C246  1  0.83887000  0.61618000  0.27516000  1.0 0.0593057704
C  C247  1  0.16113000  0.61618000  0.72484000  1.0 0.0593057704
C  C248  1  0.16113000  0.38382000  0.27516000  1.0 0.0593057704
C  C249  1  0.72484000  0.33887000  0.88382000  1.0 0.0593057704
C  C250  1  0.27516000  0.33887000  0.11618000  1.0 0.0593057704
C  C251  1  0.72484000  0.66113000  0.11618000  1.0 0.0593057704
C  C252  1  0.27516000  0.66113000  0.88382000  1.0 0.0593057704
C  C253  1  0.72484000  0.38382000  0.83887000  1.0 0.0593057704
C  C254  1  0.27516000  0.61618000  0.83887000  1.0 0.0593057704
C  C255  1  0.72484000  0.61618000  0.16113000  1.0 0.0593057704
C  C256  1  0.27516000  0.38382000  0.16113000  1.0 0.0593057704
C  C257  1  0.88382000  0.33887000  0.72484000  1.0 0.0593057704
C  C258  1  0.11618000  0.33887000  0.27516000  1.0 0.0593057704
C  C259  1  0.11618000  0.66113000  0.72484000  1.0 0.0593057704
C  C260  1  0.88382000  0.66113000  0.27516000  1.0 0.0593057704
C  C261  1  0.83887000  0.22484000  0.88382000  1.0 0.0593057704
C  C262  1  0.83887000  0.77516000  0.11618000  1.0 0.0593057704
C  C263  1  0.16113000  0.22484000  0.11618000  1.0 0.0593057704
C  C264  1  0.16113000  0.77516000  0.88382000  1.0 0.0593057704
C  C265  1  0.88382000  0.72484000  0.33887000  1.0 0.0593057704
C  C266  1  0.11618000  0.27516000  0.33887000  1.0 0.0593057704
C  C267  1  0.11618000  0.72484000  0.66113000  1.0 0.0593057704
C  C268  1  0.88382000  0.27516000  0.66113000  1.0 0.0593057704
C  C269  1  0.83887000  0.88382000  0.22484000  1.0 0.0593057704
C  C270  1  0.83887000  0.11618000  0.77516000  1.0 0.0593057704
C  C271  1  0.16113000  0.11618000  0.22484000  1.0 0.0593057704
C  C272  1  0.16113000  0.88382000  0.77516000  1.0 0.0593057704
C  C273  1  0.72484000  0.83887000  0.38382000  1.0 0.0593057704
C  C274  1  0.27516000  0.83887000  0.61618000  1.0 0.0593057704
C  C275  1  0.72484000  0.16113000  0.61618000  1.0 0.0593057704
C  C276  1  0.27516000  0.16113000  0.38382000  1.0 0.0593057704
C  C277  1  0.72484000  0.88382000  0.33887000  1.0 0.0593057704
C  C278  1  0.27516000  0.11618000  0.33887000  1.0 0.0593057704
C  C279  1  0.72484000  0.11618000  0.66113000  1.0 0.0593057704
C  C280  1  0.27516000  0.88382000  0.66113000  1.0 0.0593057704
C  C281  1  0.88382000  0.83887000  0.22484000  1.0 0.0593057704
C  C282  1  0.11618000  0.83887000  0.77516000  1.0 0.0593057704
C  C283  1  0.11618000  0.16113000  0.22484000  1.0 0.0593057704
C  C284  1  0.88382000  0.16113000  0.77516000  1.0 0.0593057704
C  C285  1  0.83887000  0.72484000  0.38382000  1.0 0.0593057704
C  C286  1  0.83887000  0.27516000  0.61618000  1.0 0.0593057704
C  C287  1  0.16113000  0.72484000  0.61618000  1.0 0.0593057704
C  C288  1  0.16113000  0.27516000  0.38382000  1.0 0.0593057704
C  C289  1  0.41420000  0.33920000  0.41420000  1.0 -0.0023351273
C  C290  1  0.58580000  0.66080000  0.41420000  1.0 -0.0023351273
C  C291  1  0.58580000  0.33920000  0.58580000  1.0 -0.0023351273
C  C292  1  0.41420000  0.66080000  0.58580000  1.0 -0.0023351273
C  C293  1  0.41420000  0.41420000  0.33920000  1.0 -0.0023351273
C  C294  1  0.41420000  0.58580000  0.66080000  1.0 -0.0023351273
C  C295  1  0.58580000  0.58580000  0.33920000  1.0 -0.0023351273
C  C296  1  0.58580000  0.41420000  0.66080000  1.0 -0.0023351273
C  C297  1  0.33920000  0.41420000  0.41420000  1.0 -0.0023351273
C  C298  1  0.66080000  0.41420000  0.58580000  1.0 -0.0023351273
C  C299  1  0.33920000  0.58580000  0.58580000  1.0 -0.0023351273
C  C300  1  0.66080000  0.58580000  0.41420000  1.0 -0.0023351273
C  C301  1  0.41420000  0.83920000  0.91420000  1.0 -0.0023351273
C  C302  1  0.58580000  0.16080000  0.91420000  1.0 -0.0023351273
C  C303  1  0.58580000  0.83920000  0.08580000  1.0 -0.0023351273
C  C304  1  0.41420000  0.16080000  0.08580000  1.0 -0.0023351273
C  C305  1  0.41420000  0.91420000  0.83920000  1.0 -0.0023351273
C  C306  1  0.41420000  0.08580000  0.16080000  1.0 -0.0023351273
C  C307  1  0.58580000  0.08580000  0.83920000  1.0 -0.0023351273
C  C308  1  0.58580000  0.91420000  0.16080000  1.0 -0.0023351273
C  C309  1  0.33920000  0.91420000  0.91420000  1.0 -0.0023351273
C  C310  1  0.66080000  0.91420000  0.08580000  1.0 -0.0023351273
C  C311  1  0.33920000  0.08580000  0.08580000  1.0 -0.0023351273
C  C312  1  0.66080000  0.08580000  0.91420000  1.0 -0.0023351273
C  C313  1  0.91420000  0.33920000  0.91420000  1.0 -0.0023351273
C  C314  1  0.08580000  0.66080000  0.91420000  1.0 -0.0023351273
C  C315  1  0.08580000  0.33920000  0.08580000  1.0 -0.0023351273
C  C316  1  0.91420000  0.66080000  0.08580000  1.0 -0.0023351273
C  C317  1  0.91420000  0.41420000  0.83920000  1.0 -0.0023351273
C  C318  1  0.91420000  0.58580000  0.16080000  1.0 -0.0023351273
C  C319  1  0.08580000  0.58580000  0.83920000  1.0 -0.0023351273
C  C320  1  0.08580000  0.41420000  0.16080000  1.0 -0.0023351273
C  C321  1  0.83920000  0.41420000  0.91420000  1.0 -0.0023351273
C  C322  1  0.16080000  0.41420000  0.08580000  1.0 -0.0023351273
C  C323  1  0.83920000  0.58580000  0.08580000  1.0 -0.0023351273
C  C324  1  0.16080000  0.58580000  0.91420000  1.0 -0.0023351273
C  C325  1  0.91420000  0.83920000  0.41420000  1.0 -0.0023351273
C  C326  1  0.08580000  0.16080000  0.41420000  1.0 -0.0023351273
C  C327  1  0.08580000  0.83920000  0.58580000  1.0 -0.0023351273
C  C328  1  0.91420000  0.16080000  0.58580000  1.0 -0.0023351273
C  C329  1  0.91420000  0.91420000  0.33920000  1.0 -0.0023351273
C  C330  1  0.91420000  0.08580000  0.66080000  1.0 -0.0023351273
C  C331  1  0.08580000  0.08580000  0.33920000  1.0 -0.0023351273
C  C332  1  0.08580000  0.91420000  0.66080000  1.0 -0.0023351273
C  C333  1  0.83920000  0.91420000  0.41420000  1.0 -0.0023351273
C  C334  1  0.16080000  0.91420000  0.58580000  1.0 -0.0023351273
C  C335  1  0.83920000  0.08580000  0.58580000  1.0 -0.0023351273
C  C336  1  0.16080000  0.08580000  0.41420000  1.0 -0.0023351273
C  C913  1  0.43190000  0.36220000  0.43190000  1.0 0.0118493089
C  C914  1  0.56810000  0.63780000  0.43190000  1.0 0.0118493089
C  C915  1  0.56810000  0.36220000  0.56810000  1.0 0.0118493089
C  C916  1  0.43190000  0.63780000  0.56810000  1.0 0.0118493089
C  C917  1  0.43190000  0.43190000  0.36220000  1.0 0.0118493089
C  C918  1  0.43190000  0.56810000  0.63780000  1.0 0.0118493089
C  C919  1  0.56810000  0.56810000  0.36220000  1.0 0.0118493089
C  C920  1  0.56810000  0.43190000  0.63780000  1.0 0.0118493089
C  C921  1  0.36220000  0.43190000  0.43190000  1.0 0.0118493089
C  C922  1  0.63780000  0.43190000  0.56810000  1.0 0.0118493089
C  C923  1  0.36220000  0.56810000  0.56810000  1.0 0.0118493089
C  C924  1  0.63780000  0.56810000  0.43190000  1.0 0.0118493089
C  C925  1  0.43190000  0.86220000  0.93190000  1.0 0.0118493089
C  C926  1  0.56810000  0.13780000  0.93190000  1.0 0.0118493089
C  C927  1  0.56810000  0.86220000  0.06810000  1.0 0.0118493089
C  C928  1  0.43190000  0.13780000  0.06810000  1.0 0.0118493089
C  C929  1  0.43190000  0.93190000  0.86220000  1.0 0.0118493089
C  C930  1  0.43190000  0.06810000  0.13780000  1.0 0.0118493089
C  C931  1  0.56810000  0.06810000  0.86220000  1.0 0.0118493089
C  C932  1  0.56810000  0.93190000  0.13780000  1.0 0.0118493089
C  C933  1  0.36220000  0.93190000  0.93190000  1.0 0.0118493089
C  C934  1  0.63780000  0.93190000  0.06810000  1.0 0.0118493089
C  C935  1  0.36220000  0.06810000  0.06810000  1.0 0.0118493089
C  C936  1  0.63780000  0.06810000  0.93190000  1.0 0.0118493089
C  C937  1  0.93190000  0.36220000  0.93190000  1.0 0.0118493089
C  C938  1  0.06810000  0.63780000  0.93190000  1.0 0.0118493089
C  C939  1  0.06810000  0.36220000  0.06810000  1.0 0.0118493089
C  C940  1  0.93190000  0.63780000  0.06810000  1.0 0.0118493089
C  C941  1  0.93190000  0.43190000  0.86220000  1.0 0.0118493089
C  C942  1  0.93190000  0.56810000  0.13780000  1.0 0.0118493089
C  C943  1  0.06810000  0.56810000  0.86220000  1.0 0.0118493089
C  C944  1  0.06810000  0.43190000  0.13780000  1.0 0.0118493089
C  C945  1  0.86220000  0.43190000  0.93190000  1.0 0.0118493089
C  C946  1  0.13780000  0.43190000  0.06810000  1.0 0.0118493089
C  C947  1  0.86220000  0.56810000  0.06810000  1.0 0.0118493089
C  C948  1  0.13780000  0.56810000  0.93190000  1.0 0.0118493089
C  C949  1  0.93190000  0.86220000  0.43190000  1.0 0.0118493089
C  C950  1  0.06810000  0.13780000  0.43190000  1.0 0.0118493089
C  C951  1  0.06810000  0.86220000  0.56810000  1.0 0.0118493089
C  C952  1  0.93190000  0.13780000  0.56810000  1.0 0.0118493089
C  C953  1  0.93190000  0.93190000  0.36220000  1.0 0.0118493089
C  C954  1  0.93190000  0.06810000  0.63780000  1.0 0.0118493089
C  C955  1  0.06810000  0.06810000  0.36220000  1.0 0.0118493089
C  C956  1  0.06810000  0.93190000  0.63780000  1.0 0.0118493089
C  C957  1  0.86220000  0.93190000  0.43190000  1.0 0.0118493089
C  C958  1  0.13780000  0.93190000  0.56810000  1.0 0.0118493089
C  C959  1  0.86220000  0.06810000  0.56810000  1.0 0.0118493089
C  C960  1  0.13780000  0.06810000  0.43190000  1.0 0.0118493089
C  C337  1  0.43700000  0.31480000  0.38500000  0.5 0.0593057704
C  C338  1  0.56300000  0.68520000  0.38500000  0.5 0.0593057704
C  C339  1  0.56300000  0.31480000  0.61500000  0.5 0.0593057704
C  C340  1  0.43700000  0.68520000  0.61500000  0.5 0.0593057704
C  C341  1  0.38500000  0.43700000  0.31480000  0.5 0.0593057704
C  C342  1  0.38500000  0.56300000  0.68520000  0.5 0.0593057704
C  C343  1  0.61500000  0.56300000  0.31480000  0.5 0.0593057704
C  C344  1  0.61500000  0.43700000  0.68520000  0.5 0.0593057704
C  C345  1  0.31480000  0.38500000  0.43700000  0.5 0.0593057704
C  C346  1  0.68520000  0.38500000  0.56300000  0.5 0.0593057704
C  C347  1  0.31480000  0.61500000  0.56300000  0.5 0.0593057704
C  C348  1  0.68520000  0.61500000  0.43700000  0.5 0.0593057704
C  C349  1  0.31480000  0.43700000  0.38500000  0.5 0.0593057704
C  C350  1  0.68520000  0.56300000  0.38500000  0.5 0.0593057704
C  C351  1  0.31480000  0.56300000  0.61500000  0.5 0.0593057704
C  C352  1  0.68520000  0.43700000  0.61500000  0.5 0.0593057704
C  C353  1  0.43700000  0.38500000  0.31480000  0.5 0.0593057704
C  C354  1  0.56300000  0.38500000  0.68520000  0.5 0.0593057704
C  C355  1  0.56300000  0.61500000  0.31480000  0.5 0.0593057704
C  C356  1  0.43700000  0.61500000  0.68520000  0.5 0.0593057704
C  C357  1  0.38500000  0.31480000  0.43700000  0.5 0.0593057704
C  C358  1  0.38500000  0.68520000  0.56300000  0.5 0.0593057704
C  C359  1  0.61500000  0.31480000  0.56300000  0.5 0.0593057704
C  C360  1  0.61500000  0.68520000  0.43700000  0.5 0.0593057704
C  C361  1  0.43700000  0.81480000  0.88500000  0.5 0.0593057704
C  C362  1  0.56300000  0.18520000  0.88500000  0.5 0.0593057704
C  C363  1  0.56300000  0.81480000  0.11500000  0.5 0.0593057704
C  C364  1  0.43700000  0.18520000  0.11500000  0.5 0.0593057704
C  C365  1  0.38500000  0.93700000  0.81480000  0.5 0.0593057704
C  C366  1  0.38500000  0.06300000  0.18520000  0.5 0.0593057704
C  C367  1  0.61500000  0.06300000  0.81480000  0.5 0.0593057704
C  C368  1  0.61500000  0.93700000  0.18520000  0.5 0.0593057704
C  C369  1  0.31480000  0.88500000  0.93700000  0.5 0.0593057704
C  C370  1  0.68520000  0.88500000  0.06300000  0.5 0.0593057704
C  C371  1  0.31480000  0.11500000  0.06300000  0.5 0.0593057704
C  C372  1  0.68520000  0.11500000  0.93700000  0.5 0.0593057704
C  C373  1  0.31480000  0.93700000  0.88500000  0.5 0.0593057704
C  C374  1  0.68520000  0.06300000  0.88500000  0.5 0.0593057704
C  C375  1  0.31480000  0.06300000  0.11500000  0.5 0.0593057704
C  C376  1  0.68520000  0.93700000  0.11500000  0.5 0.0593057704
C  C377  1  0.43700000  0.88500000  0.81480000  0.5 0.0593057704
C  C378  1  0.56300000  0.88500000  0.18520000  0.5 0.0593057704
C  C379  1  0.56300000  0.11500000  0.81480000  0.5 0.0593057704
C  C380  1  0.43700000  0.11500000  0.18520000  0.5 0.0593057704
C  C381  1  0.38500000  0.81480000  0.93700000  0.5 0.0593057704
C  C382  1  0.38500000  0.18520000  0.06300000  0.5 0.0593057704
C  C383  1  0.61500000  0.81480000  0.06300000  0.5 0.0593057704
C  C384  1  0.61500000  0.18520000  0.93700000  0.5 0.0593057704
C  C385  1  0.93700000  0.31480000  0.88500000  0.5 0.0593057704
C  C386  1  0.06300000  0.68520000  0.88500000  0.5 0.0593057704
C  C387  1  0.06300000  0.31480000  0.11500000  0.5 0.0593057704
C  C388  1  0.93700000  0.68520000  0.11500000  0.5 0.0593057704
C  C389  1  0.88500000  0.43700000  0.81480000  0.5 0.0593057704
C  C390  1  0.88500000  0.56300000  0.18520000  0.5 0.0593057704
C  C391  1  0.11500000  0.56300000  0.81480000  0.5 0.0593057704
C  C392  1  0.11500000  0.43700000  0.18520000  0.5 0.0593057704
C  C393  1  0.81480000  0.38500000  0.93700000  0.5 0.0593057704
C  C394  1  0.18520000  0.38500000  0.06300000  0.5 0.0593057704
C  C395  1  0.81480000  0.61500000  0.06300000  0.5 0.0593057704
C  C396  1  0.18520000  0.61500000  0.93700000  0.5 0.0593057704
C  C397  1  0.81480000  0.43700000  0.88500000  0.5 0.0593057704
C  C398  1  0.18520000  0.56300000  0.88500000  0.5 0.0593057704
C  C399  1  0.81480000  0.56300000  0.11500000  0.5 0.0593057704
C  C400  1  0.18520000  0.43700000  0.11500000  0.5 0.0593057704
C  C401  1  0.93700000  0.38500000  0.81480000  0.5 0.0593057704
C  C402  1  0.06300000  0.38500000  0.18520000  0.5 0.0593057704
C  C403  1  0.06300000  0.61500000  0.81480000  0.5 0.0593057704
C  C404  1  0.93700000  0.61500000  0.18520000  0.5 0.0593057704
C  C405  1  0.88500000  0.31480000  0.93700000  0.5 0.0593057704
C  C406  1  0.88500000  0.68520000  0.06300000  0.5 0.0593057704
C  C407  1  0.11500000  0.31480000  0.06300000  0.5 0.0593057704
C  C408  1  0.11500000  0.68520000  0.93700000  0.5 0.0593057704
C  C409  1  0.93700000  0.81480000  0.38500000  0.5 0.0593057704
C  C410  1  0.06300000  0.18520000  0.38500000  0.5 0.0593057704
C  C411  1  0.06300000  0.81480000  0.61500000  0.5 0.0593057704
C  C412  1  0.93700000  0.18520000  0.61500000  0.5 0.0593057704
C  C413  1  0.88500000  0.93700000  0.31480000  0.5 0.0593057704
C  C414  1  0.88500000  0.06300000  0.68520000  0.5 0.0593057704
C  C415  1  0.11500000  0.06300000  0.31480000  0.5 0.0593057704
C  C416  1  0.11500000  0.93700000  0.68520000  0.5 0.0593057704
C  C417  1  0.81480000  0.88500000  0.43700000  0.5 0.0593057704
C  C418  1  0.18520000  0.88500000  0.56300000  0.5 0.0593057704
C  C419  1  0.81480000  0.11500000  0.56300000  0.5 0.0593057704
C  C420  1  0.18520000  0.11500000  0.43700000  0.5 0.0593057704
C  C421  1  0.81480000  0.93700000  0.38500000  0.5 0.0593057704
C  C422  1  0.18520000  0.06300000  0.38500000  0.5 0.0593057704
C  C423  1  0.81480000  0.06300000  0.61500000  0.5 0.0593057704
C  C424  1  0.18520000  0.93700000  0.61500000  0.5 0.0593057704
C  C425  1  0.93700000  0.88500000  0.31480000  0.5 0.0593057704
C  C426  1  0.06300000  0.88500000  0.68520000  0.5 0.0593057704
C  C427  1  0.06300000  0.11500000  0.31480000  0.5 0.0593057704
C  C428  1  0.93700000  0.11500000  0.68520000  0.5 0.0593057704
C  C429  1  0.88500000  0.81480000  0.43700000  0.5 0.0593057704
C  C430  1  0.88500000  0.18520000  0.56300000  0.5 0.0593057704
C  C431  1  0.11500000  0.81480000  0.56300000  0.5 0.0593057704
C  C432  1  0.11500000  0.18520000  0.43700000  0.5 0.0593057704
C  C433  1  0.41850000  0.28400000  0.36710000  0.5 0.03184951
C  C434  1  0.58150000  0.71600000  0.36710000  0.5 0.03184951
C  C435  1  0.58150000  0.28400000  0.63290000  0.5 0.03184951
C  C436  1  0.41850000  0.71600000  0.63290000  0.5 0.03184951
C  C437  1  0.36710000  0.41850000  0.28400000  0.5 0.03184951
C  C438  1  0.36710000  0.58150000  0.71600000  0.5 0.03184951
C  C439  1  0.63290000  0.58150000  0.28400000  0.5 0.03184951
C  C440  1  0.63290000  0.41850000  0.71600000  0.5 0.03184951
C  C441  1  0.28400000  0.36710000  0.41850000  0.5 0.03184951
C  C442  1  0.71600000  0.36710000  0.58150000  0.5 0.03184951
C  C443  1  0.28400000  0.63290000  0.58150000  0.5 0.03184951
C  C444  1  0.71600000  0.63290000  0.41850000  0.5 0.03184951
C  C445  1  0.28400000  0.41850000  0.36710000  0.5 0.03184951
C  C446  1  0.71600000  0.58150000  0.36710000  0.5 0.03184951
C  C447  1  0.28400000  0.58150000  0.63290000  0.5 0.03184951
C  C448  1  0.71600000  0.41850000  0.63290000  0.5 0.03184951
C  C449  1  0.41850000  0.36710000  0.28400000  0.5 0.03184951
C  C450  1  0.58150000  0.36710000  0.71600000  0.5 0.03184951
C  C451  1  0.58150000  0.63290000  0.28400000  0.5 0.03184951
C  C452  1  0.41850000  0.63290000  0.71600000  0.5 0.03184951
C  C453  1  0.36710000  0.28400000  0.41850000  0.5 0.03184951
C  C454  1  0.36710000  0.71600000  0.58150000  0.5 0.03184951
C  C455  1  0.63290000  0.28400000  0.58150000  0.5 0.03184951
C  C456  1  0.63290000  0.71600000  0.41850000  0.5 0.03184951
C  C457  1  0.41850000  0.78400000  0.86710000  0.5 0.03184951
C  C458  1  0.58150000  0.21600000  0.86710000  0.5 0.03184951
C  C459  1  0.58150000  0.78400000  0.13290000  0.5 0.03184951
C  C460  1  0.41850000  0.21600000  0.13290000  0.5 0.03184951
C  C461  1  0.36710000  0.91850000  0.78400000  0.5 0.03184951
C  C462  1  0.36710000  0.08150000  0.21600000  0.5 0.03184951
C  C463  1  0.63290000  0.08150000  0.78400000  0.5 0.03184951
C  C464  1  0.63290000  0.91850000  0.21600000  0.5 0.03184951
C  C465  1  0.28400000  0.86710000  0.91850000  0.5 0.03184951
C  C466  1  0.71600000  0.86710000  0.08150000  0.5 0.03184951
C  C467  1  0.28400000  0.13290000  0.08150000  0.5 0.03184951
C  C468  1  0.71600000  0.13290000  0.91850000  0.5 0.03184951
C  C469  1  0.28400000  0.91850000  0.86710000  0.5 0.03184951
C  C470  1  0.71600000  0.08150000  0.86710000  0.5 0.03184951
C  C471  1  0.28400000  0.08150000  0.13290000  0.5 0.03184951
C  C472  1  0.71600000  0.91850000  0.13290000  0.5 0.03184951
C  C473  1  0.41850000  0.86710000  0.78400000  0.5 0.03184951
C  C474  1  0.58150000  0.86710000  0.21600000  0.5 0.03184951
C  C475  1  0.58150000  0.13290000  0.78400000  0.5 0.03184951
C  C476  1  0.41850000  0.13290000  0.21600000  0.5 0.03184951
C  C477  1  0.36710000  0.78400000  0.91850000  0.5 0.03184951
C  C478  1  0.36710000  0.21600000  0.08150000  0.5 0.03184951
C  C479  1  0.63290000  0.78400000  0.08150000  0.5 0.03184951
C  C480  1  0.63290000  0.21600000  0.91850000  0.5 0.03184951
C  C481  1  0.91850000  0.28400000  0.86710000  0.5 0.03184951
C  C482  1  0.08150000  0.71600000  0.86710000  0.5 0.03184951
C  C483  1  0.08150000  0.28400000  0.13290000  0.5 0.03184951
C  C484  1  0.91850000  0.71600000  0.13290000  0.5 0.03184951
C  C485  1  0.86710000  0.41850000  0.78400000  0.5 0.03184951
C  C486  1  0.86710000  0.58150000  0.21600000  0.5 0.03184951
C  C487  1  0.13290000  0.58150000  0.78400000  0.5 0.03184951
C  C488  1  0.13290000  0.41850000  0.21600000  0.5 0.03184951
C  C489  1  0.78400000  0.36710000  0.91850000  0.5 0.03184951
C  C490  1  0.21600000  0.36710000  0.08150000  0.5 0.03184951
C  C491  1  0.78400000  0.63290000  0.08150000  0.5 0.03184951
C  C492  1  0.21600000  0.63290000  0.91850000  0.5 0.03184951
C  C493  1  0.78400000  0.41850000  0.86710000  0.5 0.03184951
C  C494  1  0.21600000  0.58150000  0.86710000  0.5 0.03184951
C  C495  1  0.78400000  0.58150000  0.13290000  0.5 0.03184951
C  C496  1  0.21600000  0.41850000  0.13290000  0.5 0.03184951
C  C497  1  0.91850000  0.36710000  0.78400000  0.5 0.03184951
C  C498  1  0.08150000  0.36710000  0.21600000  0.5 0.03184951
C  C499  1  0.08150000  0.63290000  0.78400000  0.5 0.03184951
C  C500  1  0.91850000  0.63290000  0.21600000  0.5 0.03184951
C  C501  1  0.86710000  0.28400000  0.91850000  0.5 0.03184951
C  C502  1  0.86710000  0.71600000  0.08150000  0.5 0.03184951
C  C503  1  0.13290000  0.28400000  0.08150000  0.5 0.03184951
C  C504  1  0.13290000  0.71600000  0.91850000  0.5 0.03184951
C  C505  1  0.91850000  0.78400000  0.36710000  0.5 0.03184951
C  C506  1  0.08150000  0.21600000  0.36710000  0.5 0.03184951
C  C507  1  0.08150000  0.78400000  0.63290000  0.5 0.03184951
C  C508  1  0.91850000  0.21600000  0.63290000  0.5 0.03184951
C  C509  1  0.86710000  0.91850000  0.28400000  0.5 0.03184951
C  C510  1  0.86710000  0.08150000  0.71600000  0.5 0.03184951
C  C511  1  0.13290000  0.08150000  0.28400000  0.5 0.03184951
C  C512  1  0.13290000  0.91850000  0.71600000  0.5 0.03184951
C  C513  1  0.78400000  0.86710000  0.41850000  0.5 0.03184951
C  C514  1  0.21600000  0.86710000  0.58150000  0.5 0.03184951
C  C515  1  0.78400000  0.13290000  0.58150000  0.5 0.03184951
C  C516  1  0.21600000  0.13290000  0.41850000  0.5 0.03184951
C  C517  1  0.78400000  0.91850000  0.36710000  0.5 0.03184951
C  C518  1  0.21600000  0.08150000  0.36710000  0.5 0.03184951
C  C519  1  0.78400000  0.08150000  0.63290000  0.5 0.03184951
C  C520  1  0.21600000  0.91850000  0.63290000  0.5 0.03184951
C  C521  1  0.91850000  0.86710000  0.28400000  0.5 0.03184951
C  C522  1  0.08150000  0.86710000  0.71600000  0.5 0.03184951
C  C523  1  0.08150000  0.13290000  0.28400000  0.5 0.03184951
C  C524  1  0.91850000  0.13290000  0.71600000  0.5 0.03184951
C  C525  1  0.86710000  0.78400000  0.41850000  0.5 0.03184951
C  C526  1  0.86710000  0.21600000  0.58150000  0.5 0.03184951
C  C527  1  0.13290000  0.78400000  0.58150000  0.5 0.03184951
C  C528  1  0.13290000  0.21600000  0.41850000  0.5 0.03184951
C  C529  1  0.42840000  0.26800000  0.33780000  0.5 -0.1233501471
C  C530  1  0.57160000  0.73200000  0.33780000  0.5 -0.1233501471
C  C531  1  0.57160000  0.26800000  0.66220000  0.5 -0.1233501471
C  C532  1  0.42840000  0.73200000  0.66220000  0.5 -0.1233501471
C  C533  1  0.33780000  0.42840000  0.26800000  0.5 -0.1233501471
C  C534  1  0.33780000  0.57160000  0.73200000  0.5 -0.1233501471
C  C535  1  0.66220000  0.57160000  0.26800000  0.5 -0.1233501471
C  C536  1  0.66220000  0.42840000  0.73200000  0.5 -0.1233501471
C  C537  1  0.26800000  0.33780000  0.42840000  0.5 -0.1233501471
C  C538  1  0.73200000  0.33780000  0.57160000  0.5 -0.1233501471
C  C539  1  0.26800000  0.66220000  0.57160000  0.5 -0.1233501471
C  C540  1  0.73200000  0.66220000  0.42840000  0.5 -0.1233501471
C  C541  1  0.26800000  0.42840000  0.33780000  0.5 -0.1233501471
C  C542  1  0.73200000  0.57160000  0.33780000  0.5 -0.1233501471
C  C543  1  0.26800000  0.57160000  0.66220000  0.5 -0.1233501471
C  C544  1  0.73200000  0.42840000  0.66220000  0.5 -0.1233501471
C  C545  1  0.42840000  0.33780000  0.26800000  0.5 -0.1233501471
C  C546  1  0.57160000  0.33780000  0.73200000  0.5 -0.1233501471
C  C547  1  0.57160000  0.66220000  0.26800000  0.5 -0.1233501471
C  C548  1  0.42840000  0.66220000  0.73200000  0.5 -0.1233501471
C  C549  1  0.33780000  0.26800000  0.42840000  0.5 -0.1233501471
C  C550  1  0.33780000  0.73200000  0.57160000  0.5 -0.1233501471
C  C551  1  0.66220000  0.26800000  0.57160000  0.5 -0.1233501471
C  C552  1  0.66220000  0.73200000  0.42840000  0.5 -0.1233501471
C  C553  1  0.42840000  0.76800000  0.83780000  0.5 -0.1233501471
C  C554  1  0.57160000  0.23200000  0.83780000  0.5 -0.1233501471
C  C555  1  0.57160000  0.76800000  0.16220000  0.5 -0.1233501471
C  C556  1  0.42840000  0.23200000  0.16220000  0.5 -0.1233501471
C  C557  1  0.33780000  0.92840000  0.76800000  0.5 -0.1233501471
C  C558  1  0.33780000  0.07160000  0.23200000  0.5 -0.1233501471
C  C559  1  0.66220000  0.07160000  0.76800000  0.5 -0.1233501471
C  C560  1  0.66220000  0.92840000  0.23200000  0.5 -0.1233501471
C  C561  1  0.26800000  0.83780000  0.92840000  0.5 -0.1233501471
C  C562  1  0.73200000  0.83780000  0.07160000  0.5 -0.1233501471
C  C563  1  0.26800000  0.16220000  0.07160000  0.5 -0.1233501471
C  C564  1  0.73200000  0.16220000  0.92840000  0.5 -0.1233501471
C  C565  1  0.26800000  0.92840000  0.83780000  0.5 -0.1233501471
C  C566  1  0.73200000  0.07160000  0.83780000  0.5 -0.1233501471
C  C567  1  0.26800000  0.07160000  0.16220000  0.5 -0.1233501471
C  C568  1  0.73200000  0.92840000  0.16220000  0.5 -0.1233501471
C  C569  1  0.42840000  0.83780000  0.76800000  0.5 -0.1233501471
C  C570  1  0.57160000  0.83780000  0.23200000  0.5 -0.1233501471
C  C571  1  0.57160000  0.16220000  0.76800000  0.5 -0.1233501471
C  C572  1  0.42840000  0.16220000  0.23200000  0.5 -0.1233501471
C  C573  1  0.33780000  0.76800000  0.92840000  0.5 -0.1233501471
C  C574  1  0.33780000  0.23200000  0.07160000  0.5 -0.1233501471
C  C575  1  0.66220000  0.76800000  0.07160000  0.5 -0.1233501471
C  C576  1  0.66220000  0.23200000  0.92840000  0.5 -0.1233501471
C  C577  1  0.92840000  0.26800000  0.83780000  0.5 -0.1233501471
C  C578  1  0.07160000  0.73200000  0.83780000  0.5 -0.1233501471
C  C579  1  0.07160000  0.26800000  0.16220000  0.5 -0.1233501471
C  C580  1  0.92840000  0.73200000  0.16220000  0.5 -0.1233501471
C  C581  1  0.83780000  0.42840000  0.76800000  0.5 -0.1233501471
C  C582  1  0.83780000  0.57160000  0.23200000  0.5 -0.1233501471
C  C583  1  0.16220000  0.57160000  0.76800000  0.5 -0.1233501471
C  C584  1  0.16220000  0.42840000  0.23200000  0.5 -0.1233501471
C  C585  1  0.76800000  0.33780000  0.92840000  0.5 -0.1233501471
C  C586  1  0.23200000  0.33780000  0.07160000  0.5 -0.1233501471
C  C587  1  0.76800000  0.66220000  0.07160000  0.5 -0.1233501471
C  C588  1  0.23200000  0.66220000  0.92840000  0.5 -0.1233501471
C  C589  1  0.76800000  0.42840000  0.83780000  0.5 -0.1233501471
C  C590  1  0.23200000  0.57160000  0.83780000  0.5 -0.1233501471
C  C591  1  0.76800000  0.57160000  0.16220000  0.5 -0.1233501471
C  C592  1  0.23200000  0.42840000  0.16220000  0.5 -0.1233501471
C  C593  1  0.92840000  0.33780000  0.76800000  0.5 -0.1233501471
C  C594  1  0.07160000  0.33780000  0.23200000  0.5 -0.1233501471
C  C595  1  0.07160000  0.66220000  0.76800000  0.5 -0.1233501471
C  C596  1  0.92840000  0.66220000  0.23200000  0.5 -0.1233501471
C  C597  1  0.83780000  0.26800000  0.92840000  0.5 -0.1233501471
C  C598  1  0.83780000  0.73200000  0.07160000  0.5 -0.1233501471
C  C599  1  0.16220000  0.26800000  0.07160000  0.5 -0.1233501471
C  C600  1  0.16220000  0.73200000  0.92840000  0.5 -0.1233501471
C  C601  1  0.92840000  0.76800000  0.33780000  0.5 -0.1233501471
C  C602  1  0.07160000  0.23200000  0.33780000  0.5 -0.1233501471
C  C603  1  0.07160000  0.76800000  0.66220000  0.5 -0.1233501471
C  C604  1  0.92840000  0.23200000  0.66220000  0.5 -0.1233501471
C  C605  1  0.83780000  0.92840000  0.26800000  0.5 -0.1233501471
C  C606  1  0.83780000  0.07160000  0.73200000  0.5 -0.1233501471
C  C607  1  0.16220000  0.07160000  0.26800000  0.5 -0.1233501471
C  C608  1  0.16220000  0.92840000  0.73200000  0.5 -0.1233501471
C  C609  1  0.76800000  0.83780000  0.42840000  0.5 -0.1233501471
C  C610  1  0.23200000  0.83780000  0.57160000  0.5 -0.1233501471
C  C611  1  0.76800000  0.16220000  0.57160000  0.5 -0.1233501471
C  C612  1  0.23200000  0.16220000  0.42840000  0.5 -0.1233501471
C  C613  1  0.76800000  0.92840000  0.33780000  0.5 -0.1233501471
C  C614  1  0.23200000  0.07160000  0.33780000  0.5 -0.1233501471
C  C615  1  0.76800000  0.07160000  0.66220000  0.5 -0.1233501471
C  C616  1  0.23200000  0.92840000  0.66220000  0.5 -0.1233501471
C  C617  1  0.92840000  0.83780000  0.26800000  0.5 -0.1233501471
C  C618  1  0.07160000  0.83780000  0.73200000  0.5 -0.1233501471
C  C619  1  0.07160000  0.16220000  0.26800000  0.5 -0.1233501471
C  C620  1  0.92840000  0.16220000  0.73200000  0.5 -0.1233501471
C  C621  1  0.83780000  0.76800000  0.42840000  0.5 -0.1233501471
C  C622  1  0.83780000  0.23200000  0.57160000  0.5 -0.1233501471
C  C623  1  0.16220000  0.76800000  0.57160000  0.5 -0.1233501471
C  C624  1  0.16220000  0.23200000  0.42840000  0.5 -0.1233501471
C  C625  1  0.47290000  0.31950000  0.38130000  0.5 -0.0779104971
C  C626  1  0.52710000  0.68050000  0.38130000  0.5 -0.0779104971
C  C627  1  0.52710000  0.31950000  0.61870000  0.5 -0.0779104971
C  C628  1  0.47290000  0.68050000  0.61870000  0.5 -0.0779104971
C  C629  1  0.38130000  0.47290000  0.31950000  0.5 -0.0779104971
C  C630  1  0.38130000  0.52710000  0.68050000  0.5 -0.0779104971
C  C631  1  0.61870000  0.52710000  0.31950000  0.5 -0.0779104971
C  C632  1  0.61870000  0.47290000  0.68050000  0.5 -0.0779104971
C  C633  1  0.31950000  0.38130000  0.47290000  0.5 -0.0779104971
C  C634  1  0.68050000  0.38130000  0.52710000  0.5 -0.0779104971
C  C635  1  0.31950000  0.61870000  0.52710000  0.5 -0.0779104971
C  C636  1  0.68050000  0.61870000  0.47290000  0.5 -0.0779104971
C  C637  1  0.31950000  0.47290000  0.38130000  0.5 -0.0779104971
C  C638  1  0.68050000  0.52710000  0.38130000  0.5 -0.0779104971
C  C639  1  0.31950000  0.52710000  0.61870000  0.5 -0.0779104971
C  C640  1  0.68050000  0.47290000  0.61870000  0.5 -0.0779104971
C  C641  1  0.47290000  0.38130000  0.31950000  0.5 -0.0779104971
C  C642  1  0.52710000  0.38130000  0.68050000  0.5 -0.0779104971
C  C643  1  0.52710000  0.61870000  0.31950000  0.5 -0.0779104971
C  C644  1  0.47290000  0.61870000  0.68050000  0.5 -0.0779104971
C  C645  1  0.38130000  0.31950000  0.47290000  0.5 -0.0779104971
C  C646  1  0.38130000  0.68050000  0.52710000  0.5 -0.0779104971
C  C647  1  0.61870000  0.31950000  0.52710000  0.5 -0.0779104971
C  C648  1  0.61870000  0.68050000  0.47290000  0.5 -0.0779104971
C  C649  1  0.47290000  0.81950000  0.88130000  0.5 -0.0779104971
C  C650  1  0.52710000  0.18050000  0.88130000  0.5 -0.0779104971
C  C651  1  0.52710000  0.81950000  0.11870000  0.5 -0.0779104971
C  C652  1  0.47290000  0.18050000  0.11870000  0.5 -0.0779104971
C  C653  1  0.38130000  0.97290000  0.81950000  0.5 -0.0779104971
C  C654  1  0.38130000  0.02710000  0.18050000  0.5 -0.0779104971
C  C655  1  0.61870000  0.02710000  0.81950000  0.5 -0.0779104971
C  C656  1  0.61870000  0.97290000  0.18050000  0.5 -0.0779104971
C  C657  1  0.31950000  0.88130000  0.97290000  0.5 -0.0779104971
C  C658  1  0.68050000  0.88130000  0.02710000  0.5 -0.0779104971
C  C659  1  0.31950000  0.11870000  0.02710000  0.5 -0.0779104971
C  C660  1  0.68050000  0.11870000  0.97290000  0.5 -0.0779104971
C  C661  1  0.31950000  0.97290000  0.88130000  0.5 -0.0779104971
C  C662  1  0.68050000  0.02710000  0.88130000  0.5 -0.0779104971
C  C663  1  0.31950000  0.02710000  0.11870000  0.5 -0.0779104971
C  C664  1  0.68050000  0.97290000  0.11870000  0.5 -0.0779104971
C  C665  1  0.47290000  0.88130000  0.81950000  0.5 -0.0779104971
C  C666  1  0.52710000  0.88130000  0.18050000  0.5 -0.0779104971
C  C667  1  0.52710000  0.11870000  0.81950000  0.5 -0.0779104971
C  C668  1  0.47290000  0.11870000  0.18050000  0.5 -0.0779104971
C  C669  1  0.38130000  0.81950000  0.97290000  0.5 -0.0779104971
C  C670  1  0.38130000  0.18050000  0.02710000  0.5 -0.0779104971
C  C671  1  0.61870000  0.81950000  0.02710000  0.5 -0.0779104971
C  C672  1  0.61870000  0.18050000  0.97290000  0.5 -0.0779104971
C  C673  1  0.97290000  0.31950000  0.88130000  0.5 -0.0779104971
C  C674  1  0.02710000  0.68050000  0.88130000  0.5 -0.0779104971
C  C675  1  0.02710000  0.31950000  0.11870000  0.5 -0.0779104971
C  C676  1  0.97290000  0.68050000  0.11870000  0.5 -0.0779104971
C  C677  1  0.88130000  0.47290000  0.81950000  0.5 -0.0779104971
C  C678  1  0.88130000  0.52710000  0.18050000  0.5 -0.0779104971
C  C679  1  0.11870000  0.52710000  0.81950000  0.5 -0.0779104971
C  C680  1  0.11870000  0.47290000  0.18050000  0.5 -0.0779104971
C  C681  1  0.81950000  0.38130000  0.97290000  0.5 -0.0779104971
C  C682  1  0.18050000  0.38130000  0.02710000  0.5 -0.0779104971
C  C683  1  0.81950000  0.61870000  0.02710000  0.5 -0.0779104971
C  C684  1  0.18050000  0.61870000  0.97290000  0.5 -0.0779104971
C  C685  1  0.81950000  0.47290000  0.88130000  0.5 -0.0779104971
C  C686  1  0.18050000  0.52710000  0.88130000  0.5 -0.0779104971
C  C687  1  0.81950000  0.52710000  0.11870000  0.5 -0.0779104971
C  C688  1  0.18050000  0.47290000  0.11870000  0.5 -0.0779104971
C  C689  1  0.97290000  0.38130000  0.81950000  0.5 -0.0779104971
C  C690  1  0.02710000  0.38130000  0.18050000  0.5 -0.0779104971
C  C691  1  0.02710000  0.61870000  0.81950000  0.5 -0.0779104971
C  C692  1  0.97290000  0.61870000  0.18050000  0.5 -0.0779104971
C  C693  1  0.88130000  0.31950000  0.97290000  0.5 -0.0779104971
C  C694  1  0.88130000  0.68050000  0.02710000  0.5 -0.0779104971
C  C695  1  0.11870000  0.31950000  0.02710000  0.5 -0.0779104971
C  C696  1  0.11870000  0.68050000  0.97290000  0.5 -0.0779104971
C  C697  1  0.97290000  0.81950000  0.38130000  0.5 -0.0779104971
C  C698  1  0.02710000  0.18050000  0.38130000  0.5 -0.0779104971
C  C699  1  0.02710000  0.81950000  0.61870000  0.5 -0.0779104971
C  C700  1  0.97290000  0.18050000  0.61870000  0.5 -0.0779104971
C  C701  1  0.88130000  0.97290000  0.31950000  0.5 -0.0779104971
C  C702  1  0.88130000  0.02710000  0.68050000  0.5 -0.0779104971
C  C703  1  0.11870000  0.02710000  0.31950000  0.5 -0.0779104971
C  C704  1  0.11870000  0.97290000  0.68050000  0.5 -0.0779104971
C  C705  1  0.81950000  0.88130000  0.47290000  0.5 -0.0779104971
C  C706  1  0.18050000  0.88130000  0.52710000  0.5 -0.0779104971
C  C707  1  0.81950000  0.11870000  0.52710000  0.5 -0.0779104971
C  C708  1  0.18050000  0.11870000  0.47290000  0.5 -0.0779104971
C  C709  1  0.81950000  0.97290000  0.38130000  0.5 -0.0779104971
C  C710  1  0.18050000  0.02710000  0.38130000  0.5 -0.0779104971
C  C711  1  0.81950000  0.02710000  0.61870000  0.5 -0.0779104971
C  C712  1  0.18050000  0.97290000  0.61870000  0.5 -0.0779104971
C  C713  1  0.97290000  0.88130000  0.31950000  0.5 -0.0779104971
C  C714  1  0.02710000  0.88130000  0.68050000  0.5 -0.0779104971
C  C715  1  0.02710000  0.11870000  0.31950000  0.5 -0.0779104971
C  C716  1  0.97290000  0.11870000  0.68050000  0.5 -0.0779104971
C  C717  1  0.88130000  0.81950000  0.47290000  0.5 -0.0779104971
C  C718  1  0.88130000  0.18050000  0.52710000  0.5 -0.0779104971
C  C719  1  0.11870000  0.81950000  0.52710000  0.5 -0.0779104971
C  C720  1  0.11870000  0.18050000  0.47290000  0.5 -0.0779104971
C  C721  1  0.48980000  0.34220000  0.40000000  0.5 -0.0119490247
C  C722  1  0.51020000  0.65780000  0.40000000  0.5 -0.0119490247
C  C723  1  0.51020000  0.34220000  0.60000000  0.5 -0.0119490247
C  C724  1  0.48980000  0.65780000  0.60000000  0.5 -0.0119490247
C  C725  1  0.40000000  0.48980000  0.34220000  0.5 -0.0119490247
C  C726  1  0.40000000  0.51020000  0.65780000  0.5 -0.0119490247
C  C727  1  0.60000000  0.51020000  0.34220000  0.5 -0.0119490247
C  C728  1  0.60000000  0.48980000  0.65780000  0.5 -0.0119490247
C  C729  1  0.34220000  0.40000000  0.48980000  0.5 -0.0119490247
C  C730  1  0.65780000  0.40000000  0.51020000  0.5 -0.0119490247
C  C731  1  0.34220000  0.60000000  0.51020000  0.5 -0.0119490247
C  C732  1  0.65780000  0.60000000  0.48980000  0.5 -0.0119490247
C  C733  1  0.34220000  0.48980000  0.40000000  0.5 -0.0119490247
C  C734  1  0.65780000  0.51020000  0.40000000  0.5 -0.0119490247
C  C735  1  0.34220000  0.51020000  0.60000000  0.5 -0.0119490247
C  C736  1  0.65780000  0.48980000  0.60000000  0.5 -0.0119490247
C  C737  1  0.48980000  0.40000000  0.34220000  0.5 -0.0119490247
C  C738  1  0.51020000  0.40000000  0.65780000  0.5 -0.0119490247
C  C739  1  0.51020000  0.60000000  0.34220000  0.5 -0.0119490247
C  C740  1  0.48980000  0.60000000  0.65780000  0.5 -0.0119490247
C  C741  1  0.40000000  0.34220000  0.48980000  0.5 -0.0119490247
C  C742  1  0.40000000  0.65780000  0.51020000  0.5 -0.0119490247
C  C743  1  0.60000000  0.34220000  0.51020000  0.5 -0.0119490247
C  C744  1  0.60000000  0.65780000  0.48980000  0.5 -0.0119490247
C  C745  1  0.48980000  0.84220000  0.90000000  0.5 -0.0119490247
C  C746  1  0.51020000  0.15780000  0.90000000  0.5 -0.0119490247
C  C747  1  0.51020000  0.84220000  0.10000000  0.5 -0.0119490247
C  C748  1  0.48980000  0.15780000  0.10000000  0.5 -0.0119490247
C  C749  1  0.40000000  0.98980000  0.84220000  0.5 -0.0119490247
C  C750  1  0.40000000  0.01020000  0.15780000  0.5 -0.0119490247
C  C751  1  0.60000000  0.01020000  0.84220000  0.5 -0.0119490247
C  C752  1  0.60000000  0.98980000  0.15780000  0.5 -0.0119490247
C  C753  1  0.34220000  0.90000000  0.98980000  0.5 -0.0119490247
C  C754  1  0.65780000  0.90000000  0.01020000  0.5 -0.0119490247
C  C755  1  0.34220000  0.10000000  0.01020000  0.5 -0.0119490247
C  C756  1  0.65780000  0.10000000  0.98980000  0.5 -0.0119490247
C  C757  1  0.34220000  0.98980000  0.90000000  0.5 -0.0119490247
C  C758  1  0.65780000  0.01020000  0.90000000  0.5 -0.0119490247
C  C759  1  0.34220000  0.01020000  0.10000000  0.5 -0.0119490247
C  C760  1  0.65780000  0.98980000  0.10000000  0.5 -0.0119490247
C  C761  1  0.48980000  0.90000000  0.84220000  0.5 -0.0119490247
C  C762  1  0.51020000  0.90000000  0.15780000  0.5 -0.0119490247
C  C763  1  0.51020000  0.10000000  0.84220000  0.5 -0.0119490247
C  C764  1  0.48980000  0.10000000  0.15780000  0.5 -0.0119490247
C  C765  1  0.40000000  0.84220000  0.98980000  0.5 -0.0119490247
C  C766  1  0.40000000  0.15780000  0.01020000  0.5 -0.0119490247
C  C767  1  0.60000000  0.84220000  0.01020000  0.5 -0.0119490247
C  C768  1  0.60000000  0.15780000  0.98980000  0.5 -0.0119490247
C  C769  1  0.98980000  0.34220000  0.90000000  0.5 -0.0119490247
C  C770  1  0.01020000  0.65780000  0.90000000  0.5 -0.0119490247
C  C771  1  0.01020000  0.34220000  0.10000000  0.5 -0.0119490247
C  C772  1  0.98980000  0.65780000  0.10000000  0.5 -0.0119490247
C  C773  1  0.90000000  0.48980000  0.84220000  0.5 -0.0119490247
C  C774  1  0.90000000  0.51020000  0.15780000  0.5 -0.0119490247
C  C775  1  0.10000000  0.51020000  0.84220000  0.5 -0.0119490247
C  C776  1  0.10000000  0.48980000  0.15780000  0.5 -0.0119490247
C  C777  1  0.84220000  0.40000000  0.98980000  0.5 -0.0119490247
C  C778  1  0.15780000  0.40000000  0.01020000  0.5 -0.0119490247
C  C779  1  0.84220000  0.60000000  0.01020000  0.5 -0.0119490247
C  C780  1  0.15780000  0.60000000  0.98980000  0.5 -0.0119490247
C  C781  1  0.84220000  0.48980000  0.90000000  0.5 -0.0119490247
C  C782  1  0.15780000  0.51020000  0.90000000  0.5 -0.0119490247
C  C783  1  0.84220000  0.51020000  0.10000000  0.5 -0.0119490247
C  C784  1  0.15780000  0.48980000  0.10000000  0.5 -0.0119490247
C  C785  1  0.98980000  0.40000000  0.84220000  0.5 -0.0119490247
C  C786  1  0.01020000  0.40000000  0.15780000  0.5 -0.0119490247
C  C787  1  0.01020000  0.60000000  0.84220000  0.5 -0.0119490247
C  C788  1  0.98980000  0.60000000  0.15780000  0.5 -0.0119490247
C  C789  1  0.90000000  0.34220000  0.98980000  0.5 -0.0119490247
C  C790  1  0.90000000  0.65780000  0.01020000  0.5 -0.0119490247
C  C791  1  0.10000000  0.34220000  0.01020000  0.5 -0.0119490247
C  C792  1  0.10000000  0.65780000  0.98980000  0.5 -0.0119490247
C  C793  1  0.98980000  0.84220000  0.40000000  0.5 -0.0119490247
C  C794  1  0.01020000  0.15780000  0.40000000  0.5 -0.0119490247
C  C795  1  0.01020000  0.84220000  0.60000000  0.5 -0.0119490247
C  C796  1  0.98980000  0.15780000  0.60000000  0.5 -0.0119490247
C  C797  1  0.90000000  0.98980000  0.34220000  0.5 -0.0119490247
C  C798  1  0.90000000  0.01020000  0.65780000  0.5 -0.0119490247
C  C799  1  0.10000000  0.01020000  0.34220000  0.5 -0.0119490247
C  C800  1  0.10000000  0.98980000  0.65780000  0.5 -0.0119490247
C  C801  1  0.84220000  0.90000000  0.48980000  0.5 -0.0119490247
C  C802  1  0.15780000  0.90000000  0.51020000  0.5 -0.0119490247
C  C803  1  0.84220000  0.10000000  0.51020000  0.5 -0.0119490247
C  C804  1  0.15780000  0.10000000  0.48980000  0.5 -0.0119490247
C  C805  1  0.84220000  0.98980000  0.40000000  0.5 -0.0119490247
C  C806  1  0.15780000  0.01020000  0.40000000  0.5 -0.0119490247
C  C807  1  0.84220000  0.01020000  0.60000000  0.5 -0.0119490247
C  C808  1  0.15780000  0.98980000  0.60000000  0.5 -0.0119490247
C  C809  1  0.98980000  0.90000000  0.34220000  0.5 -0.0119490247
C  C810  1  0.01020000  0.90000000  0.65780000  0.5 -0.0119490247
C  C811  1  0.01020000  0.10000000  0.34220000  0.5 -0.0119490247
C  C812  1  0.98980000  0.10000000  0.65780000  0.5 -0.0119490247
C  C813  1  0.90000000  0.84220000  0.48980000  0.5 -0.0119490247
C  C814  1  0.90000000  0.15780000  0.51020000  0.5 -0.0119490247
C  C815  1  0.10000000  0.84220000  0.51020000  0.5 -0.0119490247
C  C816  1  0.10000000  0.15780000  0.48980000  0.5 -0.0119490247
C  C817  1  0.41260000  0.24020000  0.32550000  0.5 -0.0296461327
C  C818  1  0.58740000  0.75980000  0.32550000  0.5 -0.0296461327
C  C819  1  0.58740000  0.24020000  0.67450000  0.5 -0.0296461327
C  C820  1  0.41260000  0.75980000  0.67450000  0.5 -0.0296461327
C  C821  1  0.32550000  0.41260000  0.24020000  0.5 -0.0296461327
C  C822  1  0.32550000  0.58740000  0.75980000  0.5 -0.0296461327
C  C823  1  0.67450000  0.58740000  0.24020000  0.5 -0.0296461327
C  C824  1  0.67450000  0.41260000  0.75980000  0.5 -0.0296461327
C  C825  1  0.24020000  0.32550000  0.41260000  0.5 -0.0296461327
C  C826  1  0.75980000  0.32550000  0.58740000  0.5 -0.0296461327
C  C827  1  0.24020000  0.67450000  0.58740000  0.5 -0.0296461327
C  C828  1  0.75980000  0.67450000  0.41260000  0.5 -0.0296461327
C  C829  1  0.24020000  0.41260000  0.32550000  0.5 -0.0296461327
C  C830  1  0.75980000  0.58740000  0.32550000  0.5 -0.0296461327
C  C831  1  0.24020000  0.58740000  0.67450000  0.5 -0.0296461327
C  C832  1  0.75980000  0.41260000  0.67450000  0.5 -0.0296461327
C  C833  1  0.41260000  0.32550000  0.24020000  0.5 -0.0296461327
C  C834  1  0.58740000  0.32550000  0.75980000  0.5 -0.0296461327
C  C835  1  0.58740000  0.67450000  0.24020000  0.5 -0.0296461327
C  C836  1  0.41260000  0.67450000  0.75980000  0.5 -0.0296461327
C  C837  1  0.32550000  0.24020000  0.41260000  0.5 -0.0296461327
C  C838  1  0.32550000  0.75980000  0.58740000  0.5 -0.0296461327
C  C839  1  0.67450000  0.24020000  0.58740000  0.5 -0.0296461327
C  C840  1  0.67450000  0.75980000  0.41260000  0.5 -0.0296461327
C  C841  1  0.41260000  0.74020000  0.82550000  0.5 -0.0296461327
C  C842  1  0.58740000  0.25980000  0.82550000  0.5 -0.0296461327
C  C843  1  0.58740000  0.74020000  0.17450000  0.5 -0.0296461327
C  C844  1  0.41260000  0.25980000  0.17450000  0.5 -0.0296461327
C  C845  1  0.32550000  0.91260000  0.74020000  0.5 -0.0296461327
C  C846  1  0.32550000  0.08740000  0.25980000  0.5 -0.0296461327
C  C847  1  0.67450000  0.08740000  0.74020000  0.5 -0.0296461327
C  C848  1  0.67450000  0.91260000  0.25980000  0.5 -0.0296461327
C  C849  1  0.24020000  0.82550000  0.91260000  0.5 -0.0296461327
C  C850  1  0.75980000  0.82550000  0.08740000  0.5 -0.0296461327
C  C851  1  0.24020000  0.17450000  0.08740000  0.5 -0.0296461327
C  C852  1  0.75980000  0.17450000  0.91260000  0.5 -0.0296461327
C  C853  1  0.24020000  0.91260000  0.82550000  0.5 -0.0296461327
C  C854  1  0.75980000  0.08740000  0.82550000  0.5 -0.0296461327
C  C855  1  0.24020000  0.08740000  0.17450000  0.5 -0.0296461327
C  C856  1  0.75980000  0.91260000  0.17450000  0.5 -0.0296461327
C  C857  1  0.41260000  0.82550000  0.74020000  0.5 -0.0296461327
C  C858  1  0.58740000  0.82550000  0.25980000  0.5 -0.0296461327
C  C859  1  0.58740000  0.17450000  0.74020000  0.5 -0.0296461327
C  C860  1  0.41260000  0.17450000  0.25980000  0.5 -0.0296461327
C  C861  1  0.32550000  0.74020000  0.91260000  0.5 -0.0296461327
C  C862  1  0.32550000  0.25980000  0.08740000  0.5 -0.0296461327
C  C863  1  0.67450000  0.74020000  0.08740000  0.5 -0.0296461327
C  C864  1  0.67450000  0.25980000  0.91260000  0.5 -0.0296461327
C  C865  1  0.91260000  0.24020000  0.82550000  0.5 -0.0296461327
C  C866  1  0.08740000  0.75980000  0.82550000  0.5 -0.0296461327
C  C867  1  0.08740000  0.24020000  0.17450000  0.5 -0.0296461327
C  C868  1  0.91260000  0.75980000  0.17450000  0.5 -0.0296461327
C  C869  1  0.82550000  0.41260000  0.74020000  0.5 -0.0296461327
C  C870  1  0.82550000  0.58740000  0.25980000  0.5 -0.0296461327
C  C871  1  0.17450000  0.58740000  0.74020000  0.5 -0.0296461327
C  C872  1  0.17450000  0.41260000  0.25980000  0.5 -0.0296461327
C  C873  1  0.74020000  0.32550000  0.91260000  0.5 -0.0296461327
C  C874  1  0.25980000  0.32550000  0.08740000  0.5 -0.0296461327
C  C875  1  0.74020000  0.67450000  0.08740000  0.5 -0.0296461327
C  C876  1  0.25980000  0.67450000  0.91260000  0.5 -0.0296461327
C  C877  1  0.74020000  0.41260000  0.82550000  0.5 -0.0296461327
C  C878  1  0.25980000  0.58740000  0.82550000  0.5 -0.0296461327
C  C879  1  0.74020000  0.58740000  0.17450000  0.5 -0.0296461327
C  C880  1  0.25980000  0.41260000  0.17450000  0.5 -0.0296461327
C  C881  1  0.91260000  0.32550000  0.74020000  0.5 -0.0296461327
C  C882  1  0.08740000  0.32550000  0.25980000  0.5 -0.0296461327
C  C883  1  0.08740000  0.67450000  0.74020000  0.5 -0.0296461327
C  C884  1  0.91260000  0.67450000  0.25980000  0.5 -0.0296461327
C  C885  1  0.82550000  0.24020000  0.91260000  0.5 -0.0296461327
C  C886  1  0.82550000  0.75980000  0.08740000  0.5 -0.0296461327
C  C887  1  0.17450000  0.24020000  0.08740000  0.5 -0.0296461327
C  C888  1  0.17450000  0.75980000  0.91260000  0.5 -0.0296461327
C  C889  1  0.91260000  0.74020000  0.32550000  0.5 -0.0296461327
C  C890  1  0.08740000  0.25980000  0.32550000  0.5 -0.0296461327
C  C891  1  0.08740000  0.74020000  0.67450000  0.5 -0.0296461327
C  C892  1  0.91260000  0.25980000  0.67450000  0.5 -0.0296461327
C  C893  1  0.82550000  0.91260000  0.24020000  0.5 -0.0296461327
C  C894  1  0.82550000  0.08740000  0.75980000  0.5 -0.0296461327
C  C895  1  0.17450000  0.08740000  0.24020000  0.5 -0.0296461327
C  C896  1  0.17450000  0.91260000  0.75980000  0.5 -0.0296461327
C  C897  1  0.74020000  0.82550000  0.41260000  0.5 -0.0296461327
C  C898  1  0.25980000  0.82550000  0.58740000  0.5 -0.0296461327
C  C899  1  0.74020000  0.17450000  0.58740000  0.5 -0.0296461327
C  C900  1  0.25980000  0.17450000  0.41260000  0.5 -0.0296461327
C  C901  1  0.74020000  0.91260000  0.32550000  0.5 -0.0296461327
C  C902  1  0.25980000  0.08740000  0.32550000  0.5 -0.0296461327
C  C903  1  0.74020000  0.08740000  0.67450000  0.5 -0.0296461327
C  C904  1  0.25980000  0.91260000  0.67450000  0.5 -0.0296461327
C  C905  1  0.91260000  0.82550000  0.24020000  0.5 -0.0296461327
C  C906  1  0.08740000  0.82550000  0.75980000  0.5 -0.0296461327
C  C907  1  0.08740000  0.17450000  0.24020000  0.5 -0.0296461327
C  C908  1  0.91260000  0.17450000  0.75980000  0.5 -0.0296461327
C  C909  1  0.82550000  0.74020000  0.41260000  0.5 -0.0296461327
C  C910  1  0.82550000  0.25980000  0.58740000  0.5 -0.0296461327
C  C911  1  0.17450000  0.74020000  0.58740000  0.5 -0.0296461327
C  C912  1  0.17450000  0.25980000  0.41260000  0.5 -0.0296461327
C  C961  1  0.49470000  0.38860000  0.43700000  0.5 0.3392408413
C  C962  1  0.50530000  0.61140000  0.43700000  0.5 0.3392408413
C  C963  1  0.50530000  0.38860000  0.56300000  0.5 0.3392408413
C  C964  1  0.49470000  0.61140000  0.56300000  0.5 0.3392408413
C  C965  1  0.43700000  0.49470000  0.38860000  0.5 0.3392408413
C  C966  1  0.43700000  0.50530000  0.61140000  0.5 0.3392408413
C  C967  1  0.56300000  0.50530000  0.38860000  0.5 0.3392408413
C  C968  1  0.56300000  0.49470000  0.61140000  0.5 0.3392408413
C  C969  1  0.38860000  0.43700000  0.49470000  0.5 0.3392408413
C  C970  1  0.61140000  0.43700000  0.50530000  0.5 0.3392408413
C  C971  1  0.38860000  0.56300000  0.50530000  0.5 0.3392408413
C  C972  1  0.61140000  0.56300000  0.49470000  0.5 0.3392408413
C  C973  1  0.38860000  0.49470000  0.43700000  0.5 0.3392408413
C  C974  1  0.61140000  0.50530000  0.43700000  0.5 0.3392408413
C  C975  1  0.38860000  0.50530000  0.56300000  0.5 0.3392408413
C  C976  1  0.61140000  0.49470000  0.56300000  0.5 0.3392408413
C  C977  1  0.49470000  0.43700000  0.38860000  0.5 0.3392408413
C  C978  1  0.50530000  0.43700000  0.61140000  0.5 0.3392408413
C  C979  1  0.50530000  0.56300000  0.38860000  0.5 0.3392408413
C  C980  1  0.49470000  0.56300000  0.61140000  0.5 0.3392408413
C  C981  1  0.43700000  0.38860000  0.49470000  0.5 0.3392408413
C  C982  1  0.43700000  0.61140000  0.50530000  0.5 0.3392408413
C  C983  1  0.56300000  0.38860000  0.50530000  0.5 0.3392408413
C  C984  1  0.56300000  0.61140000  0.49470000  0.5 0.3392408413
C  C985  1  0.49470000  0.88860000  0.93700000  0.5 0.3392408413
C  C986  1  0.50530000  0.11140000  0.93700000  0.5 0.3392408413
C  C987  1  0.50530000  0.88860000  0.06300000  0.5 0.3392408413
C  C988  1  0.49470000  0.11140000  0.06300000  0.5 0.3392408413
C  C989  1  0.43700000  0.99470000  0.88860000  0.5 0.3392408413
C  C990  1  0.43700000  0.00530000  0.11140000  0.5 0.3392408413
C  C991  1  0.56300000  0.00530000  0.88860000  0.5 0.3392408413
C  C992  1  0.56300000  0.99470000  0.11140000  0.5 0.3392408413
C  C993  1  0.38860000  0.93700000  0.99470000  0.5 0.3392408413
C  C994  1  0.61140000  0.93700000  0.00530000  0.5 0.3392408413
C  C995  1  0.38860000  0.06300000  0.00530000  0.5 0.3392408413
C  C996  1  0.61140000  0.06300000  0.99470000  0.5 0.3392408413
C  C997  1  0.38860000  0.99470000  0.93700000  0.5 0.3392408413
C  C998  1  0.61140000  0.00530000  0.93700000  0.5 0.3392408413
C  C999  1  0.38860000  0.00530000  0.06300000  0.5 0.3392408413
C  C1000  1  0.61140000  0.99470000  0.06300000  0.5 0.3392408413
C  C1001  1  0.49470000  0.93700000  0.88860000  0.5 0.3392408413
C  C1002  1  0.50530000  0.93700000  0.11140000  0.5 0.3392408413
C  C1003  1  0.50530000  0.06300000  0.88860000  0.5 0.3392408413
C  C1004  1  0.49470000  0.06300000  0.11140000  0.5 0.3392408413
C  C1005  1  0.43700000  0.88860000  0.99470000  0.5 0.3392408413
C  C1006  1  0.43700000  0.11140000  0.00530000  0.5 0.3392408413
C  C1007  1  0.56300000  0.88860000  0.00530000  0.5 0.3392408413
C  C1008  1  0.56300000  0.11140000  0.99470000  0.5 0.3392408413
C  C1009  1  0.99470000  0.38860000  0.93700000  0.5 0.3392408413
C  C1010  1  0.00530000  0.61140000  0.93700000  0.5 0.3392408413
C  C1011  1  0.00530000  0.38860000  0.06300000  0.5 0.3392408413
C  C1012  1  0.99470000  0.61140000  0.06300000  0.5 0.3392408413
C  C1013  1  0.93700000  0.49470000  0.88860000  0.5 0.3392408413
C  C1014  1  0.93700000  0.50530000  0.11140000  0.5 0.3392408413
C  C1015  1  0.06300000  0.50530000  0.88860000  0.5 0.3392408413
C  C1016  1  0.06300000  0.49470000  0.11140000  0.5 0.3392408413
C  C1017  1  0.88860000  0.43700000  0.99470000  0.5 0.3392408413
C  C1018  1  0.11140000  0.43700000  0.00530000  0.5 0.3392408413
C  C1019  1  0.88860000  0.56300000  0.00530000  0.5 0.3392408413
C  C1020  1  0.11140000  0.56300000  0.99470000  0.5 0.3392408413
C  C1021  1  0.88860000  0.49470000  0.93700000  0.5 0.3392408413
C  C1022  1  0.11140000  0.50530000  0.93700000  0.5 0.3392408413
C  C1023  1  0.88860000  0.50530000  0.06300000  0.5 0.3392408413
C  C1024  1  0.11140000  0.49470000  0.06300000  0.5 0.3392408413
C  C1025  1  0.99470000  0.43700000  0.88860000  0.5 0.3392408413
C  C1026  1  0.00530000  0.43700000  0.11140000  0.5 0.3392408413
C  C1027  1  0.00530000  0.56300000  0.88860000  0.5 0.3392408413
C  C1028  1  0.99470000  0.56300000  0.11140000  0.5 0.3392408413
C  C1029  1  0.93700000  0.38860000  0.99470000  0.5 0.3392408413
C  C1030  1  0.93700000  0.61140000  0.00530000  0.5 0.3392408413
C  C1031  1  0.06300000  0.38860000  0.00530000  0.5 0.3392408413
C  C1032  1  0.06300000  0.61140000  0.99470000  0.5 0.3392408413
C  C1033  1  0.99470000  0.88860000  0.43700000  0.5 0.3392408413
C  C1034  1  0.00530000  0.11140000  0.43700000  0.5 0.3392408413
C  C1035  1  0.00530000  0.88860000  0.56300000  0.5 0.3392408413
C  C1036  1  0.99470000  0.11140000  0.56300000  0.5 0.3392408413
C  C1037  1  0.93700000  0.99470000  0.38860000  0.5 0.3392408413
C  C1038  1  0.93700000  0.00530000  0.61140000  0.5 0.3392408413
C  C1039  1  0.06300000  0.00530000  0.38860000  0.5 0.3392408413
C  C1040  1  0.06300000  0.99470000  0.61140000  0.5 0.3392408413
C  C1041  1  0.88860000  0.93700000  0.49470000  0.5 0.3392408413
C  C1042  1  0.11140000  0.93700000  0.50530000  0.5 0.3392408413
C  C1043  1  0.88860000  0.06300000  0.50530000  0.5 0.3392408413
C  C1044  1  0.11140000  0.06300000  0.49470000  0.5 0.3392408413
C  C1045  1  0.88860000  0.99470000  0.43700000  0.5 0.3392408413
C  C1046  1  0.11140000  0.00530000  0.43700000  0.5 0.3392408413
C  C1047  1  0.88860000  0.00530000  0.56300000  0.5 0.3392408413
C  C1048  1  0.11140000  0.99470000  0.56300000  0.5 0.3392408413
C  C1049  1  0.99470000  0.93700000  0.38860000  0.5 0.3392408413
C  C1050  1  0.00530000  0.93700000  0.61140000  0.5 0.3392408413
C  C1051  1  0.00530000  0.06300000  0.38860000  0.5 0.3392408413
C  C1052  1  0.99470000  0.06300000  0.61140000  0.5 0.3392408413
C  C1053  1  0.93700000  0.88860000  0.49470000  0.5 0.3392408413
C  C1054  1  0.93700000  0.11140000  0.50530000  0.5 0.3392408413
C  C1055  1  0.06300000  0.88860000  0.50530000  0.5 0.3392408413
C  C1056  1  0.06300000  0.11140000  0.49470000  0.5 0.3392408413
C  C1057  1  0.47510000  0.36810000  0.42100000  0.5 -0.0744792747
C  C1058  1  0.52490000  0.63190000  0.42100000  0.5 -0.0744792747
C  C1059  1  0.52490000  0.36810000  0.57900000  0.5 -0.0744792747
C  C1060  1  0.47510000  0.63190000  0.57900000  0.5 -0.0744792747
C  C1061  1  0.42100000  0.47510000  0.36810000  0.5 -0.0744792747
C  C1062  1  0.42100000  0.52490000  0.63190000  0.5 -0.0744792747
C  C1063  1  0.57900000  0.52490000  0.36810000  0.5 -0.0744792747
C  C1064  1  0.57900000  0.47510000  0.63190000  0.5 -0.0744792747
C  C1065  1  0.36810000  0.42100000  0.47510000  0.5 -0.0744792747
C  C1066  1  0.63190000  0.42100000  0.52490000  0.5 -0.0744792747
C  C1067  1  0.36810000  0.57900000  0.52490000  0.5 -0.0744792747
C  C1068  1  0.63190000  0.57900000  0.47510000  0.5 -0.0744792747
C  C1069  1  0.36810000  0.47510000  0.42100000  0.5 -0.0744792747
C  C1070  1  0.63190000  0.52490000  0.42100000  0.5 -0.0744792747
C  C1071  1  0.36810000  0.52490000  0.57900000  0.5 -0.0744792747
C  C1072  1  0.63190000  0.47510000  0.57900000  0.5 -0.0744792747
C  C1073  1  0.47510000  0.42100000  0.36810000  0.5 -0.0744792747
C  C1074  1  0.52490000  0.42100000  0.63190000  0.5 -0.0744792747
C  C1075  1  0.52490000  0.57900000  0.36810000  0.5 -0.0744792747
C  C1076  1  0.47510000  0.57900000  0.63190000  0.5 -0.0744792747
C  C1077  1  0.42100000  0.36810000  0.47510000  0.5 -0.0744792747
C  C1078  1  0.42100000  0.63190000  0.52490000  0.5 -0.0744792747
C  C1079  1  0.57900000  0.36810000  0.52490000  0.5 -0.0744792747
C  C1080  1  0.57900000  0.63190000  0.47510000  0.5 -0.0744792747
C  C1081  1  0.47510000  0.86810000  0.92100000  0.5 -0.0744792747
C  C1082  1  0.52490000  0.13190000  0.92100000  0.5 -0.0744792747
C  C1083  1  0.52490000  0.86810000  0.07900000  0.5 -0.0744792747
C  C1084  1  0.47510000  0.13190000  0.07900000  0.5 -0.0744792747
C  C1085  1  0.42100000  0.97510000  0.86810000  0.5 -0.0744792747
C  C1086  1  0.42100000  0.02490000  0.13190000  0.5 -0.0744792747
C  C1087  1  0.57900000  0.02490000  0.86810000  0.5 -0.0744792747
C  C1088  1  0.57900000  0.97510000  0.13190000  0.5 -0.0744792747
C  C1089  1  0.36810000  0.92100000  0.97510000  0.5 -0.0744792747
C  C1090  1  0.63190000  0.92100000  0.02490000  0.5 -0.0744792747
C  C1091  1  0.36810000  0.07900000  0.02490000  0.5 -0.0744792747
C  C1092  1  0.63190000  0.07900000  0.97510000  0.5 -0.0744792747
C  C1093  1  0.36810000  0.97510000  0.92100000  0.5 -0.0744792747
C  C1094  1  0.63190000  0.02490000  0.92100000  0.5 -0.0744792747
C  C1095  1  0.36810000  0.02490000  0.07900000  0.5 -0.0744792747
C  C1096  1  0.63190000  0.97510000  0.07900000  0.5 -0.0744792747
C  C1097  1  0.47510000  0.92100000  0.86810000  0.5 -0.0744792747
C  C1098  1  0.52490000  0.92100000  0.13190000  0.5 -0.0744792747
C  C1099  1  0.52490000  0.07900000  0.86810000  0.5 -0.0744792747
C  C1100  1  0.47510000  0.07900000  0.13190000  0.5 -0.0744792747
C  C1101  1  0.42100000  0.86810000  0.97510000  0.5 -0.0744792747
C  C1102  1  0.42100000  0.13190000  0.02490000  0.5 -0.0744792747
C  C1103  1  0.57900000  0.86810000  0.02490000  0.5 -0.0744792747
C  C1104  1  0.57900000  0.13190000  0.97510000  0.5 -0.0744792747
C  C1105  1  0.97510000  0.36810000  0.92100000  0.5 -0.0744792747
C  C1106  1  0.02490000  0.63190000  0.92100000  0.5 -0.0744792747
C  C1107  1  0.02490000  0.36810000  0.07900000  0.5 -0.0744792747
C  C1108  1  0.97510000  0.63190000  0.07900000  0.5 -0.0744792747
C  C1109  1  0.92100000  0.47510000  0.86810000  0.5 -0.0744792747
C  C1110  1  0.92100000  0.52490000  0.13190000  0.5 -0.0744792747
C  C1111  1  0.07900000  0.52490000  0.86810000  0.5 -0.0744792747
C  C1112  1  0.07900000  0.47510000  0.13190000  0.5 -0.0744792747
C  C1113  1  0.86810000  0.42100000  0.97510000  0.5 -0.0744792747
C  C1114  1  0.13190000  0.42100000  0.02490000  0.5 -0.0744792747
C  C1115  1  0.86810000  0.57900000  0.02490000  0.5 -0.0744792747
C  C1116  1  0.13190000  0.57900000  0.97510000  0.5 -0.0744792747
C  C1117  1  0.86810000  0.47510000  0.92100000  0.5 -0.0744792747
C  C1118  1  0.13190000  0.52490000  0.92100000  0.5 -0.0744792747
C  C1119  1  0.86810000  0.52490000  0.07900000  0.5 -0.0744792747
C  C1120  1  0.13190000  0.47510000  0.07900000  0.5 -0.0744792747
C  C1121  1  0.97510000  0.42100000  0.86810000  0.5 -0.0744792747
C  C1122  1  0.02490000  0.42100000  0.13190000  0.5 -0.0744792747
C  C1123  1  0.02490000  0.57900000  0.86810000  0.5 -0.0744792747
C  C1124  1  0.97510000  0.57900000  0.13190000  0.5 -0.0744792747
C  C1125  1  0.92100000  0.36810000  0.97510000  0.5 -0.0744792747
C  C1126  1  0.92100000  0.63190000  0.02490000  0.5 -0.0744792747
C  C1127  1  0.07900000  0.36810000  0.02490000  0.5 -0.0744792747
C  C1128  1  0.07900000  0.63190000  0.97510000  0.5 -0.0744792747
C  C1129  1  0.97510000  0.86810000  0.42100000  0.5 -0.0744792747
C  C1130  1  0.02490000  0.13190000  0.42100000  0.5 -0.0744792747
C  C1131  1  0.02490000  0.86810000  0.57900000  0.5 -0.0744792747
C  C1132  1  0.97510000  0.13190000  0.57900000  0.5 -0.0744792747
C  C1133  1  0.92100000  0.97510000  0.36810000  0.5 -0.0744792747
C  C1134  1  0.92100000  0.02490000  0.63190000  0.5 -0.0744792747
C  C1135  1  0.07900000  0.02490000  0.36810000  0.5 -0.0744792747
C  C1136  1  0.07900000  0.97510000  0.63190000  0.5 -0.0744792747
C  C1137  1  0.86810000  0.92100000  0.47510000  0.5 -0.0744792747
C  C1138  1  0.13190000  0.92100000  0.52490000  0.5 -0.0744792747
C  C1139  1  0.86810000  0.07900000  0.52490000  0.5 -0.0744792747
C  C1140  1  0.13190000  0.07900000  0.47510000  0.5 -0.0744792747
C  C1141  1  0.86810000  0.97510000  0.42100000  0.5 -0.0744792747
C  C1142  1  0.13190000  0.02490000  0.42100000  0.5 -0.0744792747
C  C1143  1  0.86810000  0.02490000  0.57900000  0.5 -0.0744792747
C  C1144  1  0.13190000  0.97510000  0.57900000  0.5 -0.0744792747
C  C1145  1  0.97510000  0.92100000  0.36810000  0.5 -0.0744792747
C  C1146  1  0.02490000  0.92100000  0.63190000  0.5 -0.0744792747
C  C1147  1  0.02490000  0.07900000  0.36810000  0.5 -0.0744792747
C  C1148  1  0.97510000  0.07900000  0.63190000  0.5 -0.0744792747
C  C1149  1  0.92100000  0.86810000  0.47510000  0.5 -0.0744792747
C  C1150  1  0.92100000  0.13190000  0.52490000  0.5 -0.0744792747
C  C1151  1  0.07900000  0.86810000  0.52490000  0.5 -0.0744792747
C  C1152  1  0.07900000  0.13190000  0.47510000  0.5 -0.0744792747
C  C1153  1  0.38650000  0.25290000  0.30720000  0.5 0.0542631868
C  C1154  1  0.61350000  0.74710000  0.30720000  0.5 0.0542631868
C  C1155  1  0.61350000  0.25290000  0.69280000  0.5 0.0542631868
C  C1156  1  0.38650000  0.74710000  0.69280000  0.5 0.0542631868
C  C1157  1  0.30720000  0.38650000  0.25290000  0.5 0.0542631868
C  C1158  1  0.30720000  0.61350000  0.74710000  0.5 0.0542631868
C  C1159  1  0.69280000  0.61350000  0.25290000  0.5 0.0542631868
C  C1160  1  0.69280000  0.38650000  0.74710000  0.5 0.0542631868
C  C1161  1  0.25290000  0.30720000  0.38650000  0.5 0.0542631868
C  C1162  1  0.74710000  0.30720000  0.61350000  0.5 0.0542631868
C  C1163  1  0.25290000  0.69280000  0.61350000  0.5 0.0542631868
C  C1164  1  0.74710000  0.69280000  0.38650000  0.5 0.0542631868
C  C1165  1  0.25290000  0.38650000  0.30720000  0.5 0.0542631868
C  C1166  1  0.74710000  0.61350000  0.30720000  0.5 0.0542631868
C  C1167  1  0.25290000  0.61350000  0.69280000  0.5 0.0542631868
C  C1168  1  0.74710000  0.38650000  0.69280000  0.5 0.0542631868
C  C1169  1  0.38650000  0.30720000  0.25290000  0.5 0.0542631868
C  C1170  1  0.61350000  0.30720000  0.74710000  0.5 0.0542631868
C  C1171  1  0.61350000  0.69280000  0.25290000  0.5 0.0542631868
C  C1172  1  0.38650000  0.69280000  0.74710000  0.5 0.0542631868
C  C1173  1  0.30720000  0.25290000  0.38650000  0.5 0.0542631868
C  C1174  1  0.30720000  0.74710000  0.61350000  0.5 0.0542631868
C  C1175  1  0.69280000  0.25290000  0.61350000  0.5 0.0542631868
C  C1176  1  0.69280000  0.74710000  0.38650000  0.5 0.0542631868
C  C1177  1  0.38650000  0.75290000  0.80720000  0.5 0.0542631868
C  C1178  1  0.61350000  0.24710000  0.80720000  0.5 0.0542631868
C  C1179  1  0.61350000  0.75290000  0.19280000  0.5 0.0542631868
C  C1180  1  0.38650000  0.24710000  0.19280000  0.5 0.0542631868
C  C1181  1  0.30720000  0.88650000  0.75290000  0.5 0.0542631868
C  C1182  1  0.30720000  0.11350000  0.24710000  0.5 0.0542631868
C  C1183  1  0.69280000  0.11350000  0.75290000  0.5 0.0542631868
C  C1184  1  0.69280000  0.88650000  0.24710000  0.5 0.0542631868
C  C1185  1  0.25290000  0.80720000  0.88650000  0.5 0.0542631868
C  C1186  1  0.74710000  0.80720000  0.11350000  0.5 0.0542631868
C  C1187  1  0.25290000  0.19280000  0.11350000  0.5 0.0542631868
C  C1188  1  0.74710000  0.19280000  0.88650000  0.5 0.0542631868
C  C1189  1  0.25290000  0.88650000  0.80720000  0.5 0.0542631868
C  C1190  1  0.74710000  0.11350000  0.80720000  0.5 0.0542631868
C  C1191  1  0.25290000  0.11350000  0.19280000  0.5 0.0542631868
C  C1192  1  0.74710000  0.88650000  0.19280000  0.5 0.0542631868
C  C1193  1  0.38650000  0.80720000  0.75290000  0.5 0.0542631868
C  C1194  1  0.61350000  0.80720000  0.24710000  0.5 0.0542631868
C  C1195  1  0.61350000  0.19280000  0.75290000  0.5 0.0542631868
C  C1196  1  0.38650000  0.19280000  0.24710000  0.5 0.0542631868
C  C1197  1  0.30720000  0.75290000  0.88650000  0.5 0.0542631868
C  C1198  1  0.30720000  0.24710000  0.11350000  0.5 0.0542631868
C  C1199  1  0.69280000  0.75290000  0.11350000  0.5 0.0542631868
C  C1200  1  0.69280000  0.24710000  0.88650000  0.5 0.0542631868
C  C1201  1  0.88650000  0.25290000  0.80720000  0.5 0.0542631868
C  C1202  1  0.11350000  0.74710000  0.80720000  0.5 0.0542631868
C  C1203  1  0.11350000  0.25290000  0.19280000  0.5 0.0542631868
C  C1204  1  0.88650000  0.74710000  0.19280000  0.5 0.0542631868
C  C1205  1  0.80720000  0.38650000  0.75290000  0.5 0.0542631868
C  C1206  1  0.80720000  0.61350000  0.24710000  0.5 0.0542631868
C  C1207  1  0.19280000  0.61350000  0.75290000  0.5 0.0542631868
C  C1208  1  0.19280000  0.38650000  0.24710000  0.5 0.0542631868
C  C1209  1  0.75290000  0.30720000  0.88650000  0.5 0.0542631868
C  C1210  1  0.24710000  0.30720000  0.11350000  0.5 0.0542631868
C  C1211  1  0.75290000  0.69280000  0.11350000  0.5 0.0542631868
C  C1212  1  0.24710000  0.69280000  0.88650000  0.5 0.0542631868
C  C1213  1  0.75290000  0.38650000  0.80720000  0.5 0.0542631868
C  C1214  1  0.24710000  0.61350000  0.80720000  0.5 0.0542631868
C  C1215  1  0.75290000  0.61350000  0.19280000  0.5 0.0542631868
C  C1216  1  0.24710000  0.38650000  0.19280000  0.5 0.0542631868
C  C1217  1  0.88650000  0.30720000  0.75290000  0.5 0.0542631868
C  C1218  1  0.11350000  0.30720000  0.24710000  0.5 0.0542631868
C  C1219  1  0.11350000  0.69280000  0.75290000  0.5 0.0542631868
C  C1220  1  0.88650000  0.69280000  0.24710000  0.5 0.0542631868
C  C1221  1  0.80720000  0.25290000  0.88650000  0.5 0.0542631868
C  C1222  1  0.80720000  0.74710000  0.11350000  0.5 0.0542631868
C  C1223  1  0.19280000  0.25290000  0.11350000  0.5 0.0542631868
C  C1224  1  0.19280000  0.74710000  0.88650000  0.5 0.0542631868
C  C1225  1  0.88650000  0.75290000  0.30720000  0.5 0.0542631868
C  C1226  1  0.11350000  0.24710000  0.30720000  0.5 0.0542631868
C  C1227  1  0.11350000  0.75290000  0.69280000  0.5 0.0542631868
C  C1228  1  0.88650000  0.24710000  0.69280000  0.5 0.0542631868
C  C1229  1  0.80720000  0.88650000  0.25290000  0.5 0.0542631868
C  C1230  1  0.80720000  0.11350000  0.74710000  0.5 0.0542631868
C  C1231  1  0.19280000  0.11350000  0.25290000  0.5 0.0542631868
C  C1232  1  0.19280000  0.88650000  0.74710000  0.5 0.0542631868
C  C1233  1  0.75290000  0.80720000  0.38650000  0.5 0.0542631868
C  C1234  1  0.24710000  0.80720000  0.61350000  0.5 0.0542631868
C  C1235  1  0.75290000  0.19280000  0.61350000  0.5 0.0542631868
C  C1236  1  0.24710000  0.19280000  0.38650000  0.5 0.0542631868
C  C1237  1  0.75290000  0.88650000  0.30720000  0.5 0.0542631868
C  C1238  1  0.24710000  0.11350000  0.30720000  0.5 0.0542631868
C  C1239  1  0.75290000  0.11350000  0.69280000  0.5 0.0542631868
C  C1240  1  0.24710000  0.88650000  0.69280000  0.5 0.0542631868
C  C1241  1  0.88650000  0.80720000  0.25290000  0.5 0.0542631868
C  C1242  1  0.11350000  0.80720000  0.74710000  0.5 0.0542631868
C  C1243  1  0.11350000  0.19280000  0.25290000  0.5 0.0542631868
C  C1244  1  0.88650000  0.19280000  0.74710000  0.5 0.0542631868
C  C1245  1  0.80720000  0.75290000  0.38650000  0.5 0.0542631868
C  C1246  1  0.80720000  0.24710000  0.61350000  0.5 0.0542631868
C  C1247  1  0.19280000  0.75290000  0.61350000  0.5 0.0542631868
C  C1248  1  0.19280000  0.24710000  0.38650000  0.5 0.0542631868
C  C1249  1  0.42240000  0.20950000  0.34310000  0.5 0.0352672634
C  C1250  1  0.57760000  0.79050000  0.34310000  0.5 0.03184951
C  C1251  1  0.57760000  0.20950000  0.65690000  0.5 0.0352672634
C  C1252  1  0.42240000  0.79050000  0.65690000  0.5 0.0352672634
C  C1253  1  0.34310000  0.42240000  0.20950000  0.5 0.0352672634
C  C1254  1  0.34310000  0.57760000  0.79050000  0.5 0.0352672634
C  C1255  1  0.65690000  0.57760000  0.20950000  0.5 0.03184951
C  C1256  1  0.65690000  0.42240000  0.79050000  0.5 0.0352672634
C  C1257  1  0.20950000  0.34310000  0.42240000  0.5 0.0352672634
C  C1258  1  0.79050000  0.34310000  0.57760000  0.5 0.0352672634
C  C1259  1  0.20950000  0.65690000  0.57760000  0.5 0.0352672634
C  C1260  1  0.79050000  0.65690000  0.42240000  0.5 0.03184951
C  C1261  1  0.20950000  0.42240000  0.34310000  0.5 0.0352672634
C  C1262  1  0.79050000  0.57760000  0.34310000  0.5 0.0352672634
C  C1263  1  0.20950000  0.57760000  0.65690000  0.5 0.0352672634
C  C1264  1  0.79050000  0.42240000  0.65690000  0.5 0.0352672634
C  C1265  1  0.42240000  0.34310000  0.20950000  0.5 0.0352672634
C  C1266  1  0.57760000  0.34310000  0.79050000  0.5 0.0352672634
C  C1267  1  0.57760000  0.65690000  0.20950000  0.5 0.03184951
C  C1268  1  0.42240000  0.65690000  0.79050000  0.5 0.0352672634
C  C1269  1  0.34310000  0.20950000  0.42240000  0.5 0.0352672634
C  C1270  1  0.34310000  0.79050000  0.57760000  0.5 0.03184951
C  C1271  1  0.65690000  0.20950000  0.57760000  0.5 0.0352672634
C  C1272  1  0.65690000  0.79050000  0.42240000  0.5 0.03184951
C  C1273  1  0.42240000  0.70950000  0.84310000  0.5 0.0352672634
C  C1274  1  0.57760000  0.29050000  0.84310000  0.5 0.0352672634
C  C1275  1  0.57760000  0.70950000  0.15690000  0.5 0.03184951
C  C1276  1  0.42240000  0.29050000  0.15690000  0.5 0.0352672634
C  C1277  1  0.34310000  0.92240000  0.70950000  0.5 0.03184951
C  C1278  1  0.34310000  0.07760000  0.29050000  0.5 0.0352672634
C  C1279  1  0.65690000  0.07760000  0.70950000  0.5 0.0352672634
C  C1280  1  0.65690000  0.92240000  0.29050000  0.5 0.03184951
C  C1281  1  0.20950000  0.84310000  0.92240000  0.5 0.0352672634
C  C1282  1  0.79050000  0.84310000  0.07760000  0.5 0.03184951
C  C1283  1  0.20950000  0.15690000  0.07760000  0.5 0.0352672634
C  C1284  1  0.79050000  0.15690000  0.92240000  0.5 0.0352672634
C  C1285  1  0.20950000  0.92240000  0.84310000  0.5 0.0352672634
C  C1286  1  0.79050000  0.07760000  0.84310000  0.5 0.0352672634
C  C1287  1  0.20950000  0.07760000  0.15690000  0.5 0.0352672634
C  C1288  1  0.79050000  0.92240000  0.15690000  0.5 0.03184951
C  C1289  1  0.42240000  0.84310000  0.70950000  0.5 0.0352672634
C  C1290  1  0.57760000  0.84310000  0.29050000  0.5 0.03184951
C  C1291  1  0.57760000  0.15690000  0.70950000  0.5 0.0352672634
C  C1292  1  0.42240000  0.15690000  0.29050000  0.5 0.0352672634
C  C1293  1  0.34310000  0.70950000  0.92240000  0.5 0.0352672634
C  C1294  1  0.34310000  0.29050000  0.07760000  0.5 0.0352672634
C  C1295  1  0.65690000  0.70950000  0.07760000  0.5 0.03184951
C  C1296  1  0.65690000  0.29050000  0.92240000  0.5 0.0352672634
C  C1297  1  0.92240000  0.20950000  0.84310000  0.5 0.0352672634
C  C1298  1  0.07760000  0.79050000  0.84310000  0.5 0.0352672634
C  C1299  1  0.07760000  0.20950000  0.15690000  0.5 0.0352672634
C  C1300  1  0.92240000  0.79050000  0.15690000  0.5 0.03184951
C  C1301  1  0.84310000  0.42240000  0.70950000  0.5 0.0352672634
C  C1302  1  0.84310000  0.57760000  0.29050000  0.5 0.03184951
C  C1303  1  0.15690000  0.57760000  0.70950000  0.5 0.0352672634
C  C1304  1  0.15690000  0.42240000  0.29050000  0.5 0.0352672634
C  C1305  1  0.70950000  0.34310000  0.92240000  0.5 0.0352672634
C  C1306  1  0.29050000  0.34310000  0.07760000  0.5 0.0352672634
C  C1307  1  0.70950000  0.65690000  0.07760000  0.5 0.03184951
C  C1308  1  0.29050000  0.65690000  0.92240000  0.5 0.0352672634
C  C1309  1  0.70950000  0.42240000  0.84310000  0.5 0.0352672634
C  C1310  1  0.29050000  0.57760000  0.84310000  0.5 0.0352672634
C  C1311  1  0.70950000  0.57760000  0.15690000  0.5 0.03184951
C  C1312  1  0.29050000  0.42240000  0.15690000  0.5 0.0352672634
C  C1313  1  0.92240000  0.34310000  0.70950000  0.5 0.0352672634
C  C1314  1  0.07760000  0.34310000  0.29050000  0.5 0.0352672634
C  C1315  1  0.07760000  0.65690000  0.70950000  0.5 0.0352672634
C  C1316  1  0.92240000  0.65690000  0.29050000  0.5 0.03184951
C  C1317  1  0.84310000  0.20950000  0.92240000  0.5 0.0352672634
C  C1318  1  0.84310000  0.79050000  0.07760000  0.5 0.03184951
C  C1319  1  0.15690000  0.20950000  0.07760000  0.5 0.0352672634
C  C1320  1  0.15690000  0.79050000  0.92240000  0.5 0.0352672634
C  C1321  1  0.92240000  0.70950000  0.34310000  0.5 0.03184951
C  C1322  1  0.07760000  0.29050000  0.34310000  0.5 0.0352672634
C  C1323  1  0.07760000  0.70950000  0.65690000  0.5 0.03184951
C  C1324  1  0.92240000  0.29050000  0.65690000  0.5 0.0352672634
C  C1325  1  0.84310000  0.92240000  0.20950000  0.5 0.03184951
C  C1326  1  0.84310000  0.07760000  0.79050000  0.5 0.0352672634
C  C1327  1  0.15690000  0.07760000  0.20950000  0.5 0.0352672634
C  C1328  1  0.15690000  0.92240000  0.79050000  0.5 0.03184951
C  C1329  1  0.70950000  0.84310000  0.42240000  0.5 0.03184951
C  C1330  1  0.29050000  0.84310000  0.57760000  0.5 0.03184951
C  C1331  1  0.70950000  0.15690000  0.57760000  0.5 0.0352672634
C  C1332  1  0.29050000  0.15690000  0.42240000  0.5 0.0352672634
C  C1333  1  0.70950000  0.92240000  0.34310000  0.5 0.03184951
C  C1334  1  0.29050000  0.07760000  0.34310000  0.5 0.0352672634
C  C1335  1  0.70950000  0.07760000  0.65690000  0.5 0.0352672634
C  C1336  1  0.29050000  0.92240000  0.65690000  0.5 0.03184951
C  C1337  1  0.92240000  0.84310000  0.20950000  0.5 0.03184951
C  C1338  1  0.07760000  0.84310000  0.79050000  0.5 0.0352672634
C  C1339  1  0.07760000  0.15690000  0.20950000  0.5 0.0352672634
C  C1340  1  0.92240000  0.15690000  0.79050000  0.5 0.0352672634
C  C1341  1  0.84310000  0.70950000  0.42240000  0.5 0.03184951
C  C1342  1  0.84310000  0.29050000  0.57760000  0.5 0.0352672634
C  C1343  1  0.15690000  0.70950000  0.57760000  0.5 0.03184951
C  C1344  1  0.15690000  0.29050000  0.42240000  0.5 0.0352672634
C  C1345  1  0.35190000  0.29710000  0.26890000  0.5 -0.062182005
C  C1346  1  0.64810000  0.70290000  0.26890000  0.5 -0.062182005
C  C1347  1  0.64810000  0.29710000  0.73110000  0.5 -0.062182005
C  C1348  1  0.35190000  0.70290000  0.73110000  0.5 -0.062182005
C  C1349  1  0.26890000  0.35190000  0.29710000  0.5 -0.062182005
C  C1350  1  0.26890000  0.64810000  0.70290000  0.5 -0.062182005
C  C1351  1  0.73110000  0.64810000  0.29710000  0.5 -0.062182005
C  C1352  1  0.73110000  0.35190000  0.70290000  0.5 -0.062182005
C  C1353  1  0.29710000  0.26890000  0.35190000  0.5 -0.062182005
C  C1354  1  0.70290000  0.26890000  0.64810000  0.5 -0.062182005
C  C1355  1  0.29710000  0.73110000  0.64810000  0.5 -0.062182005
C  C1356  1  0.70290000  0.73110000  0.35190000  0.5 -0.062182005
C  C1357  1  0.29710000  0.35190000  0.26890000  0.5 -0.062182005
C  C1358  1  0.70290000  0.64810000  0.26890000  0.5 -0.062182005
C  C1359  1  0.29710000  0.64810000  0.73110000  0.5 -0.062182005
C  C1360  1  0.70290000  0.35190000  0.73110000  0.5 -0.062182005
C  C1361  1  0.35190000  0.26890000  0.29710000  0.5 -0.062182005
C  C1362  1  0.64810000  0.26890000  0.70290000  0.5 -0.062182005
C  C1363  1  0.64810000  0.73110000  0.29710000  0.5 -0.062182005
C  C1364  1  0.35190000  0.73110000  0.70290000  0.5 -0.062182005
C  C1365  1  0.26890000  0.29710000  0.35190000  0.5 -0.062182005
C  C1366  1  0.26890000  0.70290000  0.64810000  0.5 -0.062182005
C  C1367  1  0.73110000  0.29710000  0.64810000  0.5 -0.062182005
C  C1368  1  0.73110000  0.70290000  0.35190000  0.5 -0.062182005
C  C1369  1  0.35190000  0.79710000  0.76890000  0.5 -0.062182005
C  C1370  1  0.64810000  0.20290000  0.76890000  0.5 -0.062182005
C  C1371  1  0.64810000  0.79710000  0.23110000  0.5 -0.062182005
C  C1372  1  0.35190000  0.20290000  0.23110000  0.5 -0.062182005
C  C1373  1  0.26890000  0.85190000  0.79710000  0.5 -0.062182005
C  C1374  1  0.26890000  0.14810000  0.20290000  0.5 -0.062182005
C  C1375  1  0.73110000  0.14810000  0.79710000  0.5 -0.062182005
C  C1376  1  0.73110000  0.85190000  0.20290000  0.5 -0.062182005
C  C1377  1  0.29710000  0.76890000  0.85190000  0.5 -0.062182005
C  C1378  1  0.70290000  0.76890000  0.14810000  0.5 -0.062182005
C  C1379  1  0.29710000  0.23110000  0.14810000  0.5 -0.062182005
C  C1380  1  0.70290000  0.23110000  0.85190000  0.5 -0.062182005
C  C1381  1  0.29710000  0.85190000  0.76890000  0.5 -0.062182005
C  C1382  1  0.70290000  0.14810000  0.76890000  0.5 -0.062182005
C  C1383  1  0.29710000  0.14810000  0.23110000  0.5 -0.062182005
C  C1384  1  0.70290000  0.85190000  0.23110000  0.5 -0.062182005
C  C1385  1  0.35190000  0.76890000  0.79710000  0.5 -0.062182005
C  C1386  1  0.64810000  0.76890000  0.20290000  0.5 -0.062182005
C  C1387  1  0.64810000  0.23110000  0.79710000  0.5 -0.062182005
C  C1388  1  0.35190000  0.23110000  0.20290000  0.5 -0.062182005
C  C1389  1  0.26890000  0.79710000  0.85190000  0.5 -0.062182005
C  C1390  1  0.26890000  0.20290000  0.14810000  0.5 -0.062182005
C  C1391  1  0.73110000  0.79710000  0.14810000  0.5 -0.062182005
C  C1392  1  0.73110000  0.20290000  0.85190000  0.5 -0.062182005
C  C1393  1  0.85190000  0.29710000  0.76890000  0.5 -0.062182005
C  C1394  1  0.14810000  0.70290000  0.76890000  0.5 -0.062182005
C  C1395  1  0.14810000  0.29710000  0.23110000  0.5 -0.062182005
C  C1396  1  0.85190000  0.70290000  0.23110000  0.5 -0.062182005
C  C1397  1  0.76890000  0.35190000  0.79710000  0.5 -0.062182005
C  C1398  1  0.76890000  0.64810000  0.20290000  0.5 -0.062182005
C  C1399  1  0.23110000  0.64810000  0.79710000  0.5 -0.062182005
C  C1400  1  0.23110000  0.35190000  0.20290000  0.5 -0.062182005
C  C1401  1  0.79710000  0.26890000  0.85190000  0.5 -0.062182005
C  C1402  1  0.20290000  0.26890000  0.14810000  0.5 -0.062182005
C  C1403  1  0.79710000  0.73110000  0.14810000  0.5 -0.062182005
C  C1404  1  0.20290000  0.73110000  0.85190000  0.5 -0.062182005
C  C1405  1  0.79710000  0.35190000  0.76890000  0.5 -0.062182005
C  C1406  1  0.20290000  0.64810000  0.76890000  0.5 -0.062182005
C  C1407  1  0.79710000  0.64810000  0.23110000  0.5 -0.062182005
C  C1408  1  0.20290000  0.35190000  0.23110000  0.5 -0.062182005
C  C1409  1  0.85190000  0.26890000  0.79710000  0.5 -0.062182005
C  C1410  1  0.14810000  0.26890000  0.20290000  0.5 -0.062182005
C  C1411  1  0.14810000  0.73110000  0.79710000  0.5 -0.062182005
C  C1412  1  0.85190000  0.73110000  0.20290000  0.5 -0.062182005
C  C1413  1  0.76890000  0.29710000  0.85190000  0.5 -0.062182005
C  C1414  1  0.76890000  0.70290000  0.14810000  0.5 -0.062182005
C  C1415  1  0.23110000  0.29710000  0.14810000  0.5 -0.062182005
C  C1416  1  0.23110000  0.70290000  0.85190000  0.5 -0.062182005
C  C1417  1  0.85190000  0.79710000  0.26890000  0.5 -0.062182005
C  C1418  1  0.14810000  0.20290000  0.26890000  0.5 -0.062182005
C  C1419  1  0.14810000  0.79710000  0.73110000  0.5 -0.062182005
C  C1420  1  0.85190000  0.20290000  0.73110000  0.5 -0.062182005
C  C1421  1  0.76890000  0.85190000  0.29710000  0.5 -0.062182005
C  C1422  1  0.76890000  0.14810000  0.70290000  0.5 -0.062182005
C  C1423  1  0.23110000  0.14810000  0.29710000  0.5 -0.062182005
C  C1424  1  0.23110000  0.85190000  0.70290000  0.5 -0.062182005
C  C1425  1  0.79710000  0.76890000  0.35190000  0.5 -0.062182005
C  C1426  1  0.20290000  0.76890000  0.64810000  0.5 -0.062182005
C  C1427  1  0.79710000  0.23110000  0.64810000  0.5 -0.062182005
C  C1428  1  0.20290000  0.23110000  0.35190000  0.5 -0.062182005
C  C1429  1  0.79710000  0.85190000  0.26890000  0.5 -0.062182005
C  C1430  1  0.20290000  0.14810000  0.26890000  0.5 -0.062182005
C  C1431  1  0.79710000  0.14810000  0.73110000  0.5 -0.062182005
C  C1432  1  0.20290000  0.85190000  0.73110000  0.5 -0.062182005
C  C1433  1  0.85190000  0.76890000  0.29710000  0.5 -0.062182005
C  C1434  1  0.14810000  0.76890000  0.70290000  0.5 -0.062182005
C  C1435  1  0.14810000  0.23110000  0.29710000  0.5 -0.062182005
C  C1436  1  0.85190000  0.23110000  0.70290000  0.5 -0.062182005
C  C1437  1  0.76890000  0.79710000  0.35190000  0.5 -0.062182005
C  C1438  1  0.76890000  0.20290000  0.64810000  0.5 -0.062182005
C  C1439  1  0.23110000  0.79710000  0.64810000  0.5 -0.062182005
C  C1440  1  0.23110000  0.20290000  0.35190000  0.5 -0.062182005
C  C1441  1  0.42440000  0.18050000  0.37280000  0.5 0.0593057704
C  C1442  1  0.57560000  0.81950000  0.37280000  0.5 0.0593057704
C  C1443  1  0.57560000  0.18050000  0.62720000  0.5 0.0593057704
C  C1444  1  0.42440000  0.81950000  0.62720000  0.5 0.0593057704
C  C1445  1  0.37280000  0.42440000  0.18050000  0.5 0.0593057704
C  C1446  1  0.37280000  0.57560000  0.81950000  0.5 0.0593057704
C  C1447  1  0.62720000  0.57560000  0.18050000  0.5 0.0593057704
C  C1448  1  0.62720000  0.42440000  0.81950000  0.5 0.0593057704
C  C1449  1  0.18050000  0.37280000  0.42440000  0.5 0.0593057704
C  C1450  1  0.81950000  0.37280000  0.57560000  0.5 0.0593057704
C  C1451  1  0.18050000  0.62720000  0.57560000  0.5 0.0593057704
C  C1452  1  0.81950000  0.62720000  0.42440000  0.5 0.0593057704
C  C1453  1  0.18050000  0.42440000  0.37280000  0.5 0.0593057704
C  C1454  1  0.81950000  0.57560000  0.37280000  0.5 0.0593057704
C  C1455  1  0.18050000  0.57560000  0.62720000  0.5 0.0593057704
C  C1456  1  0.81950000  0.42440000  0.62720000  0.5 0.0593057704
C  C1457  1  0.42440000  0.37280000  0.18050000  0.5 0.0593057704
C  C1458  1  0.57560000  0.37280000  0.81950000  0.5 0.0593057704
C  C1459  1  0.57560000  0.62720000  0.18050000  0.5 0.0593057704
C  C1460  1  0.42440000  0.62720000  0.81950000  0.5 0.0593057704
C  C1461  1  0.37280000  0.18050000  0.42440000  0.5 0.0593057704
C  C1462  1  0.37280000  0.81950000  0.57560000  0.5 0.0593057704
C  C1463  1  0.62720000  0.18050000  0.57560000  0.5 0.0593057704
C  C1464  1  0.62720000  0.81950000  0.42440000  0.5 0.0593057704
C  C1465  1  0.42440000  0.68050000  0.87280000  0.5 0.0593057704
C  C1466  1  0.57560000  0.31950000  0.87280000  0.5 0.0593057704
C  C1467  1  0.57560000  0.68050000  0.12720000  0.5 0.0593057704
C  C1468  1  0.42440000  0.31950000  0.12720000  0.5 0.0593057704
C  C1469  1  0.37280000  0.92440000  0.68050000  0.5 0.0593057704
C  C1470  1  0.37280000  0.07560000  0.31950000  0.5 0.0593057704
C  C1471  1  0.62720000  0.07560000  0.68050000  0.5 0.0593057704
C  C1472  1  0.62720000  0.92440000  0.31950000  0.5 0.0593057704
C  C1473  1  0.18050000  0.87280000  0.92440000  0.5 0.0593057704
C  C1474  1  0.81950000  0.87280000  0.07560000  0.5 0.0593057704
C  C1475  1  0.18050000  0.12720000  0.07560000  0.5 0.0593057704
C  C1476  1  0.81950000  0.12720000  0.92440000  0.5 0.0593057704
C  C1477  1  0.18050000  0.92440000  0.87280000  0.5 0.0593057704
C  C1478  1  0.81950000  0.07560000  0.87280000  0.5 0.0593057704
C  C1479  1  0.18050000  0.07560000  0.12720000  0.5 0.0593057704
C  C1480  1  0.81950000  0.92440000  0.12720000  0.5 0.0593057704
C  C1481  1  0.42440000  0.87280000  0.68050000  0.5 0.0593057704
C  C1482  1  0.57560000  0.87280000  0.31950000  0.5 0.0593057704
C  C1483  1  0.57560000  0.12720000  0.68050000  0.5 0.0593057704
C  C1484  1  0.42440000  0.12720000  0.31950000  0.5 0.0593057704
C  C1485  1  0.37280000  0.68050000  0.92440000  0.5 0.0593057704
C  C1486  1  0.37280000  0.31950000  0.07560000  0.5 0.0593057704
C  C1487  1  0.62720000  0.68050000  0.07560000  0.5 0.0593057704
C  C1488  1  0.62720000  0.31950000  0.92440000  0.5 0.0593057704
C  C1489  1  0.92440000  0.18050000  0.87280000  0.5 0.0593057704
C  C1490  1  0.07560000  0.81950000  0.87280000  0.5 0.0593057704
C  C1491  1  0.07560000  0.18050000  0.12720000  0.5 0.0593057704
C  C1492  1  0.92440000  0.81950000  0.12720000  0.5 0.0593057704
C  C1493  1  0.87280000  0.42440000  0.68050000  0.5 0.0593057704
C  C1494  1  0.87280000  0.57560000  0.31950000  0.5 0.0593057704
C  C1495  1  0.12720000  0.57560000  0.68050000  0.5 0.0593057704
C  C1496  1  0.12720000  0.42440000  0.31950000  0.5 0.0593057704
C  C1497  1  0.68050000  0.37280000  0.92440000  0.5 0.0593057704
C  C1498  1  0.31950000  0.37280000  0.07560000  0.5 0.0593057704
C  C1499  1  0.68050000  0.62720000  0.07560000  0.5 0.0593057704
C  C1500  1  0.31950000  0.62720000  0.92440000  0.5 0.0593057704
C  C1501  1  0.68050000  0.42440000  0.87280000  0.5 0.0593057704
C  C1502  1  0.31950000  0.57560000  0.87280000  0.5 0.0593057704
C  C1503  1  0.68050000  0.57560000  0.12720000  0.5 0.0593057704
C  C1504  1  0.31950000  0.42440000  0.12720000  0.5 0.0593057704
C  C1505  1  0.92440000  0.37280000  0.68050000  0.5 0.0593057704
C  C1506  1  0.07560000  0.37280000  0.31950000  0.5 0.0593057704
C  C1507  1  0.07560000  0.62720000  0.68050000  0.5 0.0593057704
C  C1508  1  0.92440000  0.62720000  0.31950000  0.5 0.0593057704
C  C1509  1  0.87280000  0.18050000  0.92440000  0.5 0.0593057704
C  C1510  1  0.87280000  0.81950000  0.07560000  0.5 0.0593057704
C  C1511  1  0.12720000  0.18050000  0.07560000  0.5 0.0593057704
C  C1512  1  0.12720000  0.81950000  0.92440000  0.5 0.0593057704
C  C1513  1  0.92440000  0.68050000  0.37280000  0.5 0.0593057704
C  C1514  1  0.07560000  0.31950000  0.37280000  0.5 0.0593057704
C  C1515  1  0.07560000  0.68050000  0.62720000  0.5 0.0593057704
C  C1516  1  0.92440000  0.31950000  0.62720000  0.5 0.0593057704
C  C1517  1  0.87280000  0.92440000  0.18050000  0.5 0.0593057704
C  C1518  1  0.87280000  0.07560000  0.81950000  0.5 0.0593057704
C  C1519  1  0.12720000  0.07560000  0.18050000  0.5 0.0593057704
C  C1520  1  0.12720000  0.92440000  0.81950000  0.5 0.0593057704
C  C1521  1  0.68050000  0.87280000  0.42440000  0.5 0.0593057704
C  C1522  1  0.31950000  0.87280000  0.57560000  0.5 0.0593057704
C  C1523  1  0.68050000  0.12720000  0.57560000  0.5 0.0593057704
C  C1524  1  0.31950000  0.12720000  0.42440000  0.5 0.0593057704
C  C1525  1  0.68050000  0.92440000  0.37280000  0.5 0.0593057704
C  C1526  1  0.31950000  0.07560000  0.37280000  0.5 0.0593057704
C  C1527  1  0.68050000  0.07560000  0.62720000  0.5 0.0593057704
C  C1528  1  0.31950000  0.92440000  0.62720000  0.5 0.0593057704
C  C1529  1  0.92440000  0.87280000  0.18050000  0.5 0.0593057704
C  C1530  1  0.07560000  0.87280000  0.81950000  0.5 0.0593057704
C  C1531  1  0.07560000  0.12720000  0.18050000  0.5 0.0593057704
C  C1532  1  0.92440000  0.12720000  0.81950000  0.5 0.0593057704
C  C1533  1  0.87280000  0.68050000  0.42440000  0.5 0.0593057704
C  C1534  1  0.87280000  0.31950000  0.57560000  0.5 0.0593057704
C  C1535  1  0.12720000  0.68050000  0.57560000  0.5 0.0593057704
C  C1536  1  0.12720000  0.31950000  0.42440000  0.5 0.0593057704
O  O1  1  0.53050000  0.46950000  0.46950000  1.0 -0.9163113909
O  O2  1  0.46950000  0.53050000  0.46950000  1.0 -0.9163113909
O  O3  1  0.46950000  0.46950000  0.53050000  1.0 -0.9163113909
O  O4  1  0.53050000  0.53050000  0.53050000  1.0 -0.9163113909
O  O5  1  0.53050000  0.96950000  0.96950000  1.0 -0.9163113909
O  O6  1  0.46950000  0.03050000  0.96950000  1.0 -0.9163113909
O  O7  1  0.46950000  0.96950000  0.03050000  1.0 -0.9163113909
O  O8  1  0.53050000  0.03050000  0.03050000  1.0 -0.9163113909
O  O9  1  0.03050000  0.46950000  0.96950000  1.0 -0.9163113909
O  O10  1  0.96950000  0.53050000  0.96950000  1.0 -0.9163113909
O  O11  1  0.96950000  0.46950000  0.03050000  1.0 -0.9163113909
O  O12  1  0.03050000  0.53050000  0.03050000  1.0 -0.9163113909
O  O13  1  0.03050000  0.96950000  0.46950000  1.0 -0.9163113909
O  O14  1  0.96950000  0.03050000  0.46950000  1.0 -0.9163113909
O  O15  1  0.96950000  0.96950000  0.53050000  1.0 -0.9163113909
O  O16  1  0.03050000  0.03050000  0.53050000  1.0 -0.9163113909
O  O113  1  0.47010000  0.41083000  0.47010000  1.0 -0.5434813986
O  O114  1  0.52990000  0.58917000  0.47010000  1.0 -0.5434813986
O  O115  1  0.52990000  0.41083000  0.52990000  1.0 -0.5434813986
O  O116  1  0.47010000  0.58917000  0.52990000  1.0 -0.5434813986
O  O117  1  0.47010000  0.47010000  0.41083000  1.0 -0.5434813986
O  O118  1  0.47010000  0.52990000  0.58917000  1.0 -0.5434813986
O  O119  1  0.52990000  0.52990000  0.41083000  1.0 -0.5434813986
O  O120  1  0.52990000  0.47010000  0.58917000  1.0 -0.5434813986
O  O121  1  0.41083000  0.47010000  0.47010000  1.0 -0.5434813986
O  O122  1  0.58917000  0.47010000  0.52990000  1.0 -0.5434813986
O  O123  1  0.41083000  0.52990000  0.52990000  1.0 -0.5434813986
O  O124  1  0.58917000  0.52990000  0.47010000  1.0 -0.5434813986
O  O125  1  0.47010000  0.91083000  0.97010000  1.0 -0.5434813986
O  O126  1  0.52990000  0.08917000  0.97010000  1.0 -0.5434813986
O  O127  1  0.52990000  0.91083000  0.02990000  1.0 -0.5434813986
O  O128  1  0.47010000  0.08917000  0.02990000  1.0 -0.5434813986
O  O129  1  0.47010000  0.97010000  0.91083000  1.0 -0.5434813986
O  O130  1  0.47010000  0.02990000  0.08917000  1.0 -0.5434813986
O  O131  1  0.52990000  0.02990000  0.91083000  1.0 -0.5434813986
O  O132  1  0.52990000  0.97010000  0.08917000  1.0 -0.5434813986
O  O133  1  0.41083000  0.97010000  0.97010000  1.0 -0.5434813986
O  O134  1  0.58917000  0.97010000  0.02990000  1.0 -0.5434813986
O  O135  1  0.41083000  0.02990000  0.02990000  1.0 -0.5434813986
O  O136  1  0.58917000  0.02990000  0.97010000  1.0 -0.5434813986
O  O137  1  0.97010000  0.41083000  0.97010000  1.0 -0.5434813986
O  O138  1  0.02990000  0.58917000  0.97010000  1.0 -0.5434813986
O  O139  1  0.02990000  0.41083000  0.02990000  1.0 -0.5434813986
O  O140  1  0.97010000  0.58917000  0.02990000  1.0 -0.5434813986
O  O141  1  0.97010000  0.47010000  0.91083000  1.0 -0.5434813986
O  O142  1  0.97010000  0.52990000  0.08917000  1.0 -0.5434813986
O  O143  1  0.02990000  0.52990000  0.91083000  1.0 -0.5434813986
O  O144  1  0.02990000  0.47010000  0.08917000  1.0 -0.5434813986
O  O145  1  0.91083000  0.47010000  0.97010000  1.0 -0.5434813986
O  O146  1  0.08917000  0.47010000  0.02990000  1.0 -0.5434813986
O  O147  1  0.91083000  0.52990000  0.02990000  1.0 -0.5434813986
O  O148  1  0.08917000  0.52990000  0.97010000  1.0 -0.5434813986
O  O149  1  0.97010000  0.91083000  0.47010000  1.0 -0.5434813986
O  O150  1  0.02990000  0.08917000  0.47010000  1.0 -0.5434813986
O  O151  1  0.02990000  0.91083000  0.52990000  1.0 -0.5434813986
O  O152  1  0.97010000  0.08917000  0.52990000  1.0 -0.5434813986
O  O153  1  0.97010000  0.97010000  0.41083000  1.0 -0.5434813986
O  O154  1  0.97010000  0.02990000  0.58917000  1.0 -0.5434813986
O  O155  1  0.02990000  0.02990000  0.41083000  1.0 -0.5434813986
O  O156  1  0.02990000  0.97010000  0.58917000  1.0 -0.5434813986
O  O157  1  0.91083000  0.97010000  0.47010000  1.0 -0.5434813986
O  O158  1  0.08917000  0.97010000  0.52990000  1.0 -0.5434813986
O  O159  1  0.91083000  0.02990000  0.52990000  1.0 -0.5434813986
O  O160  1  0.08917000  0.02990000  0.47010000  1.0 -0.5434813986
O  O17  1  0.52410000  0.39880000  0.43320000  0.5 -0.2092438392
O  O18  1  0.47590000  0.60120000  0.43320000  0.5 -0.2092438392
O  O19  1  0.47590000  0.39880000  0.56680000  0.5 -0.2092438392
O  O20  1  0.52410000  0.60120000  0.56680000  0.5 -0.2092438392
O  O21  1  0.43320000  0.52410000  0.39880000  0.5 -0.2092438392
O  O22  1  0.43320000  0.47590000  0.60120000  0.5 -0.2092438392
O  O23  1  0.56680000  0.47590000  0.39880000  0.5 -0.2092438392
O  O24  1  0.56680000  0.52410000  0.60120000  0.5 -0.2092438392
O  O25  1  0.39880000  0.43320000  0.52410000  0.5 -0.2092438392
O  O26  1  0.60120000  0.43320000  0.47590000  0.5 -0.2092438392
O  O27  1  0.39880000  0.56680000  0.47590000  0.5 -0.2092438392
O  O28  1  0.60120000  0.56680000  0.52410000  0.5 -0.2092438392
O  O29  1  0.39880000  0.52410000  0.43320000  0.5 -0.2092438392
O  O30  1  0.60120000  0.47590000  0.43320000  0.5 -0.2092438392
O  O31  1  0.39880000  0.47590000  0.56680000  0.5 -0.2092438392
O  O32  1  0.60120000  0.52410000  0.56680000  0.5 -0.2092438392
O  O33  1  0.52410000  0.43320000  0.39880000  0.5 -0.2092438392
O  O34  1  0.47590000  0.43320000  0.60120000  0.5 -0.2092438392
O  O35  1  0.47590000  0.56680000  0.39880000  0.5 -0.2092438392
O  O36  1  0.52410000  0.56680000  0.60120000  0.5 -0.2092438392
O  O37  1  0.43320000  0.39880000  0.52410000  0.5 -0.2092438392
O  O38  1  0.43320000  0.60120000  0.47590000  0.5 -0.2092438392
O  O39  1  0.56680000  0.39880000  0.47590000  0.5 -0.2092438392
O  O40  1  0.56680000  0.60120000  0.52410000  0.5 -0.2092438392
O  O41  1  0.52410000  0.89880000  0.93320000  0.5 -0.2092438392
O  O42  1  0.47590000  0.10120000  0.93320000  0.5 -0.2092438392
O  O43  1  0.47590000  0.89880000  0.06680000  0.5 -0.2092438392
O  O44  1  0.52410000  0.10120000  0.06680000  0.5 -0.2092438392
O  O45  1  0.43320000  0.02410000  0.89880000  0.5 -0.2092438392
O  O46  1  0.43320000  0.97590000  0.10120000  0.5 -0.2092438392
O  O47  1  0.56680000  0.97590000  0.89880000  0.5 -0.2092438392
O  O48  1  0.56680000  0.02410000  0.10120000  0.5 -0.2092438392
O  O49  1  0.39880000  0.93320000  0.02410000  0.5 -0.2092438392
O  O50  1  0.60120000  0.93320000  0.97590000  0.5 -0.2092438392
O  O51  1  0.39880000  0.06680000  0.97590000  0.5 -0.2092438392
O  O52  1  0.60120000  0.06680000  0.02410000  0.5 -0.2092438392
O  O53  1  0.39880000  0.02410000  0.93320000  0.5 -0.2092438392
O  O54  1  0.60120000  0.97590000  0.93320000  0.5 -0.2092438392
O  O55  1  0.39880000  0.97590000  0.06680000  0.5 -0.2092438392
O  O56  1  0.60120000  0.02410000  0.06680000  0.5 -0.2092438392
O  O57  1  0.52410000  0.93320000  0.89880000  0.5 -0.2092438392
O  O58  1  0.47590000  0.93320000  0.10120000  0.5 -0.2092438392
O  O59  1  0.47590000  0.06680000  0.89880000  0.5 -0.2092438392
O  O60  1  0.52410000  0.06680000  0.10120000  0.5 -0.2092438392
O  O61  1  0.43320000  0.89880000  0.02410000  0.5 -0.2092438392
O  O62  1  0.43320000  0.10120000  0.97590000  0.5 -0.2092438392
O  O63  1  0.56680000  0.89880000  0.97590000  0.5 -0.2092438392
O  O64  1  0.56680000  0.10120000  0.02410000  0.5 -0.2092438392
O  O65  1  0.02410000  0.39880000  0.93320000  0.5 -0.2092438392
O  O66  1  0.97590000  0.60120000  0.93320000  0.5 -0.2092438392
O  O67  1  0.97590000  0.39880000  0.06680000  0.5 -0.2092438392
O  O68  1  0.02410000  0.60120000  0.06680000  0.5 -0.2092438392
O  O69  1  0.93320000  0.52410000  0.89880000  0.5 -0.2092438392
O  O70  1  0.93320000  0.47590000  0.10120000  0.5 -0.2092438392
O  O71  1  0.06680000  0.47590000  0.89880000  0.5 -0.2092438392
O  O72  1  0.06680000  0.52410000  0.10120000  0.5 -0.2092438392
O  O73  1  0.89880000  0.43320000  0.02410000  0.5 -0.2092438392
O  O74  1  0.10120000  0.43320000  0.97590000  0.5 -0.2092438392
O  O75  1  0.89880000  0.56680000  0.97590000  0.5 -0.2092438392
O  O76  1  0.10120000  0.56680000  0.02410000  0.5 -0.2092438392
O  O77  1  0.89880000  0.52410000  0.93320000  0.5 -0.2092438392
O  O78  1  0.10120000  0.47590000  0.93320000  0.5 -0.2092438392
O  O79  1  0.89880000  0.47590000  0.06680000  0.5 -0.2092438392
O  O80  1  0.10120000  0.52410000  0.06680000  0.5 -0.2092438392
O  O81  1  0.02410000  0.43320000  0.89880000  0.5 -0.2092438392
O  O82  1  0.97590000  0.43320000  0.10120000  0.5 -0.2092438392
O  O83  1  0.97590000  0.56680000  0.89880000  0.5 -0.2092438392
O  O84  1  0.02410000  0.56680000  0.10120000  0.5 -0.2092438392
O  O85  1  0.93320000  0.39880000  0.02410000  0.5 -0.2092438392
O  O86  1  0.93320000  0.60120000  0.97590000  0.5 -0.2092438392
O  O87  1  0.06680000  0.39880000  0.97590000  0.5 -0.2092438392
O  O88  1  0.06680000  0.60120000  0.02410000  0.5 -0.2092438392
O  O89  1  0.02410000  0.89880000  0.43320000  0.5 -0.2092438392
O  O90  1  0.97590000  0.10120000  0.43320000  0.5 -0.2092438392
O  O91  1  0.97590000  0.89880000  0.56680000  0.5 -0.2092438392
O  O92  1  0.02410000  0.10120000  0.56680000  0.5 -0.2092438392
O  O93  1  0.93320000  0.02410000  0.39880000  0.5 -0.2092438392
O  O94  1  0.93320000  0.97590000  0.60120000  0.5 -0.2092438392
O  O95  1  0.06680000  0.97590000  0.39880000  0.5 -0.2092438392
O  O96  1  0.06680000  0.02410000  0.60120000  0.5 -0.2092438392
O  O97  1  0.89880000  0.93320000  0.52410000  0.5 -0.2092438392
O  O98  1  0.10120000  0.93320000  0.47590000  0.5 -0.2092438392
O  O99  1  0.89880000  0.06680000  0.47590000  0.5 -0.2092438392
O  O100  1  0.10120000  0.06680000  0.52410000  0.5 -0.2092438392
O  O101  1  0.89880000  0.02410000  0.43320000  0.5 -0.2092438392
O  O102  1  0.10120000  0.97590000  0.43320000  0.5 -0.2092438392
O  O103  1  0.89880000  0.97590000  0.56680000  0.5 -0.2092438392
O  O104  1  0.10120000  0.02410000  0.56680000  0.5 -0.2092438392
O  O105  1  0.02410000  0.93320000  0.39880000  0.5 -0.2092438392
O  O106  1  0.97590000  0.93320000  0.60120000  0.5 -0.2092438392
O  O107  1  0.97590000  0.06680000  0.39880000  0.5 -0.2092438392
O  O108  1  0.02410000  0.06680000  0.60120000  0.5 -0.2092438392
O  O109  1  0.93320000  0.89880000  0.52410000  0.5 -0.2092438392
O  O110  1  0.93320000  0.10120000  0.47590000  0.5 -0.2092438392
O  O111  1  0.06680000  0.89880000  0.47590000  0.5 -0.2092438392
O  O112  1  0.06680000  0.10120000  0.52410000  0.5 -0.2092438392
