# DDEC6 charges by PACMAN v1.1 (https://github.com/mtap-research/PACMAN-charge/)
data_d3dt00422h2_2_FSR_pacman
_symmetry_space_group_name_H-M   'P 1'
_cell_length_a   32.00500000
_cell_length_b   16.56300000
_cell_length_c   28.85010000
_cell_angle_alpha   90.00000000
_cell_angle_beta   90.00000000
_cell_angle_gamma   90.00000000
_symmetry_Int_Tables_number   1
_chemical_formula_structural   Ca20H268.0C380N16O90.072F36
_chemical_formula_sum   'Ca20 H268.0 C380 N16 O90.072 F36'
_cell_volume   15293.40382263
_cell_formula_units_Z   1
loop_
 _symmetry_equiv_pos_site_id
 _symmetry_equiv_pos_as_xyz
  1  'x, y, z'
loop_
 _atom_site_type_symbol
 _atom_site_label
 _atom_site_symmetry_multiplicity
 _atom_site_fract_x
 _atom_site_fract_y
 _atom_site_fract_z
 _atom_site_occupancy
 _atom_site_charge
Ca  Ca1  1  0.25000000  0.09415000  0.42559000  1.0 1.3865273823
Ca  Ca2  1  0.75000000  0.90585000  0.42559000  1.0 1.3865273823
Ca  Ca3  1  0.75000000  0.59415000  0.92559000  1.0 1.3865273823
Ca  Ca4  1  0.25000000  0.40585000  0.92559000  1.0 1.3865273823
Ca  Ca5  1  0.35220000  0.09977000  0.48920000  1.0 1.3292968202
Ca  Ca6  1  0.64780000  0.90023000  0.48920000  1.0 1.3292968202
Ca  Ca7  1  0.85220000  0.90023000  0.48920000  1.0 1.3292968202
Ca  Ca8  1  0.14780000  0.09977000  0.48920000  1.0 1.3292968202
Ca  Ca9  1  0.85220000  0.59977000  0.98920000  1.0 1.3292968202
Ca  Ca10  1  0.14780000  0.40023000  0.98920000  1.0 1.3292968202
Ca  Ca11  1  0.35220000  0.40023000  0.98920000  1.0 1.3292968202
Ca  Ca12  1  0.64780000  0.59977000  0.98920000  1.0 1.3292968202
Ca  Ca13  1  0.44234000  0.53225000  0.95704000  1.0 1.3241384406
Ca  Ca14  1  0.55766000  0.46775000  0.95704000  1.0 1.3241384406
Ca  Ca15  1  0.94234000  0.46775000  0.95704000  1.0 1.3241384406
Ca  Ca16  1  0.05766000  0.53225000  0.95704000  1.0 1.3241384406
Ca  Ca17  1  0.94234000  0.03225000  0.45704000  1.0 1.3241384406
Ca  Ca18  1  0.05766000  0.96775000  0.45704000  1.0 1.3241384406
Ca  Ca19  1  0.44234000  0.96775000  0.45704000  1.0 1.3241384406
Ca  Ca20  1  0.55766000  0.03225000  0.45704000  1.0 1.3241384406
H  H1  1  0.41855000  0.26545000  0.49229000  1.0 0.1205565314
H  H2  1  0.58145000  0.73455000  0.49229000  1.0 0.1205565314
H  H3  1  0.91855000  0.73455000  0.49229000  1.0 0.1205565314
H  H4  1  0.08145000  0.26545000  0.49229000  1.0 0.1205565314
H  H5  1  0.91855000  0.76546000  0.99229000  1.0 0.1205565314
H  H6  1  0.08145000  0.23455000  0.99229000  1.0 0.1205565314
H  H7  1  0.41855000  0.23455000  0.99229000  1.0 0.1205565314
H  H8  1  0.58145000  0.76546000  0.99229000  1.0 0.1205565314
H  H9  1  0.52640000  0.17461000  0.54072000  1.0 0.1205565314
H  H10  1  0.47360000  0.82539000  0.54072000  1.0 0.1205565314
H  H11  1  0.02640000  0.82539000  0.54072000  1.0 0.1205565314
H  H12  1  0.97360000  0.17461000  0.54072000  1.0 0.1205565314
H  H13  1  0.02640000  0.67461000  0.04072000  1.0 0.1205565314
H  H14  1  0.97360000  0.32539000  0.04072000  1.0 0.1205565314
H  H15  1  0.52640000  0.32539000  0.04072000  1.0 0.1205565314
H  H16  1  0.47360000  0.67461000  0.04072000  1.0 0.1205565314
H  H17  1  0.53756000  0.29144000  0.58205000  1.0 0.130244633
H  H18  1  0.46244000  0.70856000  0.58205000  1.0 0.130244633
H  H19  1  0.03756000  0.70856000  0.58205000  1.0 0.130244633
H  H20  1  0.96244000  0.29144000  0.58205000  1.0 0.130244633
H  H21  1  0.03756000  0.79144000  0.08205000  1.0 0.130244633
H  H22  1  0.96244000  0.20856000  0.08205000  1.0 0.130244633
H  H23  1  0.53756000  0.20856000  0.08205000  1.0 0.130244633
H  H24  1  0.46244000  0.79144000  0.08205000  1.0 0.130244633
H  H25  1  0.43181000  0.38580000  0.53011000  1.0 0.130244633
H  H26  1  0.56819000  0.61420000  0.53011000  1.0 0.130244633
H  H27  1  0.93181000  0.61420000  0.53011000  1.0 0.130244633
H  H28  1  0.06819000  0.38580000  0.53011000  1.0 0.130244633
H  H29  1  0.93181000  0.88580000  0.03011000  1.0 0.130244633
H  H30  1  0.06819000  0.11420000  0.03011000  1.0 0.130244633
H  H31  1  0.43181000  0.11420000  0.03011000  1.0 0.130244633
H  H32  1  0.56819000  0.88580000  0.03011000  1.0 0.130244633
H  H65  1  0.29032000  0.73818000  0.37039000  1.0 0.1112643213
H  H66  1  0.70968000  0.26182000  0.37039000  1.0 0.1112643213
H  H67  1  0.79032000  0.26182000  0.37039000  1.0 0.1112643213
H  H68  1  0.20968000  0.73818000  0.37039000  1.0 0.1112643213
H  H69  1  0.79032000  0.23818000  0.87039000  1.0 0.1112643213
H  H70  1  0.20968000  0.76182000  0.87039000  1.0 0.1112643213
H  H71  1  0.29032000  0.76182000  0.87039000  1.0 0.1112643213
H  H72  1  0.70968000  0.23818000  0.87039000  1.0 0.1112643213
H  H73  1  0.28571000  0.86018000  0.40743000  1.0 0.1112643213
H  H74  1  0.71428000  0.13982000  0.40743000  1.0 0.1112643213
H  H75  1  0.78571000  0.13982000  0.40743000  1.0 0.1112643213
H  H76  1  0.21428000  0.86018000  0.40743000  1.0 0.1112643213
H  H77  1  0.78571000  0.36018000  0.90743000  1.0 0.1112643213
H  H78  1  0.21428000  0.63982000  0.90743000  1.0 0.1112643213
H  H79  1  0.28571000  0.63982000  0.90743000  1.0 0.1112643213
H  H80  1  0.71428000  0.36018000  0.90743000  1.0 0.1112643213
H  H81  1  0.39704000  0.92382000  0.35585000  1.0 0.1112643213
H  H82  1  0.60296000  0.07618000  0.35585000  1.0 0.1112643213
H  H83  1  0.89704000  0.07618000  0.35585000  1.0 0.1112643213
H  H84  1  0.10296000  0.92382000  0.35585000  1.0 0.1112643213
H  H85  1  0.89704000  0.42382000  0.85585000  1.0 0.1112643213
H  H86  1  0.10296000  0.57618000  0.85585000  1.0 0.1112643213
H  H87  1  0.39704000  0.57618000  0.85585000  1.0 0.1112643213
H  H88  1  0.60296000  0.42382000  0.85585000  1.0 0.1112643213
H  H89  1  0.39968000  0.80534000  0.31415000  1.0 0.1112643213
H  H90  1  0.60032000  0.19466000  0.31415000  1.0 0.1112643213
H  H91  1  0.89968000  0.19466000  0.31415000  1.0 0.1112643213
H  H92  1  0.10032000  0.80534000  0.31415000  1.0 0.1112643213
H  H93  1  0.89968000  0.30534000  0.81415000  1.0 0.1112643213
H  H94  1  0.10032000  0.69466000  0.81415000  1.0 0.1112643213
H  H95  1  0.39968000  0.69466000  0.81415000  1.0 0.1112643213
H  H96  1  0.60032000  0.30534000  0.81415000  1.0 0.1112643213
H  H97  1  0.31794000  0.52090000  0.18073000  1.0 0.1205565314
H  H98  1  0.68206000  0.47910000  0.18073000  1.0 0.1205565314
H  H99  1  0.81794000  0.47910000  0.18073000  1.0 0.1205565314
H  H100  1  0.18206000  0.52090000  0.18073000  1.0 0.1205565314
H  H101  1  0.81794000  0.02090000  0.68073000  1.0 0.1205565314
H  H102  1  0.18206000  0.97910000  0.68073000  1.0 0.1205565314
H  H103  1  0.31794000  0.97910000  0.68073000  1.0 0.1205565314
H  H104  1  0.68206000  0.02090000  0.68073000  1.0 0.1205565314
H  H105  1  0.32942000  0.50448000  0.10312000  1.0 0.1205565314
H  H106  1  0.67058000  0.49552000  0.10312000  1.0 0.1205565314
H  H107  1  0.82942000  0.49552000  0.10312000  1.0 0.1205565314
H  H108  1  0.17058000  0.50448000  0.10312000  1.0 0.1205565314
H  H109  1  0.82942000  0.00448000  0.60312000  1.0 0.1205565314
H  H110  1  0.17058000  0.99552000  0.60312000  1.0 0.1205565314
H  H111  1  0.32942000  0.99552000  0.60312000  1.0 0.1205565314
H  H112  1  0.67058000  0.00448000  0.60312000  1.0 0.1205565314
H  H113  1  0.43351000  0.63648000  0.11288000  1.0 0.130244633
H  H114  1  0.56649000  0.36352000  0.11288000  1.0 0.130244633
H  H115  1  0.93351000  0.36352000  0.11288000  1.0 0.130244633
H  H116  1  0.06649000  0.63648000  0.11288000  1.0 0.130244633
H  H117  1  0.93351000  0.13647000  0.61288000  1.0 0.130244633
H  H118  1  0.06649000  0.86352000  0.61288000  1.0 0.130244633
H  H119  1  0.43351000  0.86352000  0.61288000  1.0 0.130244633
H  H120  1  0.56649000  0.13647000  0.61288000  1.0 0.130244633
H  H121  1  0.42093000  0.65510000  0.19061000  1.0 0.1205565314
H  H122  1  0.57907000  0.34490000  0.19061000  1.0 0.1205565314
H  H123  1  0.92093000  0.34490000  0.19061000  1.0 0.1205565314
H  H124  1  0.07907000  0.65510000  0.19061000  1.0 0.1205565314
H  H125  1  0.92093000  0.15510000  0.69061000  1.0 0.1205565314
H  H126  1  0.07907000  0.84490000  0.69061000  1.0 0.1205565314
H  H127  1  0.42093000  0.84490000  0.69061000  1.0 0.1205565314
H  H128  1  0.57907000  0.15510000  0.69061000  1.0 0.1205565314
H  H129  1  0.29702000  0.40695000  0.30835000  1.0 0.1112643213
H  H130  1  0.70298000  0.59305000  0.30835000  1.0 0.1112643213
H  H131  1  0.79702000  0.59305000  0.30835000  1.0 0.1112643213
H  H132  1  0.20298000  0.40695000  0.30835000  1.0 0.1112643213
H  H133  1  0.79702000  0.90695000  0.80835000  1.0 0.1112643213
H  H134  1  0.20298000  0.09305000  0.80835000  1.0 0.1112643213
H  H135  1  0.29702000  0.09305000  0.80835000  1.0 0.1112643213
H  H136  1  0.70298000  0.90695000  0.80835000  1.0 0.1112643213
H  H137  1  0.28899000  0.29008000  0.35133000  1.0 0.1205565314
H  H138  1  0.71101000  0.70992000  0.35133000  1.0 0.1205565314
H  H139  1  0.78899000  0.70992000  0.35133000  1.0 0.1205565314
H  H140  1  0.21101000  0.29008000  0.35133000  1.0 0.1205565314
H  H141  1  0.78899000  0.79008000  0.85133000  1.0 0.1205565314
H  H142  1  0.21101000  0.20992000  0.85133000  1.0 0.1205565314
H  H143  1  0.28899000  0.20992000  0.85133000  1.0 0.1205565314
H  H144  1  0.71101000  0.79008000  0.85133000  1.0 0.1205565314
H  H145  1  0.37902000  0.36044000  0.43570000  1.0 0.1205565314
H  H146  1  0.62098000  0.63956000  0.43570000  1.0 0.1205565314
H  H147  1  0.87902000  0.63956000  0.43570000  1.0 0.1205565314
H  H148  1  0.12098000  0.36044000  0.43570000  1.0 0.1205565314
H  H149  1  0.87902000  0.86044000  0.93570000  1.0 0.1205565314
H  H150  1  0.12098000  0.13956000  0.93570000  1.0 0.1205565314
H  H151  1  0.37902000  0.13956000  0.93570000  1.0 0.1205565314
H  H152  1  0.62098000  0.86044000  0.93570000  1.0 0.1205565314
H  H153  1  0.38655000  0.47862000  0.39390000  1.0 0.1205565314
H  H154  1  0.61345000  0.52138000  0.39390000  1.0 0.1205565314
H  H155  1  0.88655000  0.52138000  0.39390000  1.0 0.1205565314
H  H156  1  0.11345000  0.47862000  0.39390000  1.0 0.1205565314
H  H157  1  0.88655000  0.97862000  0.89390000  1.0 0.1205565314
H  H158  1  0.11345000  0.02138000  0.89390000  1.0 0.1205565314
H  H159  1  0.38655000  0.02138000  0.89390000  1.0 0.1205565314
H  H160  1  0.61345000  0.97862000  0.89390000  1.0 0.1205565314
H  H49  1  0.43832000  0.48713000  0.72112000  0.283 0.1009914778
H  H50  1  0.56168000  0.51287000  0.72112000  0.283 0.1009914778
H  H51  1  0.93832000  0.51287000  0.72112000  0.283 0.1009914778
H  H52  1  0.06168000  0.48713000  0.72112000  0.283 0.1009914778
H  H53  1  0.93832000  0.98713000  0.22112000  0.283 0.1009914778
H  H54  1  0.06168000  0.01287000  0.22112000  0.283 0.1009914778
H  H55  1  0.43832000  0.01287000  0.22112000  0.283 0.1009914778
H  H56  1  0.56168000  0.98713000  0.22112000  0.283 0.1009914778
H  H57  1  0.43869000  0.49787000  0.80074000  0.283 0.1009914778
H  H58  1  0.56131000  0.50213000  0.80074000  0.283 0.1009914778
H  H59  1  0.93869000  0.50213000  0.80074000  0.283 0.1009914778
H  H60  1  0.06131000  0.49787000  0.80074000  0.283 0.1009914778
H  H61  1  0.93869000  0.99787000  0.30074000  0.283 0.1009914778
H  H62  1  0.06131000  0.00213000  0.30074000  0.283 0.1009914778
H  H63  1  0.43869000  0.00213000  0.30074000  0.283 0.1009914778
H  H64  1  0.56131000  0.99787000  0.30074000  0.283 0.1009914778
H  H241  1  0.35113000  0.26245000  0.56189000  0.307 0.1112643213
H  H242  1  0.64887000  0.73755000  0.56189000  0.307 0.1112643213
H  H243  1  0.85113000  0.73755000  0.56189000  0.307 0.1112643213
H  H244  1  0.14887000  0.26245000  0.56189000  0.307 0.1112643213
H  H245  1  0.85113000  0.76245000  0.06189000  0.307 0.1112643213
H  H246  1  0.14887000  0.23755000  0.06189000  0.307 0.1112643213
H  H247  1  0.35113000  0.23755000  0.06189000  0.307 0.1112643213
H  H248  1  0.64887000  0.76245000  0.06189000  0.307 0.1112643213
H  H249  1  0.41343000  0.15986000  0.63470000  0.307 0.1112643213
H  H250  1  0.58657000  0.84014000  0.63470000  0.307 0.1112643213
H  H251  1  0.91343000  0.84014000  0.63470000  0.307 0.1112643213
H  H252  1  0.08657000  0.15986000  0.63470000  0.307 0.1112643213
H  H253  1  0.91343000  0.65986000  0.13470000  0.307 0.1112643213
H  H254  1  0.08657000  0.34014000  0.13470000  0.307 0.1112643213
H  H255  1  0.41343000  0.34014000  0.13470000  0.307 0.1112643213
H  H256  1  0.58657000  0.65986000  0.13470000  0.307 0.1112643213
H  H257  1  0.37216000  0.16006000  0.66397000  0.307 0.0684552094
H  H258  1  0.62784000  0.83994000  0.66397000  0.307 0.0684552094
H  H259  1  0.87216000  0.83994000  0.66397000  0.307 0.0684552094
H  H260  1  0.12784000  0.16006000  0.66397000  0.307 0.0684552094
H  H261  1  0.87216000  0.66006000  0.16397000  0.307 0.0684552094
H  H262  1  0.12784000  0.33994000  0.16397000  0.307 0.0684552094
H  H263  1  0.37216000  0.33994000  0.16397000  0.307 0.0684552094
H  H264  1  0.62784000  0.66006000  0.16397000  0.307 0.0684552094
H  H265  1  0.40793000  0.22155000  0.67546000  0.307 0.0497833589
H  H266  1  0.59207000  0.77845000  0.67546000  0.307 0.0497833589
H  H267  1  0.90793000  0.77845000  0.67546000  0.307 0.0497833589
H  H268  1  0.09207000  0.22155000  0.67546000  0.307 0.0497833589
H  H269  1  0.90793000  0.72155000  0.17546000  0.307 0.0497833589
H  H270  1  0.09207000  0.27845000  0.17546000  0.307 0.0497833589
H  H271  1  0.40793000  0.27845000  0.17546000  0.307 0.0497833589
H  H272  1  0.59207000  0.72155000  0.17546000  0.307 0.0497833589
H  H273  1  0.34366000  0.34421000  0.63673000  0.307 0.0912388879
H  H274  1  0.65634000  0.65579000  0.63673000  0.307 0.0912388879
H  H275  1  0.84366000  0.65579000  0.63673000  0.307 0.0912388879
H  H276  1  0.15634000  0.34421000  0.63673000  0.307 0.0912388879
H  H277  1  0.84366000  0.84421000  0.13673000  0.307 0.0912388879
H  H278  1  0.15634000  0.15579000  0.13673000  0.307 0.0912388879
H  H279  1  0.34366000  0.15579000  0.13673000  0.307 0.0912388879
H  H280  1  0.65634000  0.84421000  0.13673000  0.307 0.0912388879
H  H281  1  0.38625000  0.36421000  0.61248000  0.307 0.0912388879
H  H282  1  0.61375000  0.63579000  0.61248000  0.307 0.0912388879
H  H283  1  0.88625000  0.63579000  0.61248000  0.307 0.0912388879
H  H284  1  0.11375000  0.36421000  0.61248000  0.307 0.0912388879
H  H285  1  0.88625000  0.86421000  0.11248000  0.307 0.0912388879
H  H286  1  0.11375000  0.13579000  0.11248000  0.307 0.0912388879
H  H287  1  0.38625000  0.13579000  0.11248000  0.307 0.0912388879
H  H288  1  0.61375000  0.86421000  0.11248000  0.307 0.0912388879
H  H289  1  0.38563000  0.33588000  0.66433000  0.307 0.0684552094
H  H290  1  0.61437000  0.66412000  0.66433000  0.307 0.0684552094
H  H291  1  0.88563000  0.66412000  0.66433000  0.307 0.0684552094
H  H292  1  0.11437000  0.33588000  0.66433000  0.307 0.0684552094
H  H293  1  0.88563000  0.83588000  0.16433000  0.307 0.0684552094
H  H294  1  0.11437000  0.16412000  0.16433000  0.307 0.0684552094
H  H295  1  0.38563000  0.16412000  0.16433000  0.307 0.0684552094
H  H296  1  0.61437000  0.83588000  0.16433000  0.307 0.0684552094
H  H353  1  0.46205000  0.73750000  0.92208000  0.452 0.0497833589
H  H354  1  0.53795000  0.26250000  0.92208000  0.452 0.0497833589
H  H355  1  0.96205000  0.26250000  0.92208000  0.452 0.0497833589
H  H356  1  0.03795000  0.73750000  0.92208000  0.452 0.0497833589
H  H357  1  0.96205000  0.23750000  0.42208000  0.452 0.0497833589
H  H358  1  0.03795000  0.76250000  0.42208000  0.452 0.0497833589
H  H359  1  0.46205000  0.76250000  0.42208000  0.452 0.0497833589
H  H360  1  0.53795000  0.23750000  0.42208000  0.452 0.0497833589
H  H361  1  0.36257000  0.82622000  0.97535000  0.452 0.0497833589
H  H362  1  0.63743000  0.17378000  0.97535000  0.452 0.0497833589
H  H363  1  0.86257000  0.17378000  0.97535000  0.452 0.0497833589
H  H364  1  0.13743000  0.82622000  0.97535000  0.452 0.0497833589
H  H365  1  0.86257000  0.32622000  0.47534000  0.452 0.0497833589
H  H366  1  0.13743000  0.67378000  0.47534000  0.452 0.0497833589
H  H367  1  0.36257000  0.67378000  0.47534000  0.452 0.0497833589
H  H368  1  0.63743000  0.32622000  0.47534000  0.452 0.0497833589
H  H369  1  0.38862000  0.77604000  0.01122000  0.452 0.0684552094
H  H370  1  0.61138000  0.22396000  0.01122000  0.452 0.0684552094
H  H371  1  0.88862000  0.22396000  0.01122000  0.452 0.0684552094
H  H372  1  0.11138000  0.77604000  0.01122000  0.452 0.0684552094
H  H373  1  0.88862000  0.27604000  0.51122000  0.452 0.0684552094
H  H374  1  0.11138000  0.72396000  0.51122000  0.452 0.0684552094
H  H375  1  0.38862000  0.72396000  0.51122000  0.452 0.0684552094
H  H376  1  0.61138000  0.27604000  0.51122000  0.452 0.0684552094
H  H377  1  0.36950000  0.73351000  0.96756000  0.452 0.0497833589
H  H378  1  0.63050000  0.26649000  0.96756000  0.452 0.0497833589
H  H379  1  0.86950000  0.26649000  0.96756000  0.452 0.0497833589
H  H380  1  0.13050000  0.73351000  0.96756000  0.452 0.0497833589
H  H381  1  0.86950000  0.23351000  0.46756000  0.452 0.0497833589
H  H382  1  0.13050000  0.76649000  0.46756000  0.452 0.0497833589
H  H383  1  0.36950000  0.76649000  0.46756000  0.452 0.0497833589
H  H384  1  0.63050000  0.23351000  0.46756000  0.452 0.0497833589
H  H385  1  0.46042000  0.88223000  0.96289000  0.452 0.0684552094
H  H386  1  0.53958000  0.11777000  0.96289000  0.452 0.0684552094
H  H387  1  0.96042000  0.11777000  0.96289000  0.452 0.0684552094
H  H388  1  0.03958000  0.88223000  0.96289000  0.452 0.0684552094
H  H389  1  0.96042000  0.38223000  0.46289000  0.452 0.0684552094
H  H390  1  0.03958000  0.61777000  0.46289000  0.452 0.0684552094
H  H391  1  0.46042000  0.61777000  0.46289000  0.452 0.0684552094
H  H392  1  0.53958000  0.38223000  0.46289000  0.452 0.0684552094
H  H393  1  0.41459000  0.91528000  0.96005000  0.452 0.0497833589
H  H394  1  0.58540000  0.08472000  0.96005000  0.452 0.0497833589
H  H395  1  0.91460000  0.08472000  0.96005000  0.452 0.0497833589
H  H396  1  0.08540000  0.91528000  0.96005000  0.452 0.0497833589
H  H397  1  0.91460000  0.41528000  0.46005000  0.452 0.0497833589
H  H398  1  0.08540000  0.58472000  0.46005000  0.452 0.0497833589
H  H399  1  0.41459000  0.58472000  0.46005000  0.452 0.0497833589
H  H400  1  0.58540000  0.41528000  0.46005000  0.452 0.0497833589
H  H401  1  0.43759000  0.88704000  0.91490000  0.452 0.0497833589
H  H402  1  0.56241000  0.11296000  0.91490000  0.452 0.0497833589
H  H403  1  0.93759000  0.11296000  0.91490000  0.452 0.0497833589
H  H404  1  0.06241000  0.88704000  0.91490000  0.452 0.0497833589
H  H405  1  0.93759000  0.38704000  0.41490000  0.452 0.0497833589
H  H406  1  0.06241000  0.61296000  0.41490000  0.452 0.0497833589
H  H407  1  0.43759000  0.61296000  0.41490000  0.452 0.0497833589
H  H408  1  0.56241000  0.38704000  0.41490000  0.452 0.0497833589
H  H161  1  0.27403000  0.09578000  0.59348000  0.5 0.1009914778
H  H162  1  0.72597000  0.90422000  0.59348000  0.5 0.1009914778
H  H163  1  0.77403000  0.90422000  0.59348000  0.5 0.1009914778
H  H164  1  0.22597000  0.09578000  0.59348000  0.5 0.1009914778
H  H165  1  0.77403000  0.59578000  0.09348000  0.5 0.1009914778
H  H166  1  0.22597000  0.40422000  0.09348000  0.5 0.1009914778
H  H167  1  0.27403000  0.40422000  0.09348000  0.5 0.1009914778
H  H168  1  0.72597000  0.59578000  0.09348000  0.5 0.1009914778
H  H169  1  0.22508000  0.09874000  0.59334000  0.5 0.1009914778
H  H170  1  0.77492000  0.90126000  0.59334000  0.5 0.1009914778
H  H171  1  0.72508000  0.90126000  0.59334000  0.5 0.1009914778
H  H172  1  0.27492000  0.09874000  0.59334000  0.5 0.1009914778
H  H173  1  0.72508000  0.59874000  0.09334000  0.5 0.1009914778
H  H174  1  0.27492000  0.40126000  0.09334000  0.5 0.1009914778
H  H175  1  0.22508000  0.40126000  0.09334000  0.5 0.1009914778
H  H176  1  0.77492000  0.59874000  0.09334000  0.5 0.1009914778
H  H177  1  0.25089000  0.17889000  0.58941000  0.5 0.1112643213
H  H178  1  0.74911000  0.82111000  0.58941000  0.5 0.1112643213
H  H179  1  0.75089000  0.82111000  0.58941000  0.5 0.1112643213
H  H180  1  0.24911000  0.17889000  0.58941000  0.5 0.1112643213
H  H181  1  0.75089000  0.67889000  0.08941000  0.5 0.1112643213
H  H182  1  0.24911000  0.32111000  0.08941000  0.5 0.1112643213
H  H183  1  0.25089000  0.32111000  0.08941000  0.5 0.1112643213
H  H184  1  0.74911000  0.67889000  0.08941000  0.5 0.1112643213
H  H297  1  0.38717000  0.71462000  0.98506000  0.548 0.0684552094
H  H298  1  0.61283000  0.28538000  0.98506000  0.548 0.0684552094
H  H299  1  0.88717000  0.28538000  0.98506000  0.548 0.0684552094
H  H300  1  0.11283000  0.71462000  0.98506000  0.548 0.0684552094
H  H301  1  0.88717000  0.21462000  0.48506000  0.548 0.0684552094
H  H302  1  0.11283000  0.78538000  0.48506000  0.548 0.0684552094
H  H303  1  0.38717000  0.78538000  0.48506000  0.548 0.0684552094
H  H304  1  0.61283000  0.21462000  0.48506000  0.548 0.0684552094
H  H305  1  0.47567000  0.82373000  0.94339000  0.548 0.0684552094
H  H306  1  0.52433000  0.17627000  0.94339000  0.548 0.0684552094
H  H307  1  0.97567000  0.17627000  0.94339000  0.548 0.0684552094
H  H308  1  0.02433000  0.82373000  0.94339000  0.548 0.0684552094
H  H309  1  0.97567000  0.32373000  0.44339000  0.548 0.0684552094
H  H310  1  0.02433000  0.67627000  0.44339000  0.548 0.0684552094
H  H311  1  0.47567000  0.67627000  0.44339000  0.548 0.0684552094
H  H312  1  0.52433000  0.32373000  0.44339000  0.548 0.0684552094
H  H313  1  0.44371000  0.86171000  0.90847000  0.548 0.0609313105
H  H314  1  0.55629000  0.13829000  0.90847000  0.548 0.0609313105
H  H315  1  0.94371000  0.13829000  0.90847000  0.548 0.0609313105
H  H316  1  0.05629000  0.86171000  0.90847000  0.548 0.0609313105
H  H317  1  0.94371000  0.36171000  0.40847000  0.548 0.0609313105
H  H318  1  0.05629000  0.63829000  0.40847000  0.548 0.0609313105
H  H319  1  0.44371000  0.63829000  0.40847000  0.548 0.0609313105
H  H320  1  0.55629000  0.36171000  0.40847000  0.548 0.0609313105
H  H321  1  0.45303000  0.76883000  0.90694000  0.548 0.0401774458
H  H322  1  0.54697000  0.23117000  0.90694000  0.548 0.0401774458
H  H323  1  0.95303000  0.23117000  0.90694000  0.548 0.0401774458
H  H324  1  0.04697000  0.76883000  0.90694000  0.548 0.0401774458
H  H325  1  0.95303000  0.26883000  0.40694000  0.548 0.0401774458
H  H326  1  0.04697000  0.73117000  0.40694000  0.548 0.0401774458
H  H327  1  0.45303000  0.73117000  0.40694000  0.548 0.0401774458
H  H328  1  0.54697000  0.26883000  0.40694000  0.548 0.0401774458
H  H329  1  0.38652000  0.84410000  0.00988000  0.548 0.0497833589
H  H330  1  0.61348000  0.15590000  0.00988000  0.548 0.0497833589
H  H331  1  0.88652000  0.15590000  0.00988000  0.548 0.0497833589
H  H332  1  0.11348000  0.84410000  0.00988000  0.548 0.0497833589
H  H333  1  0.88652000  0.34410000  0.50988000  0.548 0.0497833589
H  H334  1  0.11348000  0.65590000  0.50988000  0.548 0.0497833589
H  H335  1  0.38652000  0.65590000  0.50988000  0.548 0.0497833589
H  H336  1  0.61348000  0.34410000  0.50988000  0.548 0.0497833589
H  H337  1  0.37698000  0.88649000  0.96247000  0.548 0.0497833589
H  H338  1  0.62302000  0.11351000  0.96247000  0.548 0.0497833589
H  H339  1  0.87698000  0.11351000  0.96247000  0.548 0.0497833589
H  H340  1  0.12302000  0.88649000  0.96247000  0.548 0.0497833589
H  H341  1  0.87698000  0.38649000  0.46247000  0.548 0.0497833589
H  H342  1  0.12302000  0.61351000  0.46247000  0.548 0.0497833589
H  H343  1  0.37698000  0.61351000  0.46247000  0.548 0.0497833589
H  H344  1  0.62302000  0.38649000  0.46247000  0.548 0.0497833589
H  H345  1  0.41886000  0.90477000  0.98862000  0.548 0.0609313105
H  H346  1  0.58114000  0.09523000  0.98862000  0.548 0.0609313105
H  H347  1  0.91886000  0.09523000  0.98862000  0.548 0.0609313105
H  H348  1  0.08114000  0.90477000  0.98862000  0.548 0.0609313105
H  H349  1  0.91886000  0.40477000  0.48862000  0.548 0.0609313105
H  H350  1  0.08114000  0.59523000  0.48862000  0.548 0.0609313105
H  H351  1  0.41886000  0.59523000  0.48862000  0.548 0.0609313105
H  H352  1  0.58114000  0.40477000  0.48862000  0.548 0.0609313105
H  H185  1  0.41413000  0.10769000  0.58006000  0.693 0.1009914778
H  H186  1  0.58587000  0.89231000  0.58006000  0.693 0.1009914778
H  H187  1  0.91413000  0.89231000  0.58006000  0.693 0.1009914778
H  H188  1  0.08587000  0.10769000  0.58006000  0.693 0.1009914778
H  H189  1  0.91413000  0.60769000  0.08006000  0.693 0.1009914778
H  H190  1  0.08587000  0.39231000  0.08006000  0.693 0.1009914778
H  H191  1  0.41413000  0.39231000  0.08006000  0.693 0.1009914778
H  H192  1  0.58587000  0.60769000  0.08006000  0.693 0.1009914778
H  H193  1  0.36893000  0.27425000  0.61794000  0.693 0.1009914778
H  H194  1  0.63107000  0.72575000  0.61794000  0.693 0.1009914778
H  H195  1  0.86893000  0.72575000  0.61794000  0.693 0.1009914778
H  H196  1  0.13107000  0.27425000  0.61794000  0.693 0.1009914778
H  H197  1  0.86893000  0.77425000  0.11794000  0.693 0.1009914778
H  H198  1  0.13107000  0.22575000  0.11794000  0.693 0.1009914778
H  H199  1  0.36893000  0.22575000  0.11794000  0.693 0.1009914778
H  H200  1  0.63107000  0.77425000  0.11794000  0.693 0.1009914778
H  H201  1  0.39383000  0.27665000  0.66472000  0.693 0.0497833589
H  H202  1  0.60617000  0.72335000  0.66472000  0.693 0.0497833589
H  H203  1  0.89383000  0.72335000  0.66472000  0.693 0.0497833589
H  H204  1  0.10617000  0.27665000  0.66472000  0.693 0.0497833589
H  H205  1  0.89383000  0.77665000  0.16472000  0.693 0.0497833589
H  H206  1  0.10617000  0.22335000  0.16472000  0.693 0.0497833589
H  H207  1  0.39383000  0.22335000  0.16472000  0.693 0.0497833589
H  H208  1  0.60617000  0.77665000  0.16472000  0.693 0.0497833589
H  H209  1  0.35444000  0.22101000  0.65990000  0.693 0.0497833589
H  H210  1  0.64556000  0.77899000  0.65990000  0.693 0.0497833589
H  H211  1  0.85444000  0.77899000  0.65990000  0.693 0.0497833589
H  H212  1  0.14556000  0.22101000  0.65990000  0.693 0.0497833589
H  H213  1  0.85444000  0.72101000  0.15990000  0.693 0.0497833589
H  H214  1  0.14556000  0.27899000  0.15990000  0.693 0.0497833589
H  H215  1  0.35444000  0.27899000  0.15990000  0.693 0.0497833589
H  H216  1  0.64556000  0.72101000  0.15990000  0.693 0.0497833589
H  H217  1  0.45119000  0.11222000  0.64469000  0.693 0.0912388879
H  H218  1  0.54881000  0.88778000  0.64469000  0.693 0.0912388879
H  H219  1  0.95119000  0.88778000  0.64469000  0.693 0.0912388879
H  H220  1  0.04881000  0.11222000  0.64469000  0.693 0.0912388879
H  H221  1  0.95119000  0.61222000  0.14469000  0.693 0.0912388879
H  H222  1  0.04881000  0.38778000  0.14469000  0.693 0.0912388879
H  H223  1  0.45119000  0.38778000  0.14469000  0.693 0.0912388879
H  H224  1  0.54881000  0.61222000  0.14469000  0.693 0.0912388879
H  H225  1  0.43293000  0.16108000  0.68659000  0.693 0.0912388879
H  H226  1  0.56707000  0.83892000  0.68659000  0.693 0.0912388879
H  H227  1  0.93293000  0.83892000  0.68659000  0.693 0.0912388879
H  H228  1  0.06707000  0.16108000  0.68659000  0.693 0.0912388879
H  H229  1  0.93293000  0.66108000  0.18659000  0.693 0.0912388879
H  H230  1  0.06707000  0.33892000  0.18659000  0.693 0.0912388879
H  H231  1  0.43293000  0.33892000  0.18659000  0.693 0.0912388879
H  H232  1  0.56707000  0.66108000  0.18659000  0.693 0.0912388879
H  H233  1  0.46009000  0.20498000  0.64904000  0.693 0.1009914778
H  H234  1  0.53991000  0.79502000  0.64904000  0.693 0.1009914778
H  H235  1  0.96009000  0.79502000  0.64904000  0.693 0.1009914778
H  H236  1  0.03991000  0.20498000  0.64904000  0.693 0.1009914778
H  H237  1  0.96009000  0.70498000  0.14905000  0.693 0.1009914778
H  H238  1  0.03991000  0.29502000  0.14905000  0.693 0.1009914778
H  H239  1  0.46009000  0.29502000  0.14905000  0.693 0.1009914778
H  H240  1  0.53991000  0.70498000  0.14905000  0.693 0.1009914778
H  H33  1  0.45548000  0.58446000  0.72162000  0.717 0.1009914778
H  H34  1  0.54452000  0.41554000  0.72162000  0.717 0.1009914778
H  H35  1  0.95548000  0.41554000  0.72162000  0.717 0.1009914778
H  H36  1  0.04452000  0.58446000  0.72162000  0.717 0.1009914778
H  H37  1  0.95548000  0.08446000  0.22162000  0.717 0.1009914778
H  H38  1  0.04452000  0.91554000  0.22162000  0.717 0.1009914778
H  H39  1  0.45548000  0.91554000  0.22162000  0.717 0.1009914778
H  H40  1  0.54452000  0.08446000  0.22162000  0.717 0.1009914778
H  H41  1  0.45450000  0.58260000  0.80110000  0.717 0.1009914778
H  H42  1  0.54550000  0.41740000  0.80110000  0.717 0.1009914778
H  H43  1  0.95450000  0.41740000  0.80110000  0.717 0.1009914778
H  H44  1  0.04550000  0.58260000  0.80110000  0.717 0.1009914778
H  H45  1  0.95450000  0.08260000  0.30110000  0.717 0.1009914778
H  H46  1  0.04550000  0.91740000  0.30110000  0.717 0.1009914778
H  H47  1  0.45450000  0.91740000  0.30110000  0.717 0.1009914778
H  H48  1  0.54550000  0.08260000  0.30110000  0.717 0.1009914778
C  C421  1  0.43740000  0.73280000  0.93880000  0.452 0.1112643213
C  C422  1  0.56260000  0.26720000  0.93880000  0.452 0.1112643213
C  C423  1  0.93740000  0.26720000  0.93880000  0.452 0.1112643213
C  C424  1  0.06260000  0.73280000  0.93880000  0.452 0.1112643213
C  C425  1  0.93740000  0.23280000  0.43880000  0.452 0.1112643213
C  C426  1  0.06260000  0.76720000  0.43880000  0.452 0.1112643213
C  C427  1  0.43740000  0.76720000  0.43880000  0.452 0.1112643213
C  C428  1  0.56260000  0.23280000  0.43880000  0.452 0.1112643213
C  C429  1  0.38190000  0.78240000  0.97900000  0.452 -0.0868261834
C  C430  1  0.61810000  0.21760000  0.97900000  0.452 -0.0868261834
C  C431  1  0.88190000  0.21760000  0.97900000  0.452 -0.0868261834
C  C432  1  0.11810000  0.78240000  0.97900000  0.452 -0.0868261834
C  C433  1  0.88190000  0.28240000  0.47900000  0.452 -0.0868261834
C  C434  1  0.11810000  0.71760000  0.47900000  0.452 -0.0868261834
C  C435  1  0.38190000  0.71760000  0.47900000  0.452 -0.0868261834
C  C436  1  0.61810000  0.28240000  0.47900000  0.452 -0.0868261834
C  C437  1  0.43400000  0.87700000  0.94740000  0.452 -0.0998326834
C  C438  1  0.56600000  0.12300000  0.94740000  0.452 -0.0998326834
C  C439  1  0.93400000  0.12300000  0.94740000  0.452 -0.0998326834
C  C440  1  0.06600000  0.87700000  0.94740000  0.452 -0.0998326834
C  C441  1  0.93400000  0.37700000  0.44740000  0.452 -0.0998326834
C  C442  1  0.06600000  0.62300000  0.44740000  0.452 -0.0998326834
C  C443  1  0.43400000  0.62300000  0.44740000  0.452 -0.0998326834
C  C444  1  0.56600000  0.37700000  0.44740000  0.452 -0.0998326834
C  C1  1  0.46207000  0.12947000  0.48837000  1.0 0.5788683821
C  C2  1  0.53793000  0.87053000  0.48837000  1.0 0.5788683821
C  C3  1  0.96207000  0.87053000  0.48837000  1.0 0.5788683821
C  C4  1  0.03793000  0.12947000  0.48837000  1.0 0.5788683821
C  C5  1  0.96207000  0.62947000  0.98837000  1.0 0.5788683821
C  C6  1  0.03793000  0.37053000  0.98837000  1.0 0.5788683821
C  C7  1  0.46207000  0.37053000  0.98837000  1.0 0.5788683821
C  C8  1  0.53793000  0.62947000  0.98837000  1.0 0.5788683821
C  C9  1  0.50000000  0.50000000  0.71248000  1.0 0.0497833589
C  C10  1  0.00000000  0.50000000  0.71248000  1.0 0.0497833589
C  C11  1  0.00000000  0.00000000  0.21248000  1.0 0.0497833589
C  C12  1  0.50000000  0.00000000  0.21248000  1.0 0.0497833589
C  C13  1  0.50000000  0.50000000  0.80970000  1.0 -0.028379854
C  C14  1  0.00000000  0.50000000  0.80970000  1.0 -0.028379854
C  C15  1  0.00000000  0.00000000  0.30970000  1.0 -0.028379854
C  C16  1  0.50000000  0.00000000  0.30970000  1.0 -0.028379854
C  C17  1  0.50000000  0.50000000  0.86198000  1.0 0.5629443456
C  C18  1  0.00000000  0.50000000  0.86198000  1.0 0.5629443456
C  C19  1  0.00000000  0.00000000  0.36198000  1.0 0.5629443456
C  C20  1  0.50000000  0.00000000  0.36198000  1.0 0.5629443456
C  C21  1  0.44274000  0.27116000  0.50985000  1.0 -0.1568222712
C  C22  1  0.55726000  0.72884000  0.50985000  1.0 -0.1568222712
C  C23  1  0.94274000  0.72884000  0.50985000  1.0 -0.1568222712
C  C24  1  0.05726000  0.27116000  0.50985000  1.0 -0.1568222712
C  C25  1  0.94274000  0.77116000  0.00985000  1.0 -0.1503069807
C  C26  1  0.05726000  0.22884000  0.00985000  1.0 -0.1503069807
C  C27  1  0.44274000  0.22884000  0.00985000  1.0 -0.1503069807
C  C28  1  0.55726000  0.77116000  0.00985000  1.0 -0.1568222712
C  C29  1  0.47107000  0.20740000  0.51270000  1.0 -0.0114396236
C  C30  1  0.52893000  0.79260000  0.51270000  1.0 -0.0114396236
C  C31  1  0.97107000  0.79260000  0.51270000  1.0 -0.0114396236
C  C32  1  0.02893000  0.20740000  0.51270000  1.0 -0.0114396236
C  C33  1  0.97107000  0.70740000  0.01270000  1.0 -0.0114396236
C  C34  1  0.02893000  0.29260000  0.01270000  1.0 -0.0114396236
C  C35  1  0.47107000  0.29260000  0.01270000  1.0 -0.0114396236
C  C36  1  0.52893000  0.70740000  0.01270000  1.0 -0.0114396236
C  C37  1  0.50698000  0.21630000  0.53928000  1.0 -0.1717846464
C  C38  1  0.49302000  0.78370000  0.53928000  1.0 -0.1717846464
C  C39  1  0.00698000  0.78370000  0.53928000  1.0 -0.1717846464
C  C40  1  0.99302000  0.21630000  0.53928000  1.0 -0.1717846464
C  C41  1  0.00698000  0.71630000  0.03928000  1.0 -0.1717846464
C  C42  1  0.99302000  0.28370000  0.03928000  1.0 -0.1717846464
C  C43  1  0.50698000  0.28370000  0.03928000  1.0 -0.1717846464
C  C44  1  0.49302000  0.71630000  0.03928000  1.0 -0.1717846464
C  C45  1  0.51390000  0.28680000  0.56353000  1.0 -0.213746063
C  C46  1  0.48610000  0.71320000  0.56353000  1.0 -0.213746063
C  C47  1  0.01390000  0.71320000  0.56353000  1.0 -0.2152345315
C  C48  1  0.98610000  0.28680000  0.56353000  1.0 -0.213746063
C  C49  1  0.01390000  0.78680000  0.06353000  1.0 -0.2152345315
C  C50  1  0.98610000  0.21320000  0.06353000  1.0 -0.213746063
C  C51  1  0.51390000  0.21320000  0.06353000  1.0 -0.213746063
C  C52  1  0.48610000  0.78680000  0.06353000  1.0 -0.2152345315
C  C53  1  0.48622000  0.35075000  0.56077000  1.0 0.1009914778
C  C54  1  0.51378000  0.64925000  0.56077000  1.0 0.1009914778
C  C55  1  0.98622000  0.64925000  0.56077000  1.0 0.1009914778
C  C56  1  0.01378000  0.35075000  0.56077000  1.0 0.1009914778
C  C57  1  0.98622000  0.85075000  0.06077000  1.0 0.1009914778
C  C58  1  0.01378000  0.14925000  0.06077000  1.0 0.1009914778
C  C59  1  0.48622000  0.14925000  0.06077000  1.0 0.1009914778
C  C60  1  0.51378000  0.85075000  0.06077000  1.0 0.1009914778
C  C61  1  0.45037000  0.34288000  0.53296000  1.0 -0.2152345315
C  C62  1  0.54963000  0.65712000  0.53296000  1.0 -0.2152345315
C  C63  1  0.95037000  0.65712000  0.53296000  1.0 -0.2152345315
C  C64  1  0.04963000  0.34288000  0.53296000  1.0 -0.2152345315
C  C65  1  0.95037000  0.84288000  0.03296000  1.0 -0.213746063
C  C66  1  0.04963000  0.15712000  0.03296000  1.0 -0.213746063
C  C67  1  0.45037000  0.15712000  0.03296000  1.0 -0.213746063
C  C68  1  0.54963000  0.84288000  0.03296000  1.0 -0.213746063
C  C69  1  0.49372000  0.42638000  0.58719000  1.0 -0.1503069807
C  C70  1  0.50628000  0.57362000  0.58719000  1.0 -0.1503069807
C  C71  1  0.99372000  0.57362000  0.58719000  1.0 -0.1503069807
C  C72  1  0.00628000  0.42638000  0.58719000  1.0 -0.1503069807
C  C73  1  0.99372000  0.92638000  0.08719000  1.0 -0.1503069807
C  C74  1  0.00628000  0.07362000  0.08719000  1.0 -0.1503069807
C  C75  1  0.49372000  0.07362000  0.08719000  1.0 -0.1503069807
C  C76  1  0.50628000  0.92638000  0.08719000  1.0 -0.1503069807
C  C77  1  0.49424000  0.43044000  0.63502000  1.0 0.1633551994
C  C78  1  0.50576000  0.56956000  0.63502000  1.0 0.1633551994
C  C79  1  0.99424000  0.56956000  0.63502000  1.0 0.1633551994
C  C80  1  0.00576000  0.43044000  0.63502000  1.0 0.1633551994
C  C81  1  0.99424000  0.93044000  0.13502000  1.0 0.1633551994
C  C82  1  0.00576000  0.06956000  0.13502000  1.0 0.1633551994
C  C83  1  0.49424000  0.06956000  0.13502000  1.0 0.1633551994
C  C84  1  0.50576000  0.93044000  0.13502000  1.0 0.1633551994
C  C85  1  0.50000000  0.50000000  0.66123000  1.0 -0.1823845949
C  C86  1  0.00000000  0.50000000  0.66123000  1.0 -0.1823845949
C  C87  1  0.00000000  0.00000000  0.16123000  1.0 -0.1823845949
C  C88  1  0.50000000  0.00000000  0.16123000  1.0 -0.1823845949
C  C89  1  0.50000000  0.50000000  0.56463000  1.0 0.1633551994
C  C90  1  0.00000000  0.50000000  0.56463000  1.0 0.1633551994
C  C91  1  0.00000000  0.00000000  0.06463000  1.0 0.1633551994
C  C92  1  0.50000000  0.00000000  0.06463000  1.0 0.1633551994
C  C125  1  0.32806000  0.23740000  0.42530000  1.0 0.5940988589
C  C126  1  0.67194000  0.76260000  0.42530000  1.0 0.5940988589
C  C127  1  0.82806000  0.76260000  0.42530000  1.0 0.5940988589
C  C128  1  0.17194000  0.23740000  0.42530000  1.0 0.5940988589
C  C129  1  0.82806000  0.73740000  0.92530000  1.0 0.5940988589
C  C130  1  0.17194000  0.26260000  0.92530000  1.0 0.5940988589
C  C131  1  0.32806000  0.26260000  0.92530000  1.0 0.5940988589
C  C132  1  0.67194000  0.73740000  0.92530000  1.0 0.5940988589
C  C133  1  0.34530000  0.75890000  0.33737000  1.0 0.1009914778
C  C134  1  0.65470000  0.24110000  0.33737000  1.0 0.1009914778
C  C135  1  0.84530000  0.24110000  0.33737000  1.0 0.1009914778
C  C136  1  0.15470000  0.75890000  0.33737000  1.0 0.1009914778
C  C137  1  0.84530000  0.25890000  0.83737000  1.0 0.1009914778
C  C138  1  0.15470000  0.74110000  0.83737000  1.0 0.1009914778
C  C139  1  0.34530000  0.74110000  0.83737000  1.0 0.1009914778
C  C140  1  0.65470000  0.25890000  0.83737000  1.0 0.1009914778
C  C141  1  0.31141000  0.77620000  0.36653000  1.0 -0.1422975078
C  C142  1  0.68859000  0.22380000  0.36653000  1.0 -0.1422975078
C  C143  1  0.81141000  0.22380000  0.36653000  1.0 -0.1422975078
C  C144  1  0.18859000  0.77620000  0.36653000  1.0 -0.1422975078
C  C145  1  0.81141000  0.27620000  0.86653000  1.0 -0.1422975078
C  C146  1  0.18859000  0.72380000  0.86653000  1.0 -0.1422975078
C  C147  1  0.31141000  0.72380000  0.86653000  1.0 -0.1422975078
C  C148  1  0.68859000  0.27620000  0.86653000  1.0 -0.1422975078
C  C149  1  0.30905000  0.84860000  0.38941000  1.0 -0.0868261834
C  C150  1  0.69095000  0.15140000  0.38941000  1.0 -0.0868261834
C  C151  1  0.80905000  0.15140000  0.38941000  1.0 -0.0868261834
C  C152  1  0.19095000  0.84860000  0.38941000  1.0 -0.0868261834
C  C153  1  0.80905000  0.34860000  0.88941000  1.0 -0.0868261834
C  C154  1  0.19095000  0.65140000  0.88941000  1.0 -0.0868261834
C  C155  1  0.30905000  0.65140000  0.88941000  1.0 -0.0868261834
C  C156  1  0.69095000  0.34860000  0.88941000  1.0 -0.0868261834
C  C157  1  0.34081000  0.90436000  0.38605000  1.0 -0.0437155222
C  C158  1  0.65919000  0.09564000  0.38605000  1.0 -0.0437155222
C  C159  1  0.84081000  0.09564000  0.38605000  1.0 -0.0437155222
C  C160  1  0.15919000  0.90436000  0.38605000  1.0 -0.0437155222
C  C161  1  0.84081000  0.40436000  0.88605000  1.0 -0.0437155222
C  C162  1  0.15919000  0.59564000  0.88605000  1.0 -0.0437155222
C  C163  1  0.34081000  0.59564000  0.88605000  1.0 -0.0437155222
C  C164  1  0.65919000  0.40436000  0.88605000  1.0 -0.0437155222
C  C165  1  0.37519000  0.88700000  0.35800000  1.0 -0.1078170608
C  C166  1  0.62481000  0.11300000  0.35800000  1.0 -0.1078170608
C  C167  1  0.87519000  0.11300000  0.35800000  1.0 -0.1078170608
C  C168  1  0.12481000  0.88700000  0.35800000  1.0 -0.1078170608
C  C169  1  0.87519000  0.38700000  0.85800000  1.0 -0.1078170608
C  C170  1  0.12481000  0.61300000  0.85800000  1.0 -0.1078170608
C  C171  1  0.37519000  0.61300000  0.85800000  1.0 -0.1078170608
C  C172  1  0.62481000  0.38700000  0.85800000  1.0 -0.1078170608
C  C173  1  0.37702000  0.81560000  0.33346000  1.0 -0.1717846464
C  C174  1  0.62298000  0.18440000  0.33346000  1.0 -0.1717846464
C  C175  1  0.87702000  0.18440000  0.33346000  1.0 -0.1717846464
C  C176  1  0.12298000  0.81560000  0.33346000  1.0 -0.1717846464
C  C177  1  0.87702000  0.31560000  0.83346000  1.0 -0.1717846464
C  C178  1  0.12298000  0.68440000  0.83346000  1.0 -0.1717846464
C  C179  1  0.37702000  0.68440000  0.83346000  1.0 -0.1717846464
C  C180  1  0.62298000  0.31560000  0.83346000  1.0 -0.1717846464
C  C181  1  0.34079000  0.97801000  0.41569000  1.0 0.6024555642
C  C182  1  0.65921000  0.02199000  0.41569000  1.0 0.6024555642
C  C183  1  0.84079000  0.02199000  0.41569000  1.0 0.6024555642
C  C184  1  0.15921000  0.97801000  0.41569000  1.0 0.6024555642
C  C185  1  0.84079000  0.47801000  0.91569000  1.0 0.6024555642
C  C186  1  0.15921000  0.52199000  0.91569000  1.0 0.6024555642
C  C187  1  0.34079000  0.52199000  0.91569000  1.0 0.6024555642
C  C188  1  0.65921000  0.47801000  0.91569000  1.0 0.6024555642
C  C189  1  0.36791000  0.58930000  0.19395000  1.0 0.0912388879
C  C190  1  0.63209000  0.41070000  0.19395000  1.0 0.0912388879
C  C191  1  0.86791000  0.41070000  0.19395000  1.0 0.0912388879
C  C192  1  0.13209000  0.58930000  0.19395000  1.0 0.0912388879
C  C193  1  0.86791000  0.08930000  0.69395000  1.0 0.0912388879
C  C194  1  0.13209000  0.91070000  0.69395000  1.0 0.0912388879
C  C195  1  0.36791000  0.91070000  0.69395000  1.0 0.0912388879
C  C196  1  0.63209000  0.08930000  0.69395000  1.0 0.0912388879
C  C197  1  0.34129000  0.54450000  0.16715000  1.0 -0.1503069807
C  C198  1  0.65871000  0.45550000  0.16715000  1.0 -0.1503069807
C  C199  1  0.84129000  0.45550000  0.16715000  1.0 -0.1503069807
C  C200  1  0.15871000  0.54450000  0.16715000  1.0 -0.1503069807
C  C201  1  0.84129000  0.04450000  0.66715000  1.0 -0.1503069807
C  C202  1  0.15871000  0.95550000  0.66715000  1.0 -0.1503069807
C  C203  1  0.34129000  0.95550000  0.66715000  1.0 -0.1503069807
C  C204  1  0.65871000  0.04450000  0.66715000  1.0 -0.1503069807
C  C205  1  0.34836000  0.53380000  0.12086000  1.0 -0.1330255539
C  C206  1  0.65164000  0.46620000  0.12086000  1.0 -0.1330255539
C  C207  1  0.84836000  0.46620000  0.12086000  1.0 -0.1330255539
C  C208  1  0.15164000  0.53380000  0.12086000  1.0 -0.1330255539
C  C209  1  0.84836000  0.03380000  0.62086000  1.0 -0.1330255539
C  C210  1  0.15164000  0.96620000  0.62086000  1.0 -0.1330255539
C  C211  1  0.34836000  0.96620000  0.62086000  1.0 -0.1330255539
C  C212  1  0.65164000  0.03380000  0.62086000  1.0 -0.1330255539
C  C213  1  0.38355000  0.56630000  0.10027000  1.0 -0.028379854
C  C214  1  0.61645000  0.43370000  0.10027000  1.0 -0.028379854
C  C215  1  0.88355000  0.43370000  0.10027000  1.0 -0.028379854
C  C216  1  0.11645000  0.56630000  0.10027000  1.0 -0.028379854
C  C217  1  0.88355000  0.06630000  0.60027000  1.0 -0.028379854
C  C218  1  0.11645000  0.93370000  0.60027000  1.0 -0.028379854
C  C219  1  0.38355000  0.93370000  0.60027000  1.0 -0.028379854
C  C220  1  0.61645000  0.06630000  0.60027000  1.0 -0.028379854
C  C221  1  0.41026000  0.61270000  0.12659000  1.0 -0.0998326834
C  C222  1  0.58974000  0.38730000  0.12659000  1.0 -0.0998326834
C  C223  1  0.91026000  0.38730000  0.12659000  1.0 -0.0998326834
C  C224  1  0.08974000  0.61270000  0.12659000  1.0 -0.0998326834
C  C225  1  0.91026000  0.11270000  0.62659000  1.0 -0.0998326834
C  C226  1  0.08974000  0.88730000  0.62659000  1.0 -0.0998326834
C  C227  1  0.41026000  0.88730000  0.62659000  1.0 -0.0998326834
C  C228  1  0.58974000  0.11270000  0.62659000  1.0 -0.0998326834
C  C229  1  0.40266000  0.62400000  0.17303000  1.0 -0.1422975078
C  C230  1  0.59734000  0.37600000  0.17303000  1.0 -0.1422975078
C  C231  1  0.90266000  0.37600000  0.17303000  1.0 -0.1422975078
C  C232  1  0.09734000  0.62400000  0.17303000  1.0 -0.1422975078
C  C233  1  0.90266000  0.12400000  0.67303000  1.0 -0.1422975078
C  C234  1  0.09734000  0.87600000  0.67303000  1.0 -0.1422975078
C  C235  1  0.40266000  0.87600000  0.67303000  1.0 -0.1422975078
C  C236  1  0.59734000  0.12400000  0.67303000  1.0 -0.1422975078
C  C237  1  0.39212000  0.54960000  0.05031000  1.0 0.5629443456
C  C238  1  0.60788000  0.45040000  0.05031000  1.0 0.5629443456
C  C239  1  0.89212000  0.45040000  0.05031000  1.0 0.5629443456
C  C240  1  0.10788000  0.54960000  0.05031000  1.0 0.5629443456
C  C241  1  0.89212000  0.04960000  0.55031000  1.0 0.5629443456
C  C242  1  0.10788000  0.95040000  0.55031000  1.0 0.5629443456
C  C243  1  0.39212000  0.95040000  0.55031000  1.0 0.5629443456
C  C244  1  0.60788000  0.04960000  0.55031000  1.0 0.5629443456
C  C245  1  0.34817000  0.53140000  0.31963000  1.0 -0.1503069807
C  C246  1  0.65183000  0.46860000  0.31963000  1.0 -0.1503069807
C  C247  1  0.84817000  0.46860000  0.31963000  1.0 -0.1503069807
C  C248  1  0.15183000  0.53140000  0.31963000  1.0 -0.1503069807
C  C249  1  0.84817000  0.03140000  0.81963000  1.0 -0.1503069807
C  C250  1  0.15183000  0.96860000  0.81963000  1.0 -0.1503069807
C  C251  1  0.34817000  0.96860000  0.81963000  1.0 -0.1503069807
C  C252  1  0.65183000  0.03140000  0.81963000  1.0 -0.1503069807
C  C253  1  0.34499000  0.60750000  0.33890000  1.0 0.1974690933
C  C254  1  0.65501000  0.39250000  0.33890000  1.0 0.1974690933
C  C255  1  0.84499000  0.39250000  0.33890000  1.0 0.1974690933
C  C256  1  0.15501000  0.60750000  0.33890000  1.0 0.1974690933
C  C257  1  0.84499000  0.10750000  0.83890000  1.0 0.1974690933
C  C258  1  0.15501000  0.89250000  0.83890000  1.0 0.1974690933
C  C259  1  0.34499000  0.89250000  0.83890000  1.0 0.1974690933
C  C260  1  0.65501000  0.10750000  0.83890000  1.0 0.1974690933
C  C261  1  0.34927000  0.67960000  0.31482000  1.0 -0.1717846464
C  C262  1  0.65073000  0.32040000  0.31482000  1.0 -0.1717846464
C  C263  1  0.84927000  0.32040000  0.31482000  1.0 -0.1717846464
C  C264  1  0.15073000  0.67960000  0.31482000  1.0 -0.1717846464
C  C265  1  0.84927000  0.17960000  0.81482000  1.0 -0.1717846464
C  C266  1  0.15073000  0.82040000  0.81482000  1.0 -0.1717846464
C  C267  1  0.34927000  0.82040000  0.81482000  1.0 -0.1717846464
C  C268  1  0.65073000  0.17960000  0.81482000  1.0 -0.1717846464
C  C269  1  0.35693000  0.67100000  0.26742000  1.0 0.2253908817
C  C270  1  0.64307000  0.32900000  0.26742000  1.0 0.2253908817
C  C271  1  0.85693000  0.32900000  0.26742000  1.0 0.2253908817
C  C272  1  0.14307000  0.67100000  0.26742000  1.0 0.2253908817
C  C273  1  0.85693000  0.17100000  0.76742000  1.0 0.2253908817
C  C274  1  0.14307000  0.82900000  0.76742000  1.0 0.2253908817
C  C275  1  0.35693000  0.82900000  0.76742000  1.0 0.2253908817
C  C276  1  0.64307000  0.17100000  0.76742000  1.0 0.2253908817
C  C277  1  0.36073000  0.59680000  0.24470000  1.0 -0.1823845949
C  C278  1  0.63927000  0.40320000  0.24470000  1.0 -0.1823845949
C  C279  1  0.86073000  0.40320000  0.24470000  1.0 -0.1823845949
C  C280  1  0.13927000  0.59680000  0.24470000  1.0 -0.1823845949
C  C281  1  0.86073000  0.09680000  0.74470000  1.0 -0.1823845949
C  C282  1  0.13927000  0.90320000  0.74470000  1.0 -0.1823845949
C  C283  1  0.36073000  0.90320000  0.74470000  1.0 -0.1823845949
C  C284  1  0.63927000  0.09680000  0.74470000  1.0 -0.1823845949
C  C285  1  0.35593000  0.52960000  0.27243000  1.0 0.2209382136
C  C286  1  0.64407000  0.47040000  0.27243000  1.0 0.2209382136
C  C287  1  0.85593000  0.47040000  0.27243000  1.0 0.2209382136
C  C288  1  0.14407000  0.52960000  0.27243000  1.0 0.2209382136
C  C289  1  0.85593000  0.02960000  0.77243000  1.0 0.2209382136
C  C290  1  0.14407000  0.97040000  0.77243000  1.0 0.2209382136
C  C291  1  0.35593000  0.97040000  0.77243000  1.0 0.2209382136
C  C292  1  0.64407000  0.02960000  0.77243000  1.0 0.2209382136
C  C293  1  0.34261000  0.45560000  0.34671000  1.0 0.0912388879
C  C294  1  0.65739000  0.54440000  0.34671000  1.0 0.0912388879
C  C295  1  0.84261000  0.54440000  0.34671000  1.0 0.0912388879
C  C296  1  0.15739000  0.45560000  0.34671000  1.0 0.0912388879
C  C297  1  0.84261000  0.95560000  0.84671000  1.0 0.0912388879
C  C298  1  0.15739000  0.04440000  0.84671000  1.0 0.0912388879
C  C299  1  0.34261000  0.04440000  0.84671000  1.0 0.0912388879
C  C300  1  0.65739000  0.95560000  0.84671000  1.0 0.0912388879
C  C301  1  0.31367000  0.39850000  0.33430000  1.0 -0.1503069807
C  C302  1  0.68633000  0.60150000  0.33430000  1.0 -0.1503069807
C  C303  1  0.81367000  0.60150000  0.33430000  1.0 -0.1503069807
C  C304  1  0.18633000  0.39850000  0.33430000  1.0 -0.1503069807
C  C305  1  0.81367000  0.89850000  0.83430000  1.0 -0.1503069807
C  C306  1  0.18633000  0.10150000  0.83430000  1.0 -0.1503069807
C  C307  1  0.31367000  0.10150000  0.83430000  1.0 -0.1503069807
C  C308  1  0.68633000  0.89850000  0.83430000  1.0 -0.1503069807
C  C309  1  0.30887000  0.32800000  0.36020000  1.0 -0.0998326834
C  C310  1  0.69113000  0.67200000  0.36020000  1.0 -0.0998326834
C  C311  1  0.80887000  0.67200000  0.36020000  1.0 -0.0998326834
C  C312  1  0.19113000  0.32800000  0.36020000  1.0 -0.0998326834
C  C313  1  0.80887000  0.82800000  0.86020000  1.0 -0.0998326834
C  C314  1  0.19113000  0.17200000  0.86020000  1.0 -0.0998326834
C  C315  1  0.30887000  0.17200000  0.86020000  1.0 -0.0998326834
C  C316  1  0.69113000  0.82800000  0.86020000  1.0 -0.0998326834
C  C317  1  0.33228000  0.31420000  0.39734000  1.0 -0.028379854
C  C318  1  0.66772000  0.68580000  0.39734000  1.0 -0.028379854
C  C319  1  0.83228000  0.68580000  0.39734000  1.0 -0.028379854
C  C320  1  0.16772000  0.31420000  0.39734000  1.0 -0.028379854
C  C321  1  0.83228000  0.81420000  0.89734000  1.0 -0.028379854
C  C322  1  0.16772000  0.18580000  0.89734000  1.0 -0.028379854
C  C323  1  0.33228000  0.18580000  0.89734000  1.0 -0.028379854
C  C324  1  0.66772000  0.81420000  0.89734000  1.0 -0.028379854
C  C325  1  0.36206000  0.37010000  0.41010000  1.0 -0.0998326834
C  C326  1  0.63794000  0.62990000  0.41010000  1.0 -0.0998326834
C  C327  1  0.86206000  0.62990000  0.41010000  1.0 -0.0998326834
C  C328  1  0.13794000  0.37010000  0.41010000  1.0 -0.0998326834
C  C329  1  0.86206000  0.87010000  0.91010000  1.0 -0.0998326834
C  C330  1  0.13794000  0.12990000  0.91010000  1.0 -0.0998326834
C  C331  1  0.36206000  0.12990000  0.91010000  1.0 -0.0998326834
C  C332  1  0.63794000  0.87010000  0.91010000  1.0 -0.0998326834
C  C333  1  0.36671000  0.44080000  0.38478000  1.0 -0.1503069807
C  C334  1  0.63329000  0.55920000  0.38478000  1.0 -0.1503069807
C  C335  1  0.86671000  0.55920000  0.38478000  1.0 -0.1503069807
C  C336  1  0.13329000  0.44080000  0.38478000  1.0 -0.1503069807
C  C337  1  0.86671000  0.94080000  0.88478000  1.0 -0.1503069807
C  C338  1  0.13329000  0.05920000  0.88478000  1.0 -0.1503069807
C  C339  1  0.36671000  0.05920000  0.88478000  1.0 -0.1503069807
C  C340  1  0.63329000  0.94080000  0.88478000  1.0 -0.1503069807
C  C341  1  0.25000000  0.11510000  0.52887000  1.0 0.6539561082
C  C342  1  0.75000000  0.88490000  0.52887000  1.0 0.6539561082
C  C343  1  0.75000000  0.61510000  0.02887000  1.0 0.6539561082
C  C344  1  0.25000000  0.38490000  0.02887000  1.0 0.6539561082
C  C345  1  0.25000000  0.12280000  0.58100000  1.0 -0.5410670262
C  C346  1  0.75000000  0.87720000  0.58100000  1.0 -0.5410670262
C  C347  1  0.75000000  0.62280000  0.08100000  1.0 -0.5410670262
C  C348  1  0.25000000  0.37720000  0.08100000  1.0 -0.5410670262
C  C109  1  0.46350000  0.49380000  0.73680000  0.283 -0.0780041686
C  C110  1  0.53650000  0.50620000  0.73680000  0.283 -0.0780041686
C  C111  1  0.96350000  0.50620000  0.73680000  0.283 -0.0780041686
C  C112  1  0.03650000  0.49380000  0.73680000  0.283 -0.0780041686
C  C113  1  0.96350000  0.99380000  0.23680000  0.283 -0.0780041686
C  C114  1  0.03650000  0.00620000  0.23680000  0.283 -0.0780041686
C  C115  1  0.46350000  0.00620000  0.23680000  0.283 -0.0780041686
C  C116  1  0.53650000  0.99380000  0.23680000  0.283 -0.0780041686
C  C117  1  0.46400000  0.49700000  0.78490000  0.283 -0.0618062797
C  C118  1  0.53600000  0.50300000  0.78490000  0.283 -0.0618062797
C  C119  1  0.96400000  0.50300000  0.78490000  0.283 -0.0618062797
C  C120  1  0.03600000  0.49700000  0.78490000  0.283 -0.0618062797
C  C121  1  0.96400000  0.99700000  0.28490000  0.283 -0.0618062797
C  C122  1  0.03600000  0.00300000  0.28490000  0.283 -0.0618062797
C  C123  1  0.46400000  0.00300000  0.28490000  0.283 -0.0618062797
C  C124  1  0.53600000  0.99700000  0.28490000  0.283 -0.0618062797
C  C373  1  0.36360000  0.22350000  0.58060000  0.307 0.0401774458
C  C374  1  0.63640000  0.77650000  0.58060000  0.307 0.0401774458
C  C375  1  0.86360000  0.77650000  0.58060000  0.307 0.0401774458
C  C376  1  0.13640000  0.22350000  0.58060000  0.307 0.0401774458
C  C377  1  0.86360000  0.72350000  0.08060000  0.307 0.0401774458
C  C378  1  0.13640000  0.27650000  0.08060000  0.307 0.0401774458
C  C379  1  0.36360000  0.27650000  0.08060000  0.307 0.0401774458
C  C380  1  0.63640000  0.72350000  0.08060000  0.307 0.0401774458
C  C381  1  0.39400000  0.19300000  0.65100000  0.307 0.0107114038
C  C382  1  0.60600000  0.80700000  0.65100000  0.307 0.0107114038
C  C383  1  0.89400000  0.80700000  0.65100000  0.307 0.0107114038
C  C384  1  0.10600000  0.19300000  0.65100000  0.307 0.0107114038
C  C385  1  0.89400000  0.69300000  0.15100000  0.307 0.0107114038
C  C386  1  0.10600000  0.30700000  0.15100000  0.307 0.0107114038
C  C387  1  0.39400000  0.30700000  0.15100000  0.307 0.0107114038
C  C388  1  0.60600000  0.69300000  0.15100000  0.307 0.0107114038
C  C389  1  0.37260000  0.32970000  0.63450000  0.307 -0.275120772
C  C390  1  0.62740000  0.67030000  0.63450000  0.307 -0.275120772
C  C391  1  0.87260000  0.67030000  0.63450000  0.307 -0.275120772
C  C392  1  0.12740000  0.32970000  0.63450000  0.307 -0.275120772
C  C393  1  0.87260000  0.82970000  0.13450000  0.307 -0.2721459151
C  C394  1  0.12740000  0.17030000  0.13450000  0.307 -0.2721459151
C  C395  1  0.37260000  0.17030000  0.13450000  0.307 -0.2721459151
C  C396  1  0.62740000  0.82970000  0.13450000  0.307 -0.275120772
C  C397  1  0.40850000  0.72510000  0.96400000  0.548 0.0912388879
C  C398  1  0.59150000  0.27490000  0.96400000  0.548 0.0912388879
C  C399  1  0.90850000  0.27490000  0.96400000  0.548 0.0912388879
C  C400  1  0.09150000  0.72510000  0.96400000  0.548 0.0912388879
C  C401  1  0.90850000  0.22510000  0.46400000  0.548 0.0912388879
C  C402  1  0.09150000  0.77490000  0.46400000  0.548 0.0912388879
C  C403  1  0.40850000  0.77490000  0.46400000  0.548 0.0912388879
C  C404  1  0.59150000  0.22510000  0.46400000  0.548 0.0912388879
C  C405  1  0.45010000  0.81500000  0.92680000  0.548 -0.0780041686
C  C406  1  0.54990000  0.18500000  0.92680000  0.548 -0.0780041686
C  C407  1  0.95010000  0.18500000  0.92680000  0.548 -0.0780041686
C  C408  1  0.04990000  0.81500000  0.92680000  0.548 -0.0780041686
C  C409  1  0.95010000  0.31500000  0.42680000  0.548 -0.0780041686
C  C410  1  0.04990000  0.68500000  0.42680000  0.548 -0.0780041686
C  C411  1  0.45010000  0.68500000  0.42680000  0.548 -0.0780041686
C  C412  1  0.54990000  0.31500000  0.42680000  0.548 -0.0780041686
C  C413  1  0.39860000  0.86390000  0.98160000  0.548 -0.0780041686
C  C414  1  0.60140000  0.13610000  0.98160000  0.548 -0.0780041686
C  C415  1  0.89860000  0.13610000  0.98160000  0.548 -0.0780041686
C  C416  1  0.10140000  0.86390000  0.98160000  0.548 -0.0780041686
C  C417  1  0.89860000  0.36390000  0.48160000  0.548 -0.0780041686
C  C418  1  0.10140000  0.63610000  0.48160000  0.548 -0.0780041686
C  C419  1  0.39860000  0.63610000  0.48160000  0.548 -0.0780041686
C  C420  1  0.60140000  0.36390000  0.48160000  0.548 -0.0780041686
C  C349  1  0.39500000  0.14640000  0.58990000  0.693 0.0401774458
C  C350  1  0.60500000  0.85360000  0.58990000  0.693 0.0401774458
C  C351  1  0.89500000  0.85360000  0.58990000  0.693 0.0401774458
C  C352  1  0.10500000  0.14640000  0.58990000  0.693 0.0401774458
C  C353  1  0.89500000  0.64640000  0.08990000  0.693 0.0401774458
C  C354  1  0.10500000  0.35360000  0.08990000  0.693 0.0401774458
C  C355  1  0.39500000  0.35360000  0.08990000  0.693 0.0401774458
C  C356  1  0.60500000  0.64640000  0.08990000  0.693 0.0401774458
C  C357  1  0.37820000  0.24300000  0.64400000  0.693 0.0107114038
C  C358  1  0.62180000  0.75700000  0.64400000  0.693 0.0107114038
C  C359  1  0.87820000  0.75700000  0.64400000  0.693 0.0107114038
C  C360  1  0.12180000  0.24300000  0.64400000  0.693 0.0107114038
C  C361  1  0.87820000  0.74300000  0.14400000  0.693 0.0107114038
C  C362  1  0.12180000  0.25700000  0.14400000  0.693 0.0107114038
C  C363  1  0.37820000  0.25700000  0.14400000  0.693 0.0107114038
C  C364  1  0.62180000  0.74300000  0.14400000  0.693 0.0107114038
C  C365  1  0.43980000  0.16320000  0.65420000  0.693 -0.2721459151
C  C366  1  0.56020000  0.83680000  0.65420000  0.693 -0.2721459151
C  C367  1  0.93980000  0.83680000  0.65420000  0.693 -0.2721459151
C  C368  1  0.06020000  0.16320000  0.65420000  0.693 -0.2721459151
C  C369  1  0.93980000  0.66320000  0.15420000  0.693 -0.2721459151
C  C370  1  0.06020000  0.33680000  0.15420000  0.693 -0.2721459151
C  C371  1  0.43980000  0.33680000  0.15420000  0.693 -0.2721459151
C  C372  1  0.56020000  0.66320000  0.15420000  0.693 -0.2721459151
C  C93  1  0.47340000  0.54990000  0.73745000  0.717 -0.0537964512
C  C94  1  0.52660000  0.45010000  0.73745000  0.717 -0.0537964512
C  C95  1  0.97340000  0.45010000  0.73745000  0.717 -0.0537964512
C  C96  1  0.02660000  0.54990000  0.73745000  0.717 -0.0537964512
C  C97  1  0.97340000  0.04990000  0.23745000  0.717 -0.0537964512
C  C98  1  0.02660000  0.95010000  0.23745000  0.717 -0.0537964512
C  C99  1  0.47340000  0.95010000  0.23745000  0.717 -0.0537964512
C  C100  1  0.52660000  0.04990000  0.23745000  0.717 -0.0537964512
C  C101  1  0.47300000  0.54940000  0.78519000  0.717 -0.0618062797
C  C102  1  0.52700000  0.45060000  0.78519000  0.717 -0.0618062797
C  C103  1  0.97300000  0.45060000  0.78519000  0.717 -0.0618062797
C  C104  1  0.02700000  0.54940000  0.78519000  0.717 -0.0618062797
C  C105  1  0.97300000  0.04940000  0.28519000  0.717 -0.0618062797
C  C106  1  0.02700000  0.95060000  0.28519000  0.717 -0.0618062797
C  C107  1  0.47300000  0.95060000  0.28519000  0.717 -0.0618062797
C  C108  1  0.52700000  0.04940000  0.28519000  0.717 -0.0618062797
N  N1  1  0.40360000  0.17990000  0.62840000  0.693 0.0206224755
N  N2  1  0.59640000  0.82010000  0.62840000  0.693 0.0206224755
N  N3  1  0.90360000  0.82010000  0.62840000  0.693 0.0206224755
N  N4  1  0.09640000  0.17990000  0.62840000  0.693 0.0206224755
N  N5  1  0.90360000  0.67990000  0.12840000  0.693 0.0206224755
N  N6  1  0.09640000  0.32010000  0.12840000  0.693 0.0206224755
N  N7  1  0.40360000  0.32010000  0.12840000  0.693 0.0206224755
N  N8  1  0.59640000  0.67990000  0.12840000  0.693 0.0206224755
N  N9  1  0.37610000  0.24930000  0.62010000  0.307 0.0206224755
N  N10  1  0.62390000  0.75070000  0.62010000  0.307 0.0206224755
N  N11  1  0.87610000  0.75070000  0.62010000  0.307 0.0206224755
N  N12  1  0.12390000  0.24930000  0.62010000  0.307 0.0206224755
N  N13  1  0.87610000  0.74930000  0.12010000  0.307 0.0206224755
N  N14  1  0.12390000  0.25070000  0.12010000  0.307 0.0206224755
N  N15  1  0.37610000  0.25070000  0.12010000  0.307 0.0206224755
N  N16  1  0.62390000  0.74930000  0.12010000  0.307 0.0206224755
N  N25  1  0.41860000  0.79900000  0.95380000  0.452 -0.1503069807
N  N26  1  0.58140000  0.20100000  0.95380000  0.452 -0.1503069807
N  N27  1  0.91860000  0.20100000  0.95380000  0.452 -0.1503069807
N  N28  1  0.08140000  0.79900000  0.95380000  0.452 -0.1503069807
N  N29  1  0.91860000  0.29900000  0.45380000  0.452 -0.1503069807
N  N30  1  0.08140000  0.70100000  0.45380000  0.452 -0.1503069807
N  N31  1  0.41860000  0.70100000  0.45380000  0.452 -0.1503069807
N  N32  1  0.58140000  0.29900000  0.45380000  0.452 -0.1503069807
N  N17  1  0.41760000  0.80120000  0.95840000  0.548 -0.1422975078
N  N18  1  0.58240000  0.19880000  0.95840000  0.548 -0.1422975078
N  N19  1  0.91760000  0.19880000  0.95840000  0.548 -0.1422975078
N  N20  1  0.08240000  0.80120000  0.95840000  0.548 -0.1422975078
N  N21  1  0.91760000  0.30120000  0.45840000  0.548 -0.1422975078
N  N22  1  0.08240000  0.69880000  0.45840000  0.548 -0.1422975078
N  N23  1  0.41760000  0.69880000  0.45840000  0.548 -0.1422975078
N  N24  1  0.58240000  0.30120000  0.45840000  0.548 -0.1422975078
O  O1  1  0.49172000  0.08432000  0.47702000  1.0 -0.6175034489
O  O2  1  0.50828000  0.91568000  0.47702000  1.0 -0.6175034489
O  O3  1  0.99172000  0.91568000  0.47702000  1.0 -0.6175034489
O  O4  1  0.00828000  0.08432000  0.47702000  1.0 -0.6175034489
O  O5  1  0.99172000  0.58432000  0.97702000  1.0 -0.6175034489
O  O6  1  0.00828000  0.41568000  0.97702000  1.0 -0.6175034489
O  O7  1  0.49172000  0.41568000  0.97702000  1.0 -0.6175034489
O  O8  1  0.50828000  0.58432000  0.97702000  1.0 -0.6175034489
O  O9  1  0.46737000  0.52214000  0.88167000  1.0 -0.5808476876
O  O10  1  0.53263000  0.47786000  0.88167000  1.0 -0.5808476876
O  O11  1  0.96737000  0.47786000  0.88167000  1.0 -0.5808476876
O  O12  1  0.03263000  0.52214000  0.88167000  1.0 -0.5808476876
O  O13  1  0.96737000  0.02214000  0.38167000  1.0 -0.5808476876
O  O14  1  0.03263000  0.97786000  0.38167000  1.0 -0.5808476876
O  O15  1  0.46737000  0.97786000  0.38167000  1.0 -0.5808476876
O  O16  1  0.53263000  0.02214000  0.38167000  1.0 -0.5808476876
O  O17  1  0.42498000  0.10980000  0.48107000  1.0 -0.6327514719
O  O18  1  0.57502000  0.89020000  0.48107000  1.0 -0.6327514719
O  O19  1  0.92498000  0.89020000  0.48107000  1.0 -0.6327514719
O  O20  1  0.07502000  0.10980000  0.48107000  1.0 -0.6327514719
O  O21  1  0.92498000  0.60980000  0.98107000  1.0 -0.6327514719
O  O22  1  0.07502000  0.39020000  0.98107000  1.0 -0.6327514719
O  O23  1  0.42498000  0.39020000  0.98107000  1.0 -0.6327514719
O  O24  1  0.57502000  0.60980000  0.98107000  1.0 -0.6327514719
O  O25  1  0.37541000  0.01016000  0.42541000  1.0 -0.6436004932
O  O26  1  0.62459000  0.98984000  0.42541000  1.0 -0.6436004932
O  O27  1  0.87541000  0.98984000  0.42541000  1.0 -0.6436004932
O  O28  1  0.12459000  0.01016000  0.42541000  1.0 -0.6436004932
O  O29  1  0.87541000  0.51016000  0.92541000  1.0 -0.6436004932
O  O30  1  0.12459000  0.48984000  0.92541000  1.0 -0.6436004932
O  O31  1  0.37541000  0.48984000  0.92541000  1.0 -0.6436004932
O  O32  1  0.62459000  0.51016000  0.92541000  1.0 -0.6436004932
O  O33  1  0.30696000  0.00556000  0.43162000  1.0 -0.6327514719
O  O34  1  0.69304000  0.99444000  0.43162000  1.0 -0.6327514719
O  O35  1  0.80696000  0.99444000  0.43162000  1.0 -0.6327514719
O  O36  1  0.19304000  0.00556000  0.43162000  1.0 -0.6327514719
O  O37  1  0.80696000  0.50556000  0.93162000  1.0 -0.6327514719
O  O38  1  0.19304000  0.49444000  0.93162000  1.0 -0.6327514719
O  O39  1  0.30696000  0.49444000  0.93162000  1.0 -0.6327514719
O  O40  1  0.69304000  0.50556000  0.93162000  1.0 -0.6327514719
O  O41  1  0.42856000  0.56300000  0.03581000  1.0 -0.6080626046
O  O42  1  0.57144000  0.43700000  0.03581000  1.0 -0.6080626046
O  O43  1  0.92856000  0.43700000  0.03581000  1.0 -0.6080626046
O  O44  1  0.07144000  0.56300000  0.03581000  1.0 -0.6080626046
O  O45  1  0.92856000  0.06300000  0.53581000  1.0 -0.6080626046
O  O46  1  0.07144000  0.93700000  0.53581000  1.0 -0.6080626046
O  O47  1  0.42856000  0.93700000  0.53581000  1.0 -0.6080626046
O  O48  1  0.57144000  0.06300000  0.53581000  1.0 -0.6080626046
O  O49  1  0.36377000  0.52090000  0.02610000  1.0 -0.6080626046
O  O50  1  0.63623000  0.47910000  0.02610000  1.0 -0.6080626046
O  O51  1  0.86377000  0.47910000  0.02610000  1.0 -0.6080626046
O  O52  1  0.13623000  0.52090000  0.02610000  1.0 -0.6080626046
O  O53  1  0.86377000  0.02090000  0.52610000  1.0 -0.6080626046
O  O54  1  0.13623000  0.97910000  0.52610000  1.0 -0.6080626046
O  O55  1  0.36377000  0.97910000  0.52610000  1.0 -0.6080626046
O  O56  1  0.63623000  0.02090000  0.52610000  1.0 -0.6080626046
O  O57  1  0.30116000  0.18770000  0.41214000  1.0 -0.6080626046
O  O58  1  0.69884000  0.81230000  0.41214000  1.0 -0.6080626046
O  O59  1  0.80116000  0.81230000  0.41214000  1.0 -0.6080626046
O  O60  1  0.19884000  0.18770000  0.41214000  1.0 -0.6080626046
O  O61  1  0.80116000  0.68770000  0.91214000  1.0 -0.6080626046
O  O62  1  0.19884000  0.31230000  0.91214000  1.0 -0.6080626046
O  O63  1  0.30116000  0.31230000  0.91214000  1.0 -0.6080626046
O  O64  1  0.69884000  0.68770000  0.91214000  1.0 -0.6080626046
O  O65  1  0.35066000  0.22800000  0.45861000  1.0 -0.5808476876
O  O66  1  0.64934000  0.77200000  0.45861000  1.0 -0.5808476876
O  O67  1  0.85066000  0.77200000  0.45861000  1.0 -0.5808476876
O  O68  1  0.14934000  0.22800000  0.45861000  1.0 -0.5808476876
O  O69  1  0.85066000  0.72800000  0.95861000  1.0 -0.5808476876
O  O70  1  0.14934000  0.27200000  0.95861000  1.0 -0.5808476876
O  O71  1  0.35066000  0.27200000  0.95861000  1.0 -0.5808476876
O  O72  1  0.64934000  0.72800000  0.95861000  1.0 -0.5808476876
O  O73  1  0.21724000  0.11010000  0.50764000  1.0 -0.5808476876
O  O74  1  0.78276000  0.88990000  0.50764000  1.0 -0.5808476876
O  O75  1  0.71724000  0.88990000  0.50764000  1.0 -0.5808476876
O  O76  1  0.28276000  0.11010000  0.50764000  1.0 -0.5808476876
O  O77  1  0.71724000  0.61010000  0.00764000  1.0 -0.5808476876
O  O78  1  0.28276000  0.38990000  0.00764000  1.0 -0.5808476876
O  O79  1  0.21724000  0.38990000  0.00764000  1.0 -0.5808476876
O  O80  1  0.78276000  0.61010000  0.00764000  1.0 -0.5808476876
O  O81  1  0.25000000  0.06120000  0.34701000  1.0 -0.6033666801
O  O82  1  0.75000000  0.93880000  0.34701000  1.0 -0.6033666801
O  O83  1  0.75000000  0.56120000  0.84701000  1.0 -0.6033666801
O  O84  1  0.25000000  0.43880000  0.84701000  1.0 -0.6033666801
O  O85  1  0.36529000  0.15760000  0.56379000  0.307 -0.2988843057
O  O86  1  0.63471000  0.84240000  0.56379000  0.307 -0.2988843057
O  O87  1  0.86529000  0.84240000  0.56379000  0.307 -0.2988843057
O  O88  1  0.13471000  0.15760000  0.56379000  0.307 -0.2988843057
O  O89  1  0.86529000  0.65760000  0.06379000  0.307 -0.2988843057
O  O90  1  0.13471000  0.34240000  0.06379000  0.307 -0.2988843057
O  O91  1  0.36529000  0.34240000  0.06379000  0.307 -0.2988843057
O  O92  1  0.63471000  0.65760000  0.06379000  0.307 -0.2988843057
O  O93  1  0.42346000  0.66718000  0.94620000  0.452 -0.3285459723
O  O94  1  0.57654000  0.33282000  0.94620000  0.452 -0.3285459723
O  O95  1  0.92346000  0.33282000  0.94620000  0.452 -0.3285459723
O  O96  1  0.07654000  0.66718000  0.94620000  0.452 -0.3285459723
O  O97  1  0.92346000  0.16718000  0.44620000  0.452 -0.3285459723
O  O98  1  0.07654000  0.83282000  0.44620000  0.452 -0.3285459723
O  O99  1  0.42346000  0.83282000  0.44620000  0.452 -0.3285459723
O  O100  1  0.57654000  0.16718000  0.44620000  0.452 -0.3285459723
F  F1  1  0.50000000  0.50000000  0.51801000  1.0 -0.1330255539
F  F2  1  0.00000000  0.50000000  0.51801000  1.0 -0.1330255539
F  F3  1  0.00000000  0.00000000  0.01801000  1.0 -0.1330255539
F  F4  1  0.50000000  0.00000000  0.01801000  1.0 -0.1330255539
F  F5  1  0.48795000  0.36027000  0.65839000  1.0 -0.1568222712
F  F6  1  0.51205000  0.63973000  0.65839000  1.0 -0.1568222712
F  F7  1  0.98795000  0.63973000  0.65839000  1.0 -0.1568222712
F  F8  1  0.01205000  0.36027000  0.65839000  1.0 -0.1568222712
F  F9  1  0.98795000  0.86027000  0.15839000  1.0 -0.1568222712
F  F10  1  0.01205000  0.13973000  0.15839000  1.0 -0.1568222712
F  F11  1  0.48795000  0.13973000  0.15839000  1.0 -0.1568222712
F  F12  1  0.51205000  0.86027000  0.15839000  1.0 -0.1568222712
F  F13  1  0.33714000  0.61219000  0.38479000  1.0 -0.1197437025
F  F14  1  0.66286000  0.38781000  0.38479000  1.0 -0.1197437025
F  F15  1  0.83714000  0.38781000  0.38479000  1.0 -0.1197437025
F  F16  1  0.16286000  0.61219000  0.38479000  1.0 -0.1197437025
F  F17  1  0.83714000  0.11219000  0.88479000  1.0 -0.1197437025
F  F18  1  0.16286000  0.88781000  0.88479000  1.0 -0.1197437025
F  F19  1  0.33714000  0.88781000  0.88479000  1.0 -0.1197437025
F  F20  1  0.66286000  0.11219000  0.88479000  1.0 -0.1197437025
F  F21  1  0.36052000  0.73884000  0.24179000  1.0 -0.1503069807
F  F22  1  0.63948000  0.26116000  0.24179000  1.0 -0.1503069807
F  F23  1  0.86052000  0.26116000  0.24179000  1.0 -0.1503069807
F  F24  1  0.13948000  0.73884000  0.24179000  1.0 -0.1503069807
F  F25  1  0.86052000  0.23884000  0.74179000  1.0 -0.1503069807
F  F26  1  0.13948000  0.76116000  0.74179000  1.0 -0.1503069807
F  F27  1  0.36052000  0.76116000  0.74179000  1.0 -0.1503069807
F  F28  1  0.63948000  0.23884000  0.74179000  1.0 -0.1503069807
F  F29  1  0.36067000  0.45654000  0.25240000  1.0 -0.1422975078
F  F30  1  0.63933000  0.54346000  0.25240000  1.0 -0.1422975078
F  F31  1  0.86067000  0.54346000  0.25240000  1.0 -0.1422975078
F  F32  1  0.13933000  0.45654000  0.25240000  1.0 -0.1422975078
F  F33  1  0.86067000  0.95654000  0.75240000  1.0 -0.1422975078
F  F34  1  0.13933000  0.04346000  0.75240000  1.0 -0.1422975078
F  F35  1  0.36067000  0.04346000  0.75240000  1.0 -0.1422975078
F  F36  1  0.63933000  0.95654000  0.75240000  1.0 -0.1422975078
