# DDEC6 charges by PACMAN v1.1 (https://github.com/mtap-research/PACMAN-charge/)
data_cm6b02817_si_004_FSR_pacman
_symmetry_space_group_name_H-M   'P 1'
_cell_length_a   21.95240000
_cell_length_b   21.95240000
_cell_length_c   21.95240000
_cell_angle_alpha   90.00000000
_cell_angle_beta   90.00000000
_cell_angle_gamma   90.00000000
_symmetry_Int_Tables_number   1
_chemical_formula_structural   Fe3H9C24N3O16
_chemical_formula_sum   'Fe24 H72 C192 N24 O128'
_cell_volume   10579.03423231
_cell_formula_units_Z   8
loop_
 _symmetry_equiv_pos_site_id
 _symmetry_equiv_pos_as_xyz
  1  'x, y, z'
loop_
 _atom_site_type_symbol
 _atom_site_label
 _atom_site_symmetry_multiplicity
 _atom_site_fract_x
 _atom_site_fract_y
 _atom_site_fract_z
 _atom_site_occupancy
 _atom_site_charge
Fe  Fe1  1  0.76066000  0.30344000  0.17957000  1.0 1.2757217369
Fe  Fe2  1  0.23934000  0.69656000  0.17957000  1.0 1.2757217369
Fe  Fe3  1  0.23934000  0.30344000  0.82043000  1.0 1.2757217369
Fe  Fe4  1  0.76066000  0.69656000  0.82043000  1.0 1.2757217369
Fe  Fe5  1  0.17957000  0.76066000  0.30344000  1.0 1.2757217369
Fe  Fe6  1  0.17957000  0.23934000  0.69656000  1.0 1.2757217369
Fe  Fe7  1  0.82043000  0.23934000  0.30344000  1.0 1.2757217369
Fe  Fe8  1  0.82043000  0.76066000  0.69656000  1.0 1.2757217369
Fe  Fe9  1  0.30344000  0.17957000  0.76066000  1.0 1.2757217369
Fe  Fe10  1  0.69656000  0.17957000  0.23934000  1.0 1.2757217369
Fe  Fe11  1  0.30344000  0.82043000  0.23934000  1.0 1.2757217369
Fe  Fe12  1  0.69656000  0.82043000  0.76066000  1.0 1.2757217369
Fe  Fe13  1  0.80344000  0.26066000  0.67957000  1.0 1.2757217369
Fe  Fe14  1  0.19656000  0.73934000  0.67957000  1.0 1.274952329
Fe  Fe15  1  0.80344000  0.73934000  0.32043000  1.0 1.2757217369
Fe  Fe16  1  0.19656000  0.26066000  0.32043000  1.0 1.2757217369
Fe  Fe17  1  0.26066000  0.67957000  0.80344000  1.0 1.2757217369
Fe  Fe18  1  0.73934000  0.67957000  0.19656000  1.0 1.2757217369
Fe  Fe19  1  0.73934000  0.32043000  0.80344000  1.0 1.2757217369
Fe  Fe20  1  0.26066000  0.32043000  0.19656000  1.0 1.2757217369
Fe  Fe21  1  0.67957000  0.80344000  0.26066000  1.0 1.2757217369
Fe  Fe22  1  0.67957000  0.19656000  0.73934000  1.0 1.2757217369
Fe  Fe23  1  0.32043000  0.80344000  0.73934000  1.0 1.2757217369
Fe  Fe24  1  0.32043000  0.19656000  0.26066000  1.0 1.2757217369
H  H1  1  0.72390000  0.24440000  0.99130000  1.0 0.138326664
H  H2  1  0.27610000  0.75560000  0.99130000  1.0 0.138326664
H  H3  1  0.27610000  0.24440000  0.00870000  1.0 0.138326664
H  H4  1  0.72390000  0.75560000  0.00870000  1.0 0.138326664
H  H5  1  0.99130000  0.72390000  0.24440000  1.0 0.138326664
H  H6  1  0.99130000  0.27610000  0.75560000  1.0 0.138326664
H  H7  1  0.00870000  0.27610000  0.24440000  1.0 0.138326664
H  H8  1  0.00870000  0.72390000  0.75560000  1.0 0.138326664
H  H9  1  0.24440000  0.99130000  0.72390000  1.0 0.138326664
H  H10  1  0.75560000  0.99130000  0.27610000  1.0 0.138326664
H  H11  1  0.24440000  0.00870000  0.27610000  1.0 0.138326664
H  H12  1  0.75560000  0.00870000  0.72390000  1.0 0.138326664
H  H13  1  0.74440000  0.22390000  0.49130000  1.0 0.138326664
H  H14  1  0.25560000  0.77610000  0.49130000  1.0 0.138326664
H  H15  1  0.74440000  0.77610000  0.50870000  1.0 0.138326664
H  H16  1  0.25560000  0.22390000  0.50870000  1.0 0.138326664
H  H17  1  0.22390000  0.49130000  0.74440000  1.0 0.138326664
H  H18  1  0.77610000  0.49130000  0.25560000  1.0 0.138326664
H  H19  1  0.77610000  0.50870000  0.74440000  1.0 0.138326664
H  H20  1  0.22390000  0.50870000  0.25560000  1.0 0.138326664
H  H21  1  0.49130000  0.74440000  0.22390000  1.0 0.138326664
H  H22  1  0.49130000  0.25560000  0.77610000  1.0 0.138326664
H  H23  1  0.50870000  0.74440000  0.77610000  1.0 0.138326664
H  H24  1  0.50870000  0.25560000  0.22390000  1.0 0.138326664
H  H25  1  0.69150000  0.09380000  0.89260000  1.0 0.138326664
H  H26  1  0.30850000  0.90620000  0.89260000  1.0 0.138326664
H  H27  1  0.30850000  0.09380000  0.10740000  1.0 0.138326664
H  H28  1  0.69150000  0.90620000  0.10740000  1.0 0.138326664
H  H29  1  0.89260000  0.69150000  0.09380000  1.0 0.138326664
H  H30  1  0.89260000  0.30850000  0.90620000  1.0 0.138326664
H  H31  1  0.10740000  0.30850000  0.09380000  1.0 0.138326664
H  H32  1  0.10740000  0.69150000  0.90620000  1.0 0.138326664
H  H33  1  0.09380000  0.89260000  0.69150000  1.0 0.138326664
H  H34  1  0.90620000  0.89260000  0.30850000  1.0 0.138326664
H  H35  1  0.09380000  0.10740000  0.30850000  1.0 0.138326664
H  H36  1  0.90620000  0.10740000  0.69150000  1.0 0.138326664
H  H37  1  0.59380000  0.19150000  0.39260000  1.0 0.138326664
H  H38  1  0.40620000  0.80850000  0.39260000  1.0 0.138326664
H  H39  1  0.59380000  0.80850000  0.60740000  1.0 0.138326664
H  H40  1  0.40620000  0.19150000  0.60740000  1.0 0.138326664
H  H41  1  0.19150000  0.39260000  0.59380000  1.0 0.138326664
H  H42  1  0.80850000  0.39260000  0.40620000  1.0 0.138326664
H  H43  1  0.80850000  0.60740000  0.59380000  1.0 0.138326664
H  H44  1  0.19150000  0.60740000  0.40620000  1.0 0.138326664
H  H45  1  0.39260000  0.59380000  0.19150000  1.0 0.138326664
H  H46  1  0.39260000  0.40620000  0.80850000  1.0 0.138326664
H  H47  1  0.60740000  0.59380000  0.80850000  1.0 0.138326664
H  H48  1  0.60740000  0.40620000  0.19150000  1.0 0.138326664
H  H49  1  0.70180000  0.08420000  0.07550000  1.0 0.1310440742
H  H50  1  0.29820000  0.91580000  0.07550000  1.0 0.1310440742
H  H51  1  0.29820000  0.08420000  0.92450000  1.0 0.1310440742
H  H52  1  0.70180000  0.91580000  0.92450000  1.0 0.1310440742
H  H53  1  0.07550000  0.70180000  0.08420000  1.0 0.1310440742
H  H54  1  0.07550000  0.29820000  0.91580000  1.0 0.1310440742
H  H55  1  0.92450000  0.29820000  0.08420000  1.0 0.1310440742
H  H56  1  0.92450000  0.70180000  0.91580000  1.0 0.1310440742
H  H57  1  0.08420000  0.07550000  0.70180000  1.0 0.1310440742
H  H58  1  0.91580000  0.07550000  0.29820000  1.0 0.1310440742
H  H59  1  0.08420000  0.92450000  0.29820000  1.0 0.1310440742
H  H60  1  0.91580000  0.92450000  0.70180000  1.0 0.1310440742
H  H61  1  0.58420000  0.20180000  0.57550000  1.0 0.1310440742
H  H62  1  0.41580000  0.79820000  0.57550000  1.0 0.1310440742
H  H63  1  0.58420000  0.79820000  0.42450000  1.0 0.1310440742
H  H64  1  0.41580000  0.20180000  0.42450000  1.0 0.1310440742
H  H65  1  0.20180000  0.57550000  0.58420000  1.0 0.1310440742
H  H66  1  0.79820000  0.57550000  0.41580000  1.0 0.1310440742
H  H67  1  0.79820000  0.42450000  0.58420000  1.0 0.1310440742
H  H68  1  0.20180000  0.42450000  0.41580000  1.0 0.1310440742
H  H69  1  0.57550000  0.58420000  0.20180000  1.0 0.1310440742
H  H70  1  0.57550000  0.41580000  0.79820000  1.0 0.1310440742
H  H71  1  0.42450000  0.58420000  0.79820000  1.0 0.1310440742
H  H72  1  0.42450000  0.41580000  0.20180000  1.0 0.1310440742
C  C1  1  0.72181000  0.19730000  0.10426000  1.0 0.5887468971
C  C2  1  0.27819000  0.80270000  0.10426000  1.0 0.5887468971
C  C3  1  0.27819000  0.19730000  0.89574000  1.0 0.5887468971
C  C4  1  0.72181000  0.80270000  0.89574000  1.0 0.5887468971
C  C5  1  0.10426000  0.72181000  0.19730000  1.0 0.5887468971
C  C6  1  0.10426000  0.27819000  0.80270000  1.0 0.5887468971
C  C7  1  0.89574000  0.27819000  0.19730000  1.0 0.5887468971
C  C8  1  0.89574000  0.72181000  0.80270000  1.0 0.5887468971
C  C9  1  0.19730000  0.10426000  0.72181000  1.0 0.5887468971
C  C10  1  0.80270000  0.10426000  0.27819000  1.0 0.5887468971
C  C11  1  0.19730000  0.89574000  0.27819000  1.0 0.5887468971
C  C12  1  0.80270000  0.89574000  0.72181000  1.0 0.5887468971
C  C13  1  0.69730000  0.22181000  0.60426000  1.0 0.5887468971
C  C14  1  0.30270000  0.77819000  0.60426000  1.0 0.5887468971
C  C15  1  0.69730000  0.77819000  0.39574000  1.0 0.5887468971
C  C16  1  0.30270000  0.22181000  0.39574000  1.0 0.5887468971
C  C17  1  0.22181000  0.60426000  0.69730000  1.0 0.5887468971
C  C18  1  0.77819000  0.60426000  0.30270000  1.0 0.5887468971
C  C19  1  0.77819000  0.39574000  0.69730000  1.0 0.5887468971
C  C20  1  0.22181000  0.39574000  0.30270000  1.0 0.5887468971
C  C21  1  0.60426000  0.69730000  0.22181000  1.0 0.5887468971
C  C22  1  0.60426000  0.30270000  0.77819000  1.0 0.5887468971
C  C23  1  0.39574000  0.69730000  0.77819000  1.0 0.5887468971
C  C24  1  0.39574000  0.30270000  0.22181000  1.0 0.5887468971
C  C25  1  0.70610000  0.20900000  0.87463000  1.0 0.582597106
C  C26  1  0.29390000  0.79100000  0.87463000  1.0 0.582597106
C  C27  1  0.29390000  0.20900000  0.12537000  1.0 0.582597106
C  C28  1  0.70610000  0.79100000  0.12537000  1.0 0.582597106
C  C29  1  0.87463000  0.70610000  0.20900000  1.0 0.582597106
C  C30  1  0.87463000  0.29390000  0.79100000  1.0 0.582597106
C  C31  1  0.12537000  0.29390000  0.20900000  1.0 0.582597106
C  C32  1  0.12537000  0.70610000  0.79100000  1.0 0.582597106
C  C33  1  0.20900000  0.87463000  0.70610000  1.0 0.582597106
C  C34  1  0.79100000  0.87463000  0.29390000  1.0 0.582597106
C  C35  1  0.20900000  0.12537000  0.29390000  1.0 0.582597106
C  C36  1  0.79100000  0.12537000  0.70610000  1.0 0.582597106
C  C37  1  0.70900000  0.20610000  0.37463000  1.0 0.582597106
C  C38  1  0.29100000  0.79390000  0.37463000  1.0 0.582597106
C  C39  1  0.70900000  0.79390000  0.62537000  1.0 0.582597106
C  C40  1  0.29100000  0.20610000  0.62537000  1.0 0.582597106
C  C41  1  0.20610000  0.37463000  0.70900000  1.0 0.582597106
C  C42  1  0.79390000  0.37463000  0.29100000  1.0 0.582597106
C  C43  1  0.79390000  0.62537000  0.70900000  1.0 0.582597106
C  C44  1  0.20610000  0.62537000  0.29100000  1.0 0.582597106
C  C45  1  0.37463000  0.70900000  0.20610000  1.0 0.582597106
C  C46  1  0.37463000  0.29100000  0.79390000  1.0 0.582597106
C  C47  1  0.62537000  0.70900000  0.79390000  1.0 0.582597106
C  C48  1  0.62537000  0.29100000  0.20610000  1.0 0.582597106
C  C49  1  0.71590000  0.20280000  0.98946000  1.0 -0.0908408905
C  C50  1  0.28410000  0.79720000  0.98946000  1.0 -0.0908408905
C  C51  1  0.28410000  0.20280000  0.01054000  1.0 -0.0908408905
C  C52  1  0.71590000  0.79720000  0.01054000  1.0 -0.0908408905
C  C53  1  0.98946000  0.71590000  0.20280000  1.0 -0.0908408905
C  C54  1  0.98946000  0.28410000  0.79720000  1.0 -0.0908408905
C  C55  1  0.01054000  0.28410000  0.20280000  1.0 -0.0908408905
C  C56  1  0.01054000  0.71590000  0.79720000  1.0 -0.0908408905
C  C57  1  0.20280000  0.98946000  0.71590000  1.0 -0.0908408905
C  C58  1  0.79720000  0.98946000  0.28410000  1.0 -0.0908408905
C  C59  1  0.20280000  0.01054000  0.28410000  1.0 -0.0908408905
C  C60  1  0.79720000  0.01054000  0.71590000  1.0 -0.0908408905
C  C61  1  0.70280000  0.21590000  0.48946000  1.0 -0.0908408905
C  C62  1  0.29720000  0.78410000  0.48946000  1.0 -0.0908408905
C  C63  1  0.70280000  0.78410000  0.51054000  1.0 -0.0908408905
C  C64  1  0.29720000  0.21590000  0.51054000  1.0 -0.0908408905
C  C65  1  0.21590000  0.48946000  0.70280000  1.0 -0.0908408905
C  C66  1  0.78410000  0.48946000  0.29720000  1.0 -0.0908408905
C  C67  1  0.78410000  0.51054000  0.70280000  1.0 -0.0908408905
C  C68  1  0.21590000  0.51054000  0.29720000  1.0 -0.0908408905
C  C69  1  0.48946000  0.70280000  0.21590000  1.0 -0.0908408905
C  C70  1  0.48946000  0.29720000  0.78410000  1.0 -0.0908408905
C  C71  1  0.51054000  0.70280000  0.78410000  1.0 -0.0908408905
C  C72  1  0.51054000  0.29720000  0.21590000  1.0 -0.0908408905
C  C73  1  0.71350000  0.16890000  0.04274000  1.0 -0.028523775
C  C74  1  0.28650000  0.83110000  0.04274000  1.0 -0.028523775
C  C75  1  0.28650000  0.16890000  0.95726000  1.0 -0.028523775
C  C76  1  0.71350000  0.83110000  0.95726000  1.0 -0.028523775
C  C77  1  0.04274000  0.71350000  0.16890000  1.0 -0.028523775
C  C78  1  0.04274000  0.28650000  0.83110000  1.0 -0.028523775
C  C79  1  0.95726000  0.28650000  0.16890000  1.0 -0.028523775
C  C80  1  0.95726000  0.71350000  0.83110000  1.0 -0.028523775
C  C81  1  0.16890000  0.04274000  0.71350000  1.0 -0.028523775
C  C82  1  0.83110000  0.04274000  0.28650000  1.0 -0.028523775
C  C83  1  0.16890000  0.95726000  0.28650000  1.0 -0.028523775
C  C84  1  0.83110000  0.95726000  0.71350000  1.0 -0.028523775
C  C85  1  0.66890000  0.21350000  0.54274000  1.0 -0.028523775
C  C86  1  0.33110000  0.78650000  0.54274000  1.0 -0.028523775
C  C87  1  0.66890000  0.78650000  0.45726000  1.0 -0.028523775
C  C88  1  0.33110000  0.21350000  0.45726000  1.0 -0.028523775
C  C89  1  0.21350000  0.54274000  0.66890000  1.0 -0.028523775
C  C90  1  0.78650000  0.54274000  0.33110000  1.0 -0.028523775
C  C91  1  0.78650000  0.45726000  0.66890000  1.0 -0.028523775
C  C92  1  0.21350000  0.45726000  0.33110000  1.0 -0.028523775
C  C93  1  0.54274000  0.66890000  0.21350000  1.0 -0.028523775
C  C94  1  0.54274000  0.33110000  0.78650000  1.0 -0.028523775
C  C95  1  0.45726000  0.66890000  0.78650000  1.0 -0.028523775
C  C96  1  0.45726000  0.33110000  0.21350000  1.0 -0.028523775
C  C97  1  0.70620000  0.17500000  0.93328000  1.0 -0.0406591338
C  C98  1  0.29380000  0.82500000  0.93328000  1.0 -0.0406591338
C  C99  1  0.29380000  0.17500000  0.06672000  1.0 -0.0406591338
C  C100  1  0.70620000  0.82500000  0.06672000  1.0 -0.0406591338
C  C101  1  0.93328000  0.70620000  0.17500000  1.0 -0.0406591338
C  C102  1  0.93328000  0.29380000  0.82500000  1.0 -0.0406591338
C  C103  1  0.06672000  0.29380000  0.17500000  1.0 -0.0406591338
C  C104  1  0.06672000  0.70620000  0.82500000  1.0 -0.0406591338
C  C105  1  0.17500000  0.93328000  0.70620000  1.0 -0.0406591338
C  C106  1  0.82500000  0.93328000  0.29380000  1.0 -0.0406591338
C  C107  1  0.17500000  0.06672000  0.29380000  1.0 -0.0406591338
C  C108  1  0.82500000  0.06672000  0.70620000  1.0 -0.0406591338
C  C109  1  0.67500000  0.20620000  0.43328000  1.0 -0.0406591338
C  C110  1  0.32500000  0.79380000  0.43328000  1.0 -0.0406591338
C  C111  1  0.67500000  0.79380000  0.56672000  1.0 -0.0406591338
C  C112  1  0.32500000  0.20620000  0.56672000  1.0 -0.0406591338
C  C113  1  0.20620000  0.43328000  0.67500000  1.0 -0.0406591338
C  C114  1  0.79380000  0.43328000  0.32500000  1.0 -0.0406591338
C  C115  1  0.79380000  0.56672000  0.67500000  1.0 -0.0406591338
C  C116  1  0.20620000  0.56672000  0.32500000  1.0 -0.0406591338
C  C117  1  0.43328000  0.67500000  0.20620000  1.0 -0.0406591338
C  C118  1  0.43328000  0.32500000  0.79380000  1.0 -0.0406591338
C  C119  1  0.56672000  0.67500000  0.79380000  1.0 -0.0406591338
C  C120  1  0.56672000  0.32500000  0.20620000  1.0 -0.0406591338
C  C121  1  0.69710000  0.11280000  0.93005000  1.0 -0.1434406025
C  C122  1  0.30290000  0.88720000  0.93005000  1.0 -0.1434406025
C  C123  1  0.30290000  0.11280000  0.06995000  1.0 -0.1434406025
C  C124  1  0.69710000  0.88720000  0.06995000  1.0 -0.1434406025
C  C125  1  0.93005000  0.69710000  0.11280000  1.0 -0.1434406025
C  C126  1  0.93005000  0.30290000  0.88720000  1.0 -0.1434406025
C  C127  1  0.06995000  0.30290000  0.11280000  1.0 -0.1434406025
C  C128  1  0.06995000  0.69710000  0.88720000  1.0 -0.1434406025
C  C129  1  0.11280000  0.93005000  0.69710000  1.0 -0.1434406025
C  C130  1  0.88720000  0.93005000  0.30290000  1.0 -0.1434406025
C  C131  1  0.11280000  0.06995000  0.30290000  1.0 -0.1434406025
C  C132  1  0.88720000  0.06995000  0.69710000  1.0 -0.1434406025
C  C133  1  0.61280000  0.19710000  0.43005000  1.0 -0.1434406025
C  C134  1  0.38720000  0.80290000  0.43005000  1.0 -0.1434406025
C  C135  1  0.61280000  0.80290000  0.56995000  1.0 -0.1434406025
C  C136  1  0.38720000  0.19710000  0.56995000  1.0 -0.1434406025
C  C137  1  0.19710000  0.43005000  0.61280000  1.0 -0.1434406025
C  C138  1  0.80290000  0.43005000  0.38720000  1.0 -0.1434406025
C  C139  1  0.80290000  0.56995000  0.61280000  1.0 -0.1434406025
C  C140  1  0.19710000  0.56995000  0.38720000  1.0 -0.1434406025
C  C141  1  0.43005000  0.61280000  0.19710000  1.0 -0.1434406025
C  C142  1  0.43005000  0.38720000  0.80290000  1.0 -0.1434406025
C  C143  1  0.56995000  0.61280000  0.80290000  1.0 -0.1434406025
C  C144  1  0.56995000  0.38720000  0.19710000  1.0 -0.1434406025
C  C145  1  0.69640000  0.07940000  0.98370000  1.0 0.1463779775
C  C146  1  0.30360000  0.92060000  0.98370000  1.0 0.1463779775
C  C147  1  0.30360000  0.07940000  0.01630000  1.0 0.1463779775
C  C148  1  0.69640000  0.92060000  0.01630000  1.0 0.1463779775
C  C149  1  0.98370000  0.69640000  0.07940000  1.0 0.1463779775
C  C150  1  0.98370000  0.30360000  0.92060000  1.0 0.1463779775
C  C151  1  0.01630000  0.30360000  0.07940000  1.0 0.1463779775
C  C152  1  0.01630000  0.69640000  0.92060000  1.0 0.1463779775
C  C153  1  0.07940000  0.98370000  0.69640000  1.0 0.1463779775
C  C154  1  0.92060000  0.98370000  0.30360000  1.0 0.1463779775
C  C155  1  0.07940000  0.01630000  0.30360000  1.0 0.1463779775
C  C156  1  0.92060000  0.01630000  0.69640000  1.0 0.1463779775
C  C157  1  0.57940000  0.19640000  0.48370000  1.0 0.1463779775
C  C158  1  0.42060000  0.80360000  0.48370000  1.0 0.1463779775
C  C159  1  0.57940000  0.80360000  0.51630000  1.0 0.1463779775
C  C160  1  0.42060000  0.19640000  0.51630000  1.0 0.1463779775
C  C161  1  0.19640000  0.48370000  0.57940000  1.0 0.1463779775
C  C162  1  0.80360000  0.48370000  0.42060000  1.0 0.1463779775
C  C163  1  0.80360000  0.51630000  0.57940000  1.0 0.1463779775
C  C164  1  0.19640000  0.51630000  0.42060000  1.0 0.1463779775
C  C165  1  0.48370000  0.57940000  0.19640000  1.0 0.1463779775
C  C166  1  0.48370000  0.42060000  0.80360000  1.0 0.1463779775
C  C167  1  0.51630000  0.57940000  0.80360000  1.0 0.1463779775
C  C168  1  0.51630000  0.42060000  0.19640000  1.0 0.1463779775
C  C169  1  0.70360000  0.10720000  0.04000000  1.0 -0.1434406025
C  C170  1  0.29640000  0.89280000  0.04000000  1.0 -0.1434406025
C  C171  1  0.29640000  0.10720000  0.96000000  1.0 -0.1434406025
C  C172  1  0.70360000  0.89280000  0.96000000  1.0 -0.1434406025
C  C173  1  0.04000000  0.70360000  0.10720000  1.0 -0.1434406025
C  C174  1  0.04000000  0.29640000  0.89280000  1.0 -0.1434406025
C  C175  1  0.96000000  0.29640000  0.10720000  1.0 -0.1434406025
C  C176  1  0.96000000  0.70360000  0.89280000  1.0 -0.1434406025
C  C177  1  0.10720000  0.04000000  0.70360000  1.0 -0.1434406025
C  C178  1  0.89280000  0.04000000  0.29640000  1.0 -0.1434406025
C  C179  1  0.10720000  0.96000000  0.29640000  1.0 -0.1434406025
C  C180  1  0.89280000  0.96000000  0.70360000  1.0 -0.1434406025
C  C181  1  0.60720000  0.20360000  0.54000000  1.0 -0.1434406025
C  C182  1  0.39280000  0.79640000  0.54000000  1.0 -0.1434406025
C  C183  1  0.60720000  0.79640000  0.46000000  1.0 -0.1434406025
C  C184  1  0.39280000  0.20360000  0.46000000  1.0 -0.1434406025
C  C185  1  0.20360000  0.54000000  0.60720000  1.0 -0.1434406025
C  C186  1  0.79640000  0.54000000  0.39280000  1.0 -0.1434406025
C  C187  1  0.79640000  0.46000000  0.60720000  1.0 -0.1434406025
C  C188  1  0.20360000  0.46000000  0.39280000  1.0 -0.1434406025
C  C189  1  0.54000000  0.60720000  0.20360000  1.0 -0.1434406025
C  C190  1  0.54000000  0.39280000  0.79640000  1.0 -0.1434406025
C  C191  1  0.46000000  0.60720000  0.79640000  1.0 -0.1434406025
C  C192  1  0.46000000  0.39280000  0.20360000  1.0 -0.1434406025
N  N1  1  0.69260000  0.01372000  0.97621000  1.0 -0.1201429849
N  N2  1  0.30740000  0.98628000  0.97621000  1.0 -0.1201429849
N  N3  1  0.30740000  0.01372000  0.02379000  1.0 -0.1201429849
N  N4  1  0.69260000  0.98628000  0.02379000  1.0 -0.1201429849
N  N5  1  0.97621000  0.69260000  0.01372000  1.0 -0.1201429849
N  N6  1  0.97621000  0.30740000  0.98628000  1.0 -0.1201429849
N  N7  1  0.02379000  0.30740000  0.01372000  1.0 -0.1201429849
N  N8  1  0.02379000  0.69260000  0.98628000  1.0 -0.1201429849
N  N9  1  0.01372000  0.97621000  0.69260000  1.0 -0.1201429849
N  N10  1  0.98628000  0.97621000  0.30740000  1.0 -0.1201429849
N  N11  1  0.01372000  0.02379000  0.30740000  1.0 -0.1201429849
N  N12  1  0.98628000  0.02379000  0.69260000  1.0 -0.1201429849
N  N13  1  0.51372000  0.19260000  0.47621000  1.0 -0.1201429849
N  N14  1  0.48628000  0.80740000  0.47621000  1.0 -0.1201429849
N  N15  1  0.51372000  0.80740000  0.52379000  1.0 -0.1201429849
N  N16  1  0.48628000  0.19260000  0.52379000  1.0 -0.1201429849
N  N17  1  0.19260000  0.47621000  0.51372000  1.0 -0.1201429849
N  N18  1  0.80740000  0.47621000  0.48628000  1.0 -0.1201429849
N  N19  1  0.80740000  0.52379000  0.51372000  1.0 -0.1201429849
N  N20  1  0.19260000  0.52379000  0.48628000  1.0 -0.1201429849
N  N21  1  0.47621000  0.51372000  0.19260000  1.0 -0.1201429849
N  N22  1  0.47621000  0.48628000  0.80740000  1.0 -0.1201429849
N  N23  1  0.52379000  0.51372000  0.80740000  1.0 -0.1201429849
N  N24  1  0.52379000  0.48628000  0.19260000  1.0 -0.1201429849
O  O1  1  0.75942000  0.24058000  0.24058000  1.0 -0.9166015618
O  O2  1  0.24058000  0.75942000  0.24058000  1.0 -0.9166015618
O  O3  1  0.24058000  0.24058000  0.75942000  1.0 -0.9166015618
O  O4  1  0.75942000  0.75942000  0.75942000  1.0 -0.9166015618
O  O5  1  0.74058000  0.25942000  0.74058000  1.0 -0.9166015618
O  O6  1  0.25942000  0.74058000  0.74058000  1.0 -0.9166015618
O  O7  1  0.74058000  0.74058000  0.25942000  1.0 -0.9166015618
O  O8  1  0.25942000  0.25942000  0.25942000  1.0 -0.9166015618
O  O9  1  0.76191000  0.37095000  0.11423000  1.0 -0.0406591338
O  O10  1  0.23809000  0.62905000  0.11423000  1.0 -0.0464185916
O  O11  1  0.23809000  0.37095000  0.88577000  1.0 -0.0464185916
O  O12  1  0.76191000  0.62905000  0.88577000  1.0 -0.0464185916
O  O13  1  0.11423000  0.76191000  0.37095000  1.0 -0.0464185916
O  O14  1  0.11423000  0.23809000  0.62905000  1.0 -0.0464185916
O  O15  1  0.88577000  0.23809000  0.37095000  1.0 -0.0406591338
O  O16  1  0.88577000  0.76191000  0.62905000  1.0 -0.0464185916
O  O17  1  0.37095000  0.11423000  0.76191000  1.0 -0.0464185916
O  O18  1  0.62905000  0.11423000  0.23809000  1.0 -0.0406591338
O  O19  1  0.37095000  0.88577000  0.23809000  1.0 -0.0464185916
O  O20  1  0.62905000  0.88577000  0.76191000  1.0 -0.0464185916
O  O21  1  0.87095000  0.26191000  0.61423000  1.0 -0.0406591338
O  O22  1  0.12905000  0.73809000  0.61423000  1.0 -0.0464185916
O  O23  1  0.87095000  0.73809000  0.38577000  1.0 -0.0406591338
O  O24  1  0.12905000  0.26191000  0.38577000  1.0 -0.0464185916
O  O25  1  0.26191000  0.61423000  0.87095000  1.0 -0.0464185916
O  O26  1  0.73809000  0.61423000  0.12905000  1.0 -0.0406591338
O  O27  1  0.73809000  0.38577000  0.87095000  1.0 -0.0464185916
O  O28  1  0.26191000  0.38577000  0.12905000  1.0 -0.0464185916
O  O29  1  0.61423000  0.87095000  0.26191000  1.0 -0.0464185916
O  O30  1  0.61423000  0.12905000  0.73809000  1.0 -0.0406591338
O  O31  1  0.38577000  0.87095000  0.73809000  1.0 -0.0464185916
O  O32  1  0.38577000  0.12905000  0.26191000  1.0 -0.0406591338
O  O33  1  0.74559000  0.24928000  0.10690000  1.0 -0.5210071114
O  O34  1  0.25441000  0.75072000  0.10690000  1.0 -0.5210071114
O  O35  1  0.25441000  0.24928000  0.89310000  1.0 -0.5210071114
O  O36  1  0.74559000  0.75072000  0.89310000  1.0 -0.5210071114
O  O37  1  0.10690000  0.74559000  0.24928000  1.0 -0.5210071114
O  O38  1  0.10690000  0.25441000  0.75072000  1.0 -0.5210071114
O  O39  1  0.89310000  0.25441000  0.24928000  1.0 -0.5210071114
O  O40  1  0.89310000  0.74559000  0.75072000  1.0 -0.5210071114
O  O41  1  0.24928000  0.10690000  0.74559000  1.0 -0.5210071114
O  O42  1  0.75072000  0.10690000  0.25441000  1.0 -0.5210071114
O  O43  1  0.24928000  0.89310000  0.25441000  1.0 -0.5210071114
O  O44  1  0.75072000  0.89310000  0.74559000  1.0 -0.5210071114
O  O45  1  0.74928000  0.24559000  0.60690000  1.0 -0.5210071114
O  O46  1  0.25072000  0.75441000  0.60690000  1.0 -0.5210071114
O  O47  1  0.74928000  0.75441000  0.39310000  1.0 -0.5210071114
O  O48  1  0.25072000  0.24559000  0.39310000  1.0 -0.5210071114
O  O49  1  0.24559000  0.60690000  0.74928000  1.0 -0.5210071114
O  O50  1  0.75441000  0.60690000  0.25072000  1.0 -0.5210071114
O  O51  1  0.75441000  0.39310000  0.74928000  1.0 -0.5210071114
O  O52  1  0.24559000  0.39310000  0.25072000  1.0 -0.5210071114
O  O53  1  0.60690000  0.74928000  0.24559000  1.0 -0.5210071114
O  O54  1  0.60690000  0.25072000  0.75441000  1.0 -0.5210071114
O  O55  1  0.39310000  0.74928000  0.75441000  1.0 -0.5210071114
O  O56  1  0.39310000  0.25072000  0.24559000  1.0 -0.5210071114
O  O57  1  0.70377000  0.16589000  0.14920000  1.0 -0.5210071114
O  O58  1  0.29623000  0.83411000  0.14920000  1.0 -0.5210071114
O  O59  1  0.29623000  0.16589000  0.85080000  1.0 -0.5210071114
O  O60  1  0.70377000  0.83411000  0.85080000  1.0 -0.5210071114
O  O61  1  0.14920000  0.70377000  0.16589000  1.0 -0.5210071114
O  O62  1  0.14920000  0.29623000  0.83411000  1.0 -0.5210071114
O  O63  1  0.85080000  0.29623000  0.16589000  1.0 -0.5210071114
O  O64  1  0.85080000  0.70377000  0.83411000  1.0 -0.5210071114
O  O65  1  0.16589000  0.14920000  0.70377000  1.0 -0.5210071114
O  O66  1  0.83411000  0.14920000  0.29623000  1.0 -0.5210071114
O  O67  1  0.16589000  0.85080000  0.29623000  1.0 -0.5210071114
O  O68  1  0.83411000  0.85080000  0.70377000  1.0 -0.5210071114
O  O69  1  0.66589000  0.20377000  0.64920000  1.0 -0.5210071114
O  O70  1  0.33411000  0.79623000  0.64920000  1.0 -0.5210071114
O  O71  1  0.66589000  0.79623000  0.35080000  1.0 -0.5210071114
O  O72  1  0.33411000  0.20377000  0.35080000  1.0 -0.5210071114
O  O73  1  0.20377000  0.64920000  0.66589000  1.0 -0.5210071114
O  O74  1  0.79623000  0.64920000  0.33411000  1.0 -0.5210071114
O  O75  1  0.79623000  0.35080000  0.66589000  1.0 -0.5210071114
O  O76  1  0.20377000  0.35080000  0.33411000  1.0 -0.5210071114
O  O77  1  0.64920000  0.66589000  0.20377000  1.0 -0.5210071114
O  O78  1  0.64920000  0.33411000  0.79623000  1.0 -0.5210071114
O  O79  1  0.35080000  0.66589000  0.79623000  1.0 -0.5210071114
O  O80  1  0.35080000  0.33411000  0.20377000  1.0 -0.5210071114
O  O81  1  0.72652000  0.26260000  0.87422000  1.0 -0.5210071114
O  O82  1  0.27348000  0.73740000  0.87422000  1.0 -0.5210071114
O  O83  1  0.27348000  0.26260000  0.12578000  1.0 -0.5210071114
O  O84  1  0.72652000  0.73740000  0.12578000  1.0 -0.5210071114
O  O85  1  0.87422000  0.72652000  0.26260000  1.0 -0.5210071114
O  O86  1  0.87422000  0.27348000  0.73740000  1.0 -0.5210071114
O  O87  1  0.12578000  0.27348000  0.26260000  1.0 -0.5210071114
O  O88  1  0.12578000  0.72652000  0.73740000  1.0 -0.5210071114
O  O89  1  0.26260000  0.87422000  0.72652000  1.0 -0.5210071114
O  O90  1  0.73740000  0.87422000  0.27348000  1.0 -0.5210071114
O  O91  1  0.26260000  0.12578000  0.27348000  1.0 -0.5210071114
O  O92  1  0.73740000  0.12578000  0.72652000  1.0 -0.5210071114
O  O93  1  0.76260000  0.22652000  0.37422000  1.0 -0.5210071114
O  O94  1  0.23740000  0.77348000  0.37422000  1.0 -0.5210071114
O  O95  1  0.76260000  0.77348000  0.62578000  1.0 -0.5210071114
O  O96  1  0.23740000  0.22652000  0.62578000  1.0 -0.5210071114
O  O97  1  0.22652000  0.37422000  0.76260000  1.0 -0.5210071114
O  O98  1  0.77348000  0.37422000  0.23740000  1.0 -0.5210071114
O  O99  1  0.77348000  0.62578000  0.76260000  1.0 -0.5210071114
O  O100  1  0.22652000  0.62578000  0.23740000  1.0 -0.5210071114
O  O101  1  0.37422000  0.76260000  0.22652000  1.0 -0.5210071114
O  O102  1  0.37422000  0.23740000  0.77348000  1.0 -0.5210071114
O  O103  1  0.62578000  0.76260000  0.77348000  1.0 -0.5210071114
O  O104  1  0.62578000  0.23740000  0.22652000  1.0 -0.5210071114
O  O105  1  0.68617000  0.18110000  0.82914000  1.0 -0.5210071114
O  O106  1  0.31383000  0.81890000  0.82914000  1.0 -0.5210071114
O  O107  1  0.31383000  0.18110000  0.17086000  1.0 -0.5210071114
O  O108  1  0.68617000  0.81890000  0.17086000  1.0 -0.5210071114
O  O109  1  0.82914000  0.68617000  0.18110000  1.0 -0.5210071114
O  O110  1  0.82914000  0.31383000  0.81890000  1.0 -0.5210071114
O  O111  1  0.17086000  0.31383000  0.18110000  1.0 -0.5210071114
O  O112  1  0.17086000  0.68617000  0.81890000  1.0 -0.5210071114
O  O113  1  0.18110000  0.82914000  0.68617000  1.0 -0.5210071114
O  O114  1  0.81890000  0.82914000  0.31383000  1.0 -0.5210071114
O  O115  1  0.18110000  0.17086000  0.31383000  1.0 -0.5210071114
O  O116  1  0.81890000  0.17086000  0.68617000  1.0 -0.5210071114
O  O117  1  0.68110000  0.18617000  0.32914000  1.0 -0.5210071114
O  O118  1  0.31890000  0.81383000  0.32914000  1.0 -0.5210071114
O  O119  1  0.68110000  0.81383000  0.67086000  1.0 -0.5210071114
O  O120  1  0.31890000  0.18617000  0.67086000  1.0 -0.5210071114
O  O121  1  0.18617000  0.32914000  0.68110000  1.0 -0.5210071114
O  O122  1  0.81383000  0.32914000  0.31890000  1.0 -0.5210071114
O  O123  1  0.81383000  0.67086000  0.68110000  1.0 -0.5210071114
O  O124  1  0.18617000  0.67086000  0.31890000  1.0 -0.5210071114
O  O125  1  0.32914000  0.68110000  0.18617000  1.0 -0.5210071114
O  O126  1  0.32914000  0.31890000  0.81383000  1.0 -0.5210071114
O  O127  1  0.67086000  0.68110000  0.81383000  1.0 -0.5210071114
O  O128  1  0.67086000  0.31890000  0.18617000  1.0 -0.5210071114
