# DDEC6 charges by PACMAN v1.1 (https://github.com/mtap-research/PACMAN-charge/)
data_2019[Al][fon]3[FSR]2
_chemical_formula_sum              "Al16 H168 C248 Br8 N16 O64"
_cell_length_a       19.4353
_cell_length_b       19.4353
_cell_length_c       35.7957
_cell_angle_alpha    90
_cell_angle_beta     90
_cell_angle_gamma    90

_symmetry_space_group_name_H-M    "P 1"
_symmetry_Int_Tables_number       1

loop_
  _symmetry_equiv_pos_as_xyz
  'x, y, z'

loop_
  _atom_site_type_symbol
  _atom_site_label
  _atom_site_symmetry_multiplicity
  _atom_site_fract_x
  _atom_site_fract_y
  _atom_site_fract_z
  _atom_site_occupancy
  _atom_site_charge
Al  Al1       1.0  0.11863  0.10410  0.08166  1.0000 1.5398984259
Al  Al2       1.0  0.88137  0.89590  0.08166  1.0000 1.5398984259
Al  Al3       1.0  0.39590  0.61863  0.58166  1.0000 1.5398984259
Al  Al4       1.0  0.60410  0.38137  0.58166  1.0000 1.5398984259
Al  Al5       1.0  0.38137  0.60410  0.41834  1.0000 1.5398984259
Al  Al6       1.0  0.61863  0.39590  0.41834  1.0000 1.5398984259
Al  Al7       1.0  0.10410  0.11863  0.91834  1.0000 1.5398984259
Al  Al8       1.0  0.89590  0.88137  0.91834  1.0000 1.5398984259
Al  Al9       1.0  0.15998  0.15998  0.00000  1.0000 1.4210765666
Al  Al10      1.0  0.84002  0.84002  0.00000  1.0000 1.4210765666
Al  Al11      1.0  0.34002  0.65998  0.50000  1.0000 1.4210765666
Al  Al12      1.0  0.65998  0.34002  0.50000  1.0000 1.4210765666
Al  Al13      1.0  0.00000  0.00000  0.11598  1.0000 1.6431654996
Al  Al14      1.0  0.50000  0.50000  0.61598  1.0000 1.6431654996
Al  Al15      1.0  0.50000  0.50000  0.38402  1.0000 1.6431654996
Al  Al16      1.0  0.00000  0.00000  0.88402  1.0000 1.6431654996
H   H1        1.0  0.06732  0.99838  0.05867  1.0000 0.4120887226
H   H2        1.0  0.04672  0.13317  0.02758  1.0000 0.416000039
H   H3        1.0  0.08287  0.99703  0.22118  1.0000 0.1306467036
H   H4        1.0  0.13732  0.99959  0.27910  1.0000 0.1122739323
H   H5        1.0  0.35872  0.34268  0.35891  1.0000 0.1408387236
H   H6        1.0  0.29225  0.86236  0.45989  1.0000 0.1306467036
H   H7        1.0  0.23699  0.11178  0.17694  1.0000 0.1306467036
H   H8        1.0  0.28547  0.96694  0.42820  1.0000 0.1122739323
H   H9        1.0  0.29496  0.24630  0.34260  1.0000 0.1122739323
H   H10       1.0  0.23553  0.95608  0.31232  1.0000 0.1122739323
H   H11       1.0  0.32188  0.76315  0.36165  1.0000 0.1306467036
H   H12       1.0  0.35341  0.05207  0.39001  1.0000 0.1122739323
H   H13       1.0  0.31346  0.86713  0.33000  1.0000 0.1122739323
H   H14       1.0  0.45065  0.12368  0.37769  1.0000 0.1122739323
H   H15       1.0  0.51503  0.22003  0.39299  1.0000 0.1306467036
H   H16       1.0  0.28952  0.15499  0.29811  1.0000 0.1122739323
H   H17       1.0  0.29210  0.11272  0.23471  1.0000 0.1122739323
H   H18       1.0  0.30376  0.07118  0.99195  1.0000 0.1220972404
H   H19       1.0  0.23500  0.98283  0.11924  1.0000 0.1408387236
H   H20       1.0  0.26423  0.92078  0.09450  1.0000 0.1220972404
H   H21       1.0  0.18361  0.93752  0.09445  1.0000 0.1408387236
H   H22       1.0  0.93268  0.00162  0.05867  1.0000 0.4120887226
H   H23       1.0  0.95328  0.86683  0.02758  1.0000 0.416000039
H   H24       1.0  0.91713  0.00297  0.22118  1.0000 0.1306467036
H   H25       1.0  0.86268  0.00041  0.27910  1.0000 0.1122739323
H   H26       1.0  0.64128  0.65732  0.35891  1.0000 0.1408387236
H   H27       1.0  0.70775  0.13764  0.45989  1.0000 0.1306467036
H   H28       1.0  0.76301  0.88822  0.17694  1.0000 0.1306467036
H   H29       1.0  0.71453  0.03306  0.42820  1.0000 0.1122739323
H   H30       1.0  0.70504  0.75370  0.34260  1.0000 0.1122739323
H   H31       1.0  0.76447  0.04392  0.31232  1.0000 0.1122739323
H   H32       1.0  0.67812  0.23685  0.36165  1.0000 0.1306467036
H   H33       1.0  0.64659  0.94793  0.39001  1.0000 0.1122739323
H   H34       1.0  0.68654  0.13287  0.33000  1.0000 0.1122739323
H   H35       1.0  0.54935  0.87632  0.37769  1.0000 0.1122739323
H   H36       1.0  0.48497  0.77997  0.39299  1.0000 0.1306467036
H   H37       1.0  0.71048  0.84501  0.29811  1.0000 0.1122739323
H   H38       1.0  0.70790  0.88728  0.23471  1.0000 0.1122739323
H   H39       1.0  0.69624  0.92882  0.99195  1.0000 0.1220972404
H   H40       1.0  0.76500  0.01717  0.11924  1.0000 0.1408387236
H   H41       1.0  0.73577  0.07922  0.09450  1.0000 0.1220972404
H   H42       1.0  0.81639  0.06248  0.09445  1.0000 0.1408387236
H   H43       1.0  0.50162  0.56732  0.55867  1.0000 0.4120887226
H   H44       1.0  0.36683  0.54672  0.52758  1.0000 0.416000039
H   H45       1.0  0.50297  0.58287  0.72118  1.0000 0.1306467036
H   H46       1.0  0.50041  0.63732  0.77910  1.0000 0.1122739323
H   H47       1.0  0.15732  0.85872  0.85891  1.0000 0.1408387236
H   H48       1.0  0.63764  0.79225  0.95989  1.0000 0.1306467036
H   H49       1.0  0.38822  0.73699  0.67694  1.0000 0.1306467036
H   H50       1.0  0.53306  0.78547  0.92820  1.0000 0.1122739323
H   H51       1.0  0.25370  0.79496  0.84260  1.0000 0.1122739323
H   H52       1.0  0.54392  0.73553  0.81232  1.0000 0.1122739323
H   H53       1.0  0.73685  0.82188  0.86165  1.0000 0.1306467036
H   H54       1.0  0.44793  0.85341  0.89001  1.0000 0.1122739323
H   H55       1.0  0.63287  0.81346  0.83000  1.0000 0.1122739323
H   H56       1.0  0.37632  0.95065  0.87769  1.0000 0.1122739323
H   H57       1.0  0.27997  0.01503  0.89299  1.0000 0.1306467036
H   H58       1.0  0.34501  0.78952  0.79811  1.0000 0.1122739323
H   H59       1.0  0.38728  0.79210  0.73471  1.0000 0.1122739323
H   H60       1.0  0.42882  0.80376  0.49195  1.0000 0.1220972404
H   H61       1.0  0.51717  0.73500  0.61924  1.0000 0.1408387236
H   H62       1.0  0.57922  0.76423  0.59450  1.0000 0.1220972404
H   H63       1.0  0.56248  0.68361  0.59445  1.0000 0.1408387236
H   H64       1.0  0.49838  0.43268  0.55867  1.0000 0.4120887226
H   H65       1.0  0.63317  0.45328  0.52758  1.0000 0.416000039
H   H66       1.0  0.49703  0.41713  0.72118  1.0000 0.1306467036
H   H67       1.0  0.49959  0.36268  0.77910  1.0000 0.1122739323
H   H68       1.0  0.84268  0.14128  0.85891  1.0000 0.1408387236
H   H69       1.0  0.36236  0.20775  0.95989  1.0000 0.1306467036
H   H70       1.0  0.61178  0.26301  0.67694  1.0000 0.1306467036
H   H71       1.0  0.46694  0.21453  0.92820  1.0000 0.1122739323
H   H72       1.0  0.74630  0.20504  0.84260  1.0000 0.1122739323
H   H73       1.0  0.45608  0.26447  0.81232  1.0000 0.1122739323
H   H74       1.0  0.26315  0.17812  0.86165  1.0000 0.1306467036
H   H75       1.0  0.55207  0.14659  0.89001  1.0000 0.1122739323
H   H76       1.0  0.36713  0.18654  0.83000  1.0000 0.1122739323
H   H77       1.0  0.62368  0.04935  0.87769  1.0000 0.1122739323
H   H78       1.0  0.72003  0.98497  0.89299  1.0000 0.1306467036
H   H79       1.0  0.65499  0.21048  0.79811  1.0000 0.1122739323
H   H80       1.0  0.61272  0.20790  0.73471  1.0000 0.1122739323
H   H81       1.0  0.57118  0.19624  0.49195  1.0000 0.1220972404
H   H82       1.0  0.48283  0.26500  0.61924  1.0000 0.1408387236
H   H83       1.0  0.42078  0.23577  0.59450  1.0000 0.1220972404
H   H84       1.0  0.43752  0.31639  0.59445  1.0000 0.1408387236
H   H85       1.0  0.43268  0.49838  0.44133  1.0000 0.4120887226
H   H86       1.0  0.45328  0.63317  0.47242  1.0000 0.416000039
H   H87       1.0  0.41713  0.49703  0.27882  1.0000 0.1306467036
H   H88       1.0  0.36268  0.49959  0.22090  1.0000 0.1122739323
H   H89       1.0  0.14128  0.84268  0.14109  1.0000 0.1408387236
H   H90       1.0  0.20775  0.36236  0.04011  1.0000 0.1306467036
H   H91       1.0  0.26301  0.61178  0.32306  1.0000 0.1306467036
H   H92       1.0  0.21453  0.46694  0.07180  1.0000 0.1122739323
H   H93       1.0  0.20504  0.74630  0.15740  1.0000 0.1122739323
H   H94       1.0  0.26447  0.45608  0.18768  1.0000 0.1122739323
H   H95       1.0  0.17812  0.26315  0.13835  1.0000 0.1306467036
H   H96       1.0  0.14659  0.55207  0.10999  1.0000 0.1122739323
H   H97       1.0  0.18654  0.36713  0.17000  1.0000 0.1122739323
H   H98       1.0  0.04935  0.62368  0.12231  1.0000 0.1122739323
H   H99       1.0  0.98497  0.72003  0.10701  1.0000 0.1306467036
H   H100      1.0  0.21048  0.65499  0.20189  1.0000 0.1122739323
H   H101      1.0  0.20790  0.61272  0.26529  1.0000 0.1122739323
H   H102      1.0  0.19624  0.57118  0.50805  1.0000 0.1220972404
H   H103      1.0  0.26500  0.48283  0.38076  1.0000 0.1408387236
H   H104      1.0  0.23577  0.42078  0.40550  1.0000 0.1220972404
H   H105      1.0  0.31639  0.43752  0.40555  1.0000 0.1408387236
H   H106      1.0  0.56732  0.50162  0.44133  1.0000 0.4120887226
H   H107      1.0  0.54672  0.36683  0.47242  1.0000 0.416000039
H   H108      1.0  0.58287  0.50297  0.27882  1.0000 0.1306467036
H   H109      1.0  0.63732  0.50041  0.22090  1.0000 0.1122739323
H   H110      1.0  0.85872  0.15732  0.14109  1.0000 0.1408387236
H   H111      1.0  0.79225  0.63764  0.04011  1.0000 0.1306467036
H   H112      1.0  0.73699  0.38822  0.32306  1.0000 0.1306467036
H   H113      1.0  0.78547  0.53306  0.07180  1.0000 0.1122739323
H   H114      1.0  0.79496  0.25370  0.15740  1.0000 0.1122739323
H   H115      1.0  0.73553  0.54392  0.18768  1.0000 0.1122739323
H   H116      1.0  0.82188  0.73685  0.13835  1.0000 0.1306467036
H   H117      1.0  0.85341  0.44793  0.10999  1.0000 0.1122739323
H   H118      1.0  0.81346  0.63287  0.17000  1.0000 0.1122739323
H   H119      1.0  0.95065  0.37632  0.12231  1.0000 0.1122739323
H   H120      1.0  0.01503  0.27997  0.10701  1.0000 0.1306467036
H   H121      1.0  0.78952  0.34501  0.20189  1.0000 0.1122739323
H   H122      1.0  0.79210  0.38728  0.26529  1.0000 0.1122739323
H   H123      1.0  0.80376  0.42882  0.50805  1.0000 0.1220972404
H   H124      1.0  0.73500  0.51717  0.38076  1.0000 0.1408387236
H   H125      1.0  0.76423  0.57922  0.40550  1.0000 0.1220972404
H   H126      1.0  0.68361  0.56248  0.40555  1.0000 0.1408387236
H   H127      1.0  0.99838  0.06732  0.94133  1.0000 0.4120887226
H   H128      1.0  0.13317  0.04672  0.97242  1.0000 0.416000039
H   H129      1.0  0.99703  0.08287  0.77882  1.0000 0.1306467036
H   H130      1.0  0.99959  0.13732  0.72090  1.0000 0.1122739323
H   H131      1.0  0.34268  0.35872  0.64109  1.0000 0.1408387236
H   H132      1.0  0.86236  0.29225  0.54011  1.0000 0.1306467036
H   H133      1.0  0.11178  0.23699  0.82306  1.0000 0.1306467036
H   H134      1.0  0.96694  0.28547  0.57180  1.0000 0.1122739323
H   H135      1.0  0.24630  0.29496  0.65740  1.0000 0.1122739323
H   H136      1.0  0.95608  0.23553  0.68768  1.0000 0.1122739323
H   H137      1.0  0.76315  0.32188  0.63835  1.0000 0.1306467036
H   H138      1.0  0.05207  0.35341  0.60999  1.0000 0.1122739323
H   H139      1.0  0.86713  0.31346  0.67000  1.0000 0.1122739323
H   H140      1.0  0.12368  0.45065  0.62231  1.0000 0.1122739323
H   H141      1.0  0.22003  0.51503  0.60701  1.0000 0.1306467036
H   H142      1.0  0.15499  0.28952  0.70189  1.0000 0.1122739323
H   H143      1.0  0.11272  0.29210  0.76529  1.0000 0.1122739323
H   H144      1.0  0.07118  0.30376  0.00805  1.0000 0.1220972404
H   H145      1.0  0.98283  0.23500  0.88076  1.0000 0.1408387236
H   H146      1.0  0.92078  0.26423  0.90550  1.0000 0.1220972404
H   H147      1.0  0.93752  0.18361  0.90555  1.0000 0.1408387236
H   H148      1.0  0.00162  0.93268  0.94133  1.0000 0.4120887226
H   H149      1.0  0.86683  0.95328  0.97242  1.0000 0.416000039
H   H150      1.0  0.00297  0.91713  0.77882  1.0000 0.1306467036
H   H151      1.0  0.00041  0.86268  0.72090  1.0000 0.1122739323
H   H152      1.0  0.65732  0.64128  0.64109  1.0000 0.1408387236
H   H153      1.0  0.13764  0.70775  0.54011  1.0000 0.1306467036
H   H154      1.0  0.88822  0.76301  0.82306  1.0000 0.1306467036
H   H155      1.0  0.03306  0.71453  0.57180  1.0000 0.1122739323
H   H156      1.0  0.75370  0.70504  0.65740  1.0000 0.1122739323
H   H157      1.0  0.04392  0.76447  0.68768  1.0000 0.1122739323
H   H158      1.0  0.23685  0.67812  0.63835  1.0000 0.1306467036
H   H159      1.0  0.94793  0.64659  0.60999  1.0000 0.1122739323
H   H160      1.0  0.13287  0.68654  0.67000  1.0000 0.1122739323
H   H161      1.0  0.87632  0.54935  0.62231  1.0000 0.1122739323
H   H162      1.0  0.77997  0.48497  0.60701  1.0000 0.1306467036
H   H163      1.0  0.84501  0.71048  0.70189  1.0000 0.1122739323
H   H164      1.0  0.88728  0.70790  0.76529  1.0000 0.1122739323
H   H165      1.0  0.92882  0.69624  0.00805  1.0000 0.1220972404
H   H166      1.0  0.01717  0.76500  0.88076  1.0000 0.1408387236
H   H167      1.0  0.07922  0.73577  0.90550  1.0000 0.1220972404
H   H168      1.0  0.06248  0.81639  0.90555  1.0000 0.1408387236
C   C1        1.0  0.11935  0.05352  0.15649  1.0000 0.6200756163
C   C2        1.0  0.15440  0.05437  0.19358  1.0000 -0.0486928661
C   C3        1.0  0.29900  0.92816  0.37550  1.0000 0.0735848375
C   C4        1.0  0.12520  0.02085  0.22398  1.0000 -0.0991592572
C   C5        1.0  0.48624  0.35279  0.38588  1.0000 0.6200756163
C   C6        1.0  0.15790  0.02210  0.25837  1.0000 -0.1496698359
C   C7        1.0  0.31710  0.73547  0.43338  1.0000 0.6200756163
C   C8        1.0  0.44381  0.29098  0.37678  1.0000 -0.0409852123
C   C9        1.0  0.25670  0.05588  0.29928  1.0000 0.078531283
C   C10       1.0  0.37775  0.29808  0.36229  1.0000 -0.0991592572
C   C11       1.0  0.29700  0.86352  0.43349  1.0000 -0.0991592572
C   C12       1.0  0.30823  0.80322  0.41387  1.0000 -0.0409852123
C   C13       1.0  0.21690  0.08880  0.19766  1.0000 -0.0991592572
C   C14       1.0  0.29410  0.99326  0.35472  1.0000 0.078531283
C   C15       1.0  0.22030  0.05602  0.26294  1.0000 0.078531283
C   C16       1.0  0.29270  0.92563  0.41458  1.0000 -0.1496698359
C   C17       1.0  0.33970  0.24079  0.35280  1.0000 -0.1496698359
C   C18       1.0  0.25880  0.99600  0.32093  1.0000 -0.2082817876
C   C19       1.0  0.31440  0.80458  0.37514  1.0000 -0.0991592572
C   C20       1.0  0.32880  0.05296  0.36707  1.0000 -0.2082817876
C   C21       1.0  0.30950  0.86651  0.35645  1.0000 -0.1496698359
C   C22       1.0  0.43200  0.16820  0.37344  1.0000 -0.143710065
C   C23       1.0  0.36650  0.17445  0.35804  1.0000 0.078531283
C   C24       1.0  0.47030  0.22540  0.38263  1.0000 -0.0949238831
C   C25       1.0  0.29090  0.11382  0.31239  1.0000 -0.2048725278
C   C26       1.0  0.32730  0.11309  0.34593  1.0000 0.078531283
C   C27       1.0  0.24940  0.08940  0.23202  1.0000 -0.1496698359
C   C28       1.0  0.23980  0.00510  0.06403  1.0000 0.2393483116
C   C29       1.0  0.29050  0.00470  0.03664  1.0000 -0.0574869279
C   C30       1.0  0.27730  0.05910  0.01328  1.0000 -0.0343392896
C   C31       1.0  0.22980  0.95760  0.09572  1.0000 -0.4683075169
C   C32       1.0  0.88065  0.94648  0.15649  1.0000 0.6200756163
C   C33       1.0  0.84560  0.94563  0.19358  1.0000 -0.0486928661
C   C34       1.0  0.70100  0.07184  0.37550  1.0000 0.0735848375
C   C35       1.0  0.87480  0.97915  0.22398  1.0000 -0.0991592572
C   C36       1.0  0.51376  0.64721  0.38588  1.0000 0.6200756163
C   C37       1.0  0.84210  0.97790  0.25837  1.0000 -0.1496698359
C   C38       1.0  0.68290  0.26453  0.43338  1.0000 0.6200756163
C   C39       1.0  0.55619  0.70902  0.37678  1.0000 -0.0409852123
C   C40       1.0  0.74330  0.94412  0.29928  1.0000 0.078531283
C   C41       1.0  0.62225  0.70192  0.36229  1.0000 -0.0991592572
C   C42       1.0  0.70300  0.13648  0.43349  1.0000 -0.0991592572
C   C43       1.0  0.69177  0.19678  0.41387  1.0000 -0.0409852123
C   C44       1.0  0.78310  0.91120  0.19766  1.0000 -0.0991592572
C   C45       1.0  0.70590  0.00674  0.35472  1.0000 0.078531283
C   C46       1.0  0.77970  0.94398  0.26294  1.0000 0.078531283
C   C47       1.0  0.70730  0.07437  0.41458  1.0000 -0.1496698359
C   C48       1.0  0.66030  0.75921  0.35280  1.0000 -0.1496698359
C   C49       1.0  0.74120  0.00400  0.32093  1.0000 -0.2048725278
C   C50       1.0  0.68560  0.19542  0.37514  1.0000 -0.0991592572
C   C51       1.0  0.67120  0.94704  0.36707  1.0000 -0.2082817876
C   C52       1.0  0.69050  0.13349  0.35645  1.0000 -0.1496698359
C   C53       1.0  0.56800  0.83180  0.37344  1.0000 -0.143710065
C   C54       1.0  0.63350  0.82555  0.35804  1.0000 0.078531283
C   C55       1.0  0.52970  0.77460  0.38263  1.0000 -0.0991592572
C   C56       1.0  0.70910  0.88618  0.31239  1.0000 -0.2048725278
C   C57       1.0  0.67270  0.88691  0.34593  1.0000 0.078531283
C   C58       1.0  0.75060  0.91060  0.23202  1.0000 -0.1496698359
C   C59       1.0  0.76020  0.99490  0.06403  1.0000 0.2393483116
C   C60       1.0  0.70950  0.99530  0.03664  1.0000 -0.0574869279
C   C61       1.0  0.72270  0.94090  0.01328  1.0000 -0.0343392896
C   C62       1.0  0.77020  0.04240  0.09572  1.0000 -0.4683075169
C   C63       1.0  0.44648  0.61935  0.65649  1.0000 0.6200756163
C   C64       1.0  0.44563  0.65440  0.69358  1.0000 -0.0486928661
C   C65       1.0  0.57184  0.79900  0.87550  1.0000 0.0735848375
C   C66       1.0  0.47915  0.62520  0.72398  1.0000 -0.0991592572
C   C67       1.0  0.14721  0.98624  0.88588  1.0000 0.6200756163
C   C68       1.0  0.47790  0.65790  0.75837  1.0000 -0.1496698359
C   C69       1.0  0.76453  0.81710  0.93338  1.0000 0.6200756163
C   C70       1.0  0.20902  0.94381  0.87678  1.0000 -0.0409852123
C   C71       1.0  0.44412  0.75670  0.79928  1.0000 0.078531283
C   C72       1.0  0.20192  0.87775  0.86229  1.0000 -0.0991592572
C   C73       1.0  0.63648  0.79700  0.93349  1.0000 -0.0991592572
C   C74       1.0  0.69678  0.80823  0.91387  1.0000 -0.0409852123
C   C75       1.0  0.41120  0.71690  0.69766  1.0000 -0.0991592572
C   C76       1.0  0.50674  0.79410  0.85472  1.0000 0.078531283
C   C77       1.0  0.44398  0.72030  0.76294  1.0000 0.078531283
C   C78       1.0  0.57437  0.79270  0.91458  1.0000 -0.1496698359
C   C79       1.0  0.25921  0.83970  0.85280  1.0000 -0.1496698359
C   C80       1.0  0.50400  0.75880  0.82093  1.0000 -0.2048725278
C   C81       1.0  0.69542  0.81440  0.87514  1.0000 -0.0991592572
C   C82       1.0  0.44704  0.82880  0.86707  1.0000 -0.2082817876
C   C83       1.0  0.63349  0.80950  0.85645  1.0000 -0.1496698359
C   C84       1.0  0.33180  0.93200  0.87344  1.0000 -0.143710065
C   C85       1.0  0.32555  0.86650  0.85804  1.0000 0.078531283
C   C86       1.0  0.27460  0.97030  0.88263  1.0000 -0.0949238831
C   C87       1.0  0.38618  0.79090  0.81239  1.0000 -0.2048725278
C   C88       1.0  0.38691  0.82730  0.84593  1.0000 0.078531283
C   C89       1.0  0.41060  0.74940  0.73202  1.0000 -0.1496698359
C   C90       1.0  0.49490  0.73980  0.56403  1.0000 0.2393483116
C   C91       1.0  0.49530  0.79050  0.53664  1.0000 -0.0574869279
C   C92       1.0  0.44090  0.77730  0.51328  1.0000 -0.0343392896
C   C93       1.0  0.54240  0.72980  0.59572  1.0000 -0.4683075169
C   C94       1.0  0.55352  0.38065  0.65649  1.0000 0.6200756163
C   C95       1.0  0.55437  0.34560  0.69358  1.0000 -0.0486928661
C   C96       1.0  0.42816  0.20100  0.87550  1.0000 0.0735848375
C   C97       1.0  0.52085  0.37480  0.72398  1.0000 -0.0991592572
C   C98       1.0  0.85279  0.01376  0.88588  1.0000 0.6200756163
C   C99       1.0  0.52210  0.34210  0.75837  1.0000 -0.1496698359
C   C100      1.0  0.23547  0.18290  0.93338  1.0000 0.6200756163
C   C101      1.0  0.79098  0.05619  0.87678  1.0000 -0.0409852123
C   C102      1.0  0.55588  0.24330  0.79928  1.0000 0.078531283
C   C103      1.0  0.79808  0.12225  0.86229  1.0000 -0.0991592572
C   C104      1.0  0.36352  0.20300  0.93349  1.0000 -0.0991592572
C   C105      1.0  0.30322  0.19177  0.91387  1.0000 -0.0409852123
C   C106      1.0  0.58880  0.28310  0.69766  1.0000 -0.0991592572
C   C107      1.0  0.49326  0.20590  0.85472  1.0000 0.078531283
C   C108      1.0  0.55602  0.27970  0.76294  1.0000 0.078531283
C   C109      1.0  0.42563  0.20730  0.91458  1.0000 -0.1496698359
C   C110      1.0  0.74079  0.16030  0.85280  1.0000 -0.1496698359
C   C111      1.0  0.49600  0.24120  0.82093  1.0000 -0.2048725278
C   C112      1.0  0.30458  0.18560  0.87514  1.0000 -0.0991592572
C   C113      1.0  0.55296  0.17120  0.86707  1.0000 -0.2082817876
C   C114      1.0  0.36651  0.19050  0.85645  1.0000 -0.1496698359
C   C115      1.0  0.66820  0.06800  0.87344  1.0000 -0.143710065
C   C116      1.0  0.67445  0.13350  0.85804  1.0000 0.078531283
C   C117      1.0  0.72540  0.02970  0.88263  1.0000 -0.0949238831
C   C118      1.0  0.61382  0.20910  0.81239  1.0000 -0.2048725278
C   C119      1.0  0.61309  0.17270  0.84593  1.0000 0.078531283
C   C120      1.0  0.58940  0.25060  0.73202  1.0000 -0.1496698359
C   C121      1.0  0.50510  0.26020  0.56403  1.0000 0.2393483116
C   C122      1.0  0.50470  0.20950  0.53664  1.0000 -0.0574869279
C   C123      1.0  0.55910  0.22270  0.51328  1.0000 -0.0343392896
C   C124      1.0  0.45760  0.27020  0.59572  1.0000 -0.4683075169
C   C125      1.0  0.38065  0.55352  0.34351  1.0000 0.6200756163
C   C126      1.0  0.34560  0.55437  0.30642  1.0000 -0.0486928661
C   C127      1.0  0.20100  0.42816  0.12450  1.0000 0.0735848375
C   C128      1.0  0.37480  0.52085  0.27602  1.0000 -0.0991592572
C   C129      1.0  0.01376  0.85279  0.11412  1.0000 0.6200756163
C   C130      1.0  0.34210  0.52210  0.24163  1.0000 -0.1496698359
C   C131      1.0  0.18290  0.23547  0.06662  1.0000 0.6200756163
C   C132      1.0  0.05619  0.79098  0.12322  1.0000 -0.0409852123
C   C133      1.0  0.24330  0.55588  0.20072  1.0000 0.078531283
C   C134      1.0  0.12225  0.79808  0.13771  1.0000 -0.0991592572
C   C135      1.0  0.20300  0.36352  0.06651  1.0000 -0.0991592572
C   C136      1.0  0.19177  0.30322  0.08613  1.0000 -0.0409852123
C   C137      1.0  0.28310  0.58880  0.30234  1.0000 -0.0991592572
C   C138      1.0  0.20590  0.49326  0.14528  1.0000 0.078531283
C   C139      1.0  0.27970  0.55602  0.23706  1.0000 0.078531283
C   C140      1.0  0.20730  0.42563  0.08542  1.0000 -0.1496698359
C   C141      1.0  0.16030  0.74079  0.14720  1.0000 -0.1496698359
C   C142      1.0  0.24120  0.49600  0.17907  1.0000 -0.2048725278
C   C143      1.0  0.18560  0.30458  0.12486  1.0000 -0.0991592572
C   C144      1.0  0.17120  0.55296  0.13293  1.0000 -0.2082817876
C   C145      1.0  0.19050  0.36651  0.14355  1.0000 -0.1496698359
C   C146      1.0  0.06800  0.66820  0.12656  1.0000 -0.143710065
C   C147      1.0  0.13350  0.67445  0.14196  1.0000 0.078531283
C   C148      1.0  0.02970  0.72540  0.11737  1.0000 -0.0949238831
C   C149      1.0  0.20910  0.61382  0.18761  1.0000 -0.2048725278
C   C150      1.0  0.17270  0.61309  0.15407  1.0000 0.078531283
C   C151      1.0  0.25060  0.58940  0.26798  1.0000 -0.1496698359
C   C152      1.0  0.26020  0.50510  0.43597  1.0000 0.2393483116
C   C153      1.0  0.20950  0.50470  0.46336  1.0000 -0.0574869279
C   C154      1.0  0.22270  0.55910  0.48672  1.0000 -0.0343392896
C   C155      1.0  0.27020  0.45760  0.40428  1.0000 -0.4683075169
C   C156      1.0  0.61935  0.44648  0.34351  1.0000 0.6200756163
C   C157      1.0  0.65440  0.44563  0.30642  1.0000 -0.0486928661
C   C158      1.0  0.79900  0.57184  0.12450  1.0000 0.0735848375
C   C159      1.0  0.62520  0.47915  0.27602  1.0000 -0.0991592572
C   C160      1.0  0.98624  0.14721  0.11412  1.0000 0.6200756163
C   C161      1.0  0.65790  0.47790  0.24163  1.0000 -0.1496698359
C   C162      1.0  0.81710  0.76453  0.06662  1.0000 0.6200756163
C   C163      1.0  0.94381  0.20902  0.12322  1.0000 -0.0409852123
C   C164      1.0  0.75670  0.44412  0.20072  1.0000 0.078531283
C   C165      1.0  0.87775  0.20192  0.13771  1.0000 -0.0991592572
C   C166      1.0  0.79700  0.63648  0.06651  1.0000 -0.0991592572
C   C167      1.0  0.80823  0.69678  0.08613  1.0000 -0.0409852123
C   C168      1.0  0.71690  0.41120  0.30234  1.0000 -0.0991592572
C   C169      1.0  0.79410  0.50674  0.14528  1.0000 0.078531283
C   C170      1.0  0.72030  0.44398  0.23706  1.0000 0.078531283
C   C171      1.0  0.79270  0.57437  0.08542  1.0000 -0.1496698359
C   C172      1.0  0.83970  0.25921  0.14720  1.0000 -0.1496698359
C   C173      1.0  0.75880  0.50400  0.17907  1.0000 -0.2048725278
C   C174      1.0  0.81440  0.69542  0.12486  1.0000 -0.0991592572
C   C175      1.0  0.82880  0.44704  0.13293  1.0000 -0.2082817876
C   C176      1.0  0.80950  0.63349  0.14355  1.0000 -0.1496698359
C   C177      1.0  0.93200  0.33180  0.12656  1.0000 -0.143710065
C   C178      1.0  0.86650  0.32555  0.14196  1.0000 0.078531283
C   C179      1.0  0.97030  0.27460  0.11737  1.0000 -0.0949238831
C   C180      1.0  0.79090  0.38618  0.18761  1.0000 -0.2048725278
C   C181      1.0  0.82730  0.38691  0.15407  1.0000 0.078531283
C   C182      1.0  0.74940  0.41060  0.26798  1.0000 -0.1496698359
C   C183      1.0  0.73980  0.49490  0.43597  1.0000 0.2393483116
C   C184      1.0  0.79050  0.49530  0.46336  1.0000 -0.0574869279
C   C185      1.0  0.77730  0.44090  0.48672  1.0000 -0.0343392896
C   C186      1.0  0.72980  0.54240  0.40428  1.0000 -0.4683075169
C   C187      1.0  0.05352  0.11935  0.84351  1.0000 0.6200756163
C   C188      1.0  0.05437  0.15440  0.80642  1.0000 -0.0486928661
C   C189      1.0  0.92816  0.29900  0.62450  1.0000 0.0735848375
C   C190      1.0  0.02085  0.12520  0.77602  1.0000 -0.0991592572
C   C191      1.0  0.35279  0.48624  0.61412  1.0000 0.6200756163
C   C192      1.0  0.02210  0.15790  0.74163  1.0000 -0.1496698359
C   C193      1.0  0.73547  0.31710  0.56662  1.0000 0.6200756163
C   C194      1.0  0.29098  0.44381  0.62322  1.0000 -0.0409852123
C   C195      1.0  0.05588  0.25670  0.70072  1.0000 0.078531283
C   C196      1.0  0.29808  0.37775  0.63771  1.0000 -0.0991592572
C   C197      1.0  0.86352  0.29700  0.56651  1.0000 -0.0991592572
C   C198      1.0  0.80322  0.30823  0.58613  1.0000 -0.0409852123
C   C199      1.0  0.08880  0.21690  0.80234  1.0000 -0.0991592572
C   C200      1.0  0.99326  0.29410  0.64528  1.0000 0.078531283
C   C201      1.0  0.05602  0.22030  0.73706  1.0000 0.078531283
C   C202      1.0  0.92563  0.29270  0.58542  1.0000 -0.1496698359
C   C203      1.0  0.24079  0.33970  0.64720  1.0000 -0.1496698359
C   C204      1.0  0.99600  0.25880  0.67907  1.0000 -0.2048725278
C   C205      1.0  0.80458  0.31440  0.62486  1.0000 -0.0991592572
C   C206      1.0  0.05296  0.32880  0.63293  1.0000 -0.2082817876
C   C207      1.0  0.86651  0.30950  0.64355  1.0000 -0.1496698359
C   C208      1.0  0.16820  0.43200  0.62656  1.0000 -0.143710065
C   C209      1.0  0.17445  0.36650  0.64196  1.0000 0.078531283
C   C210      1.0  0.22540  0.47030  0.61737  1.0000 -0.0991592572
C   C211      1.0  0.11382  0.29090  0.68761  1.0000 -0.2048725278
C   C212      1.0  0.11309  0.32730  0.65407  1.0000 0.078531283
C   C213      1.0  0.08940  0.24940  0.76798  1.0000 -0.1496698359
C   C214      1.0  0.00510  0.23980  0.93597  1.0000 0.2393483116
C   C215      1.0  0.00470  0.29050  0.96336  1.0000 -0.0574869279
C   C216      1.0  0.05910  0.27730  0.98672  1.0000 -0.0343392896
C   C217      1.0  0.95760  0.22980  0.90428  1.0000 -0.4683075169
C   C218      1.0  0.94648  0.88065  0.84351  1.0000 0.6200756163
C   C219      1.0  0.94563  0.84560  0.80642  1.0000 -0.0486928661
C   C220      1.0  0.07184  0.70100  0.62450  1.0000 0.0735848375
C   C221      1.0  0.97915  0.87480  0.77602  1.0000 -0.0991592572
C   C222      1.0  0.64721  0.51376  0.61412  1.0000 0.6200756163
C   C223      1.0  0.97790  0.84210  0.74163  1.0000 -0.1496698359
C   C224      1.0  0.26453  0.68290  0.56662  1.0000 0.6200756163
C   C225      1.0  0.70902  0.55619  0.62322  1.0000 -0.0409852123
C   C226      1.0  0.94412  0.74330  0.70072  1.0000 0.078531283
C   C227      1.0  0.70192  0.62225  0.63771  1.0000 -0.0991592572
C   C228      1.0  0.13648  0.70300  0.56651  1.0000 -0.0991592572
C   C229      1.0  0.19678  0.69177  0.58613  1.0000 -0.0409852123
C   C230      1.0  0.91120  0.78310  0.80234  1.0000 -0.0991592572
C   C231      1.0  0.00674  0.70590  0.64528  1.0000 0.078531283
C   C232      1.0  0.94398  0.77970  0.73706  1.0000 0.078531283
C   C233      1.0  0.07437  0.70730  0.58542  1.0000 -0.1496698359
C   C234      1.0  0.75921  0.66030  0.64720  1.0000 -0.1496698359
C   C235      1.0  0.00400  0.74120  0.67907  1.0000 -0.2048725278
C   C236      1.0  0.19542  0.68560  0.62486  1.0000 -0.0991592572
C   C237      1.0  0.94704  0.67120  0.63293  1.0000 -0.2082817876
C   C238      1.0  0.13349  0.69050  0.64355  1.0000 -0.1496698359
C   C239      1.0  0.83180  0.56800  0.62656  1.0000 -0.143710065
C   C240      1.0  0.82555  0.63350  0.64196  1.0000 0.078531283
C   C241      1.0  0.77460  0.52970  0.61737  1.0000 -0.0949238831
C   C242      1.0  0.88618  0.70910  0.68761  1.0000 -0.2048725278
C   C243      1.0  0.88691  0.67270  0.65407  1.0000 0.078531283
C   C244      1.0  0.91060  0.75060  0.76798  1.0000 -0.1496698359
C   C245      1.0  0.99490  0.76020  0.93597  1.0000 0.2393483116
C   C246      1.0  0.99530  0.70950  0.96336  1.0000 -0.0574869279
C   C247      1.0  0.94090  0.72270  0.98672  1.0000 -0.0343392896
C   C248      1.0  0.04240  0.77020  0.90428  1.0000 -0.4683075169
Br  Br1       1.0  0.36168  0.94028  0.03177  1.0000 -0.0409852123
Br  Br2       1.0  0.63832  0.05972  0.03177  1.0000 -0.0343392896
Br  Br3       1.0  0.55972  0.86168  0.53177  1.0000 -0.0409852123
Br  Br4       1.0  0.44028  0.13832  0.53177  1.0000 -0.0409852123
Br  Br5       1.0  0.13832  0.44028  0.46823  1.0000 -0.0409852123
Br  Br6       1.0  0.86168  0.55972  0.46823  1.0000 -0.0409852123
Br  Br7       1.0  0.94028  0.36168  0.96823  1.0000 -0.0409852123
Br  Br8       1.0  0.05972  0.63832  0.96823  1.0000 -0.0409852123
N   N1        1.0  0.19817  0.05790  0.05714  1.0000 -0.301777094
N   N2        1.0  0.22188  0.09222  0.02513  1.0000 -0.2082817876
N   N3        1.0  0.80183  0.94210  0.05714  1.0000 -0.301777094
N   N4        1.0  0.77812  0.90778  0.02513  1.0000 -0.2082817876
N   N5        1.0  0.44210  0.69817  0.55714  1.0000 -0.301777094
N   N6        1.0  0.40778  0.72188  0.52513  1.0000 -0.2082817876
N   N7        1.0  0.55790  0.30183  0.55714  1.0000 -0.301777094
N   N8        1.0  0.59222  0.27812  0.52513  1.0000 -0.2082817876
N   N9        1.0  0.30183  0.55790  0.44286  1.0000 -0.301777094
N   N10       1.0  0.27812  0.59222  0.47487  1.0000 -0.2048725278
N   N11       1.0  0.69817  0.44210  0.44286  1.0000 -0.301777094
N   N12       1.0  0.72188  0.40778  0.47487  1.0000 -0.2048725278
N   N13       1.0  0.05790  0.19817  0.94286  1.0000 -0.301777094
N   N14       1.0  0.09222  0.22188  0.97487  1.0000 -0.2082817876
N   N15       1.0  0.94210  0.80183  0.94286  1.0000 -0.301777094
N   N16       1.0  0.90778  0.77812  0.97487  1.0000 -0.2082817876
O   O1        1.0  0.06311  0.02703  0.08005  1.0000 -0.9984366739
O   O2        1.0  0.06047  0.02601  0.15500  1.0000 -0.5936901787
O   O3        1.0  0.09394  0.13254  0.03443  1.0000 -0.9761378262
O   O4        1.0  0.15054  0.08075  0.12969  1.0000 -0.5710039331
O   O5        1.0  0.54662  0.34182  0.39675  1.0000 -0.5793460751
O   O6        1.0  0.32699  0.68433  0.41284  1.0000 -0.5710039331
O   O7        1.0  0.45846  0.41133  0.38185  1.0000 -0.5936901787
O   O8        1.0  0.31538  0.73485  0.46859  1.0000 -0.5710039331
O   O9        1.0  0.93689  0.97297  0.08005  1.0000 -0.9984366739
O   O10       1.0  0.93953  0.97399  0.15500  1.0000 -0.5936901787
O   O11       1.0  0.90606  0.86746  0.03443  1.0000 -0.9761378262
O   O12       1.0  0.84946  0.91925  0.12969  1.0000 -0.5710039331
O   O13       1.0  0.45338  0.65818  0.39675  1.0000 -0.5793460751
O   O14       1.0  0.67301  0.31567  0.41284  1.0000 -0.5710039331
O   O15       1.0  0.54154  0.58867  0.38185  1.0000 -0.5936901787
O   O16       1.0  0.68462  0.26515  0.46859  1.0000 -0.5710039331
O   O17       1.0  0.47297  0.56311  0.58005  1.0000 -0.9984366739
O   O18       1.0  0.47399  0.56047  0.65500  1.0000 -0.5936901787
O   O19       1.0  0.36746  0.59394  0.53443  1.0000 -0.9744263881
O   O20       1.0  0.41925  0.65054  0.62969  1.0000 -0.5710039331
O   O21       1.0  0.15818  0.04662  0.89675  1.0000 -0.5793460751
O   O22       1.0  0.81567  0.82699  0.91284  1.0000 -0.5710039331
O   O23       1.0  0.08867  0.95846  0.88185  1.0000 -0.5936901787
O   O24       1.0  0.76515  0.81538  0.96859  1.0000 -0.5710039331
O   O25       1.0  0.52703  0.43689  0.58005  1.0000 -0.9984366739
O   O26       1.0  0.52601  0.43953  0.65500  1.0000 -0.5936901787
O   O27       1.0  0.63254  0.40606  0.53443  1.0000 -0.9744263881
O   O28       1.0  0.58075  0.34946  0.62969  1.0000 -0.5710039331
O   O29       1.0  0.84182  0.95338  0.89675  1.0000 -0.5793460751
O   O30       1.0  0.18433  0.17301  0.91284  1.0000 -0.5710039331
O   O31       1.0  0.91133  0.04154  0.88185  1.0000 -0.5936901787
O   O32       1.0  0.23485  0.18462  0.96859  1.0000 -0.5710039331
O   O33       1.0  0.43689  0.52703  0.41995  1.0000 -0.9984366739
O   O34       1.0  0.43953  0.52601  0.34500  1.0000 -0.5936901787
O   O35       1.0  0.40606  0.63254  0.46557  1.0000 -0.9761378262
O   O36       1.0  0.34946  0.58075  0.37031  1.0000 -0.5710039331
O   O37       1.0  0.95338  0.84182  0.10325  1.0000 -0.5793460751
O   O38       1.0  0.17301  0.18433  0.08716  1.0000 -0.5710039331
O   O39       1.0  0.04154  0.91133  0.11815  1.0000 -0.5936901787
O   O40       1.0  0.18462  0.23485  0.03141  1.0000 -0.5710039331
O   O41       1.0  0.56311  0.47297  0.41995  1.0000 -0.9984366739
O   O42       1.0  0.56047  0.47399  0.34500  1.0000 -0.5936901787
O   O43       1.0  0.59394  0.36746  0.46557  1.0000 -0.9761378262
O   O44       1.0  0.65054  0.41925  0.37031  1.0000 -0.5710039331
O   O45       1.0  0.04662  0.15818  0.10325  1.0000 -0.5793460751
O   O46       1.0  0.82699  0.81567  0.08716  1.0000 -0.5710039331
O   O47       1.0  0.95846  0.08867  0.11815  1.0000 -0.5936901787
O   O48       1.0  0.81538  0.76515  0.03141  1.0000 -0.5710039331
O   O49       1.0  0.02703  0.06311  0.91995  1.0000 -0.9984366739
O   O50       1.0  0.02601  0.06047  0.84500  1.0000 -0.5936901787
O   O51       1.0  0.13254  0.09394  0.96557  1.0000 -0.9761378262
O   O52       1.0  0.08075  0.15054  0.87031  1.0000 -0.5710039331
O   O53       1.0  0.34182  0.54662  0.60325  1.0000 -0.5793460751
O   O54       1.0  0.68433  0.32699  0.58716  1.0000 -0.5710039331
O   O55       1.0  0.41133  0.45846  0.61815  1.0000 -0.5936901787
O   O56       1.0  0.73485  0.31538  0.53141  1.0000 -0.5710039331
O   O57       1.0  0.97297  0.93689  0.91995  1.0000 -0.9984366739
O   O58       1.0  0.97399  0.93953  0.84500  1.0000 -0.5936901787
O   O59       1.0  0.86746  0.90606  0.96557  1.0000 -0.9761378262
O   O60       1.0  0.91925  0.84946  0.87031  1.0000 -0.5710039331
O   O61       1.0  0.65818  0.45338  0.60325  1.0000 -0.5793460751
O   O62       1.0  0.31567  0.67301  0.58716  1.0000 -0.5710039331
O   O63       1.0  0.58867  0.54154  0.61815  1.0000 -0.5936901787
O   O64       1.0  0.26515  0.68462  0.53141  1.0000 -0.5710039331
