# DDEC6 charges by PACMAN v1.1 (https://github.com/mtap-research/PACMAN-charge/)
data_cm6b02817_si_003_FSR_pacman
_symmetry_space_group_name_H-M   'P 1'
_cell_length_a   22.45300000
_cell_length_b   22.45300000
_cell_length_c   22.45300000
_cell_angle_alpha   90.00000000
_cell_angle_beta   90.00000000
_cell_angle_gamma   90.00000000
_symmetry_Int_Tables_number   1
_chemical_formula_structural   In24H72C192Br7.92N24O120.08
_chemical_formula_sum   'In24 H72 C192 Br7.92 N24 O120.08'
_cell_volume   11319.39275368
_cell_formula_units_Z   1
loop_
 _symmetry_equiv_pos_site_id
 _symmetry_equiv_pos_as_xyz
  1  'x, y, z'
loop_
 _atom_site_type_symbol
 _atom_site_label
 _atom_site_symmetry_multiplicity
 _atom_site_fract_x
 _atom_site_fract_y
 _atom_site_fract_z
 _atom_site_occupancy
 _atom_site_charge
In  In1  1  0.32230000  0.73916000  0.80633000  1.0 1.3229003824
In  In2  1  0.67770000  0.26084000  0.80633000  1.0 1.3229003824
In  In3  1  0.67770000  0.73916000  0.19367000  1.0 1.3229003824
In  In4  1  0.32230000  0.26084000  0.19367000  1.0 1.3229003824
In  In5  1  0.80633000  0.32230000  0.73916000  1.0 1.3229003824
In  In6  1  0.80633000  0.67770000  0.26084000  1.0 1.3229003824
In  In7  1  0.19367000  0.67770000  0.73916000  1.0 1.3229003824
In  In8  1  0.19367000  0.32230000  0.26084000  1.0 1.3229003824
In  In9  1  0.73916000  0.80633000  0.32230000  1.0 1.3229003824
In  In10  1  0.26084000  0.80633000  0.67770000  1.0 1.3229003824
In  In11  1  0.73916000  0.19367000  0.67770000  1.0 1.3229003824
In  In12  1  0.26084000  0.19367000  0.32230000  1.0 1.3229003824
In  In13  1  0.23916000  0.82230000  0.30633000  1.0 1.3229003824
In  In14  1  0.76084000  0.17770000  0.30633000  1.0 1.3229003824
In  In15  1  0.23916000  0.17770000  0.69367000  1.0 1.3229003824
In  In16  1  0.76084000  0.82230000  0.69367000  1.0 1.3229003824
In  In17  1  0.82230000  0.30633000  0.23916000  1.0 1.3229003824
In  In18  1  0.17770000  0.30633000  0.76084000  1.0 1.3229003824
In  In19  1  0.17770000  0.69367000  0.23916000  1.0 1.3229003824
In  In20  1  0.82230000  0.69367000  0.76084000  1.0 1.3229003824
In  In21  1  0.30633000  0.23916000  0.82230000  1.0 1.3229003824
In  In22  1  0.30633000  0.76084000  0.17770000  1.0 1.3229003824
In  In23  1  0.69367000  0.23916000  0.17770000  1.0 1.3229003824
In  In24  1  0.69367000  0.76084000  0.82230000  1.0 1.3229003824
H  H1  1  0.42570000  0.79670000  0.58190000  1.0 0.1202996773
H  H2  1  0.57430000  0.20330000  0.58190000  1.0 0.1202996773
H  H3  1  0.57430000  0.79670000  0.41810000  1.0 0.1202996773
H  H4  1  0.42570000  0.20330000  0.41810000  1.0 0.1202996773
H  H5  1  0.58190000  0.42570000  0.79670000  1.0 0.1202996773
H  H6  1  0.58190000  0.57430000  0.20330000  1.0 0.1202996773
H  H7  1  0.41810000  0.57430000  0.79670000  1.0 0.1202996773
H  H8  1  0.41810000  0.42570000  0.20330000  1.0 0.1202996773
H  H9  1  0.79670000  0.58190000  0.42570000  1.0 0.1202996773
H  H10  1  0.20330000  0.58190000  0.57430000  1.0 0.1202996773
H  H11  1  0.79670000  0.41810000  0.57430000  1.0 0.1202996773
H  H12  1  0.20330000  0.41810000  0.42570000  1.0 0.1202996773
H  H13  1  0.29670000  0.92570000  0.08190000  1.0 0.1202996773
H  H14  1  0.70330000  0.07430000  0.08190000  1.0 0.1202996773
H  H15  1  0.29670000  0.07430000  0.91810000  1.0 0.1202996773
H  H16  1  0.70330000  0.92570000  0.91810000  1.0 0.1202996773
H  H17  1  0.92570000  0.08190000  0.29670000  1.0 0.1202996773
H  H18  1  0.07430000  0.08190000  0.70330000  1.0 0.1202996773
H  H19  1  0.07430000  0.91810000  0.29670000  1.0 0.1202996773
H  H20  1  0.92570000  0.91810000  0.70330000  1.0 0.1202996773
H  H21  1  0.08190000  0.29670000  0.92570000  1.0 0.1202996773
H  H22  1  0.08190000  0.70330000  0.07430000  1.0 0.1202996773
H  H23  1  0.91810000  0.29670000  0.07430000  1.0 0.1202996773
H  H24  1  0.91810000  0.70330000  0.92570000  1.0 0.1202996773
H  H25  1  0.50950000  0.78050000  0.74130000  1.0 0.1202996773
H  H26  1  0.49050000  0.21950000  0.74130000  1.0 0.1202996773
H  H27  1  0.49050000  0.78050000  0.25870000  1.0 0.1202996773
H  H28  1  0.50950000  0.21950000  0.25870000  1.0 0.1202996773
H  H29  1  0.74130000  0.50950000  0.78050000  1.0 0.1202996773
H  H30  1  0.74130000  0.49050000  0.21950000  1.0 0.1202996773
H  H31  1  0.25870000  0.49050000  0.78050000  1.0 0.1202996773
H  H32  1  0.25870000  0.50950000  0.21950000  1.0 0.1202996773
H  H33  1  0.78050000  0.74130000  0.50950000  1.0 0.1202996773
H  H34  1  0.21950000  0.74130000  0.49050000  1.0 0.1202996773
H  H35  1  0.78050000  0.25870000  0.49050000  1.0 0.1202996773
H  H36  1  0.21950000  0.25870000  0.50950000  1.0 0.1202996773
H  H37  1  0.28050000  0.00950000  0.24130000  1.0 0.1202996773
H  H38  1  0.71950000  0.99050000  0.24130000  1.0 0.1202996773
H  H39  1  0.28050000  0.99050000  0.75870000  1.0 0.1202996773
H  H40  1  0.71950000  0.00950000  0.75870000  1.0 0.1202996773
H  H41  1  0.00950000  0.24130000  0.28050000  1.0 0.1202996773
H  H42  1  0.99050000  0.24130000  0.71950000  1.0 0.1202996773
H  H43  1  0.99050000  0.75870000  0.28050000  1.0 0.1202996773
H  H44  1  0.00950000  0.75870000  0.71950000  1.0 0.1202996773
H  H45  1  0.24130000  0.28050000  0.00950000  1.0 0.1202996773
H  H46  1  0.24130000  0.71950000  0.99050000  1.0 0.1202996773
H  H47  1  0.75870000  0.28050000  0.99050000  1.0 0.1202996773
H  H48  1  0.75870000  0.71950000  0.00950000  1.0 0.1202996773
H  H49  1  0.60520000  0.80810000  0.59070000  1.0 0.1263012858
H  H50  1  0.39480000  0.19190000  0.59070000  1.0 0.1263012858
H  H51  1  0.39480000  0.80810000  0.40930000  1.0 0.1263012858
H  H52  1  0.60520000  0.19190000  0.40930000  1.0 0.1263012858
H  H53  1  0.59070000  0.60520000  0.80810000  1.0 0.1263012858
H  H54  1  0.59070000  0.39480000  0.19190000  1.0 0.1263012858
H  H55  1  0.40930000  0.39480000  0.80810000  1.0 0.1263012858
H  H56  1  0.40930000  0.60520000  0.19190000  1.0 0.1263012858
H  H57  1  0.80810000  0.59070000  0.60520000  1.0 0.1263012858
H  H58  1  0.19190000  0.59070000  0.39480000  1.0 0.1263012858
H  H59  1  0.80810000  0.40930000  0.39480000  1.0 0.1263012858
H  H60  1  0.19190000  0.40930000  0.60520000  1.0 0.1263012858
H  H61  1  0.30810000  0.10520000  0.09070000  1.0 0.1263012858
H  H62  1  0.69190000  0.89480000  0.09070000  1.0 0.1263012858
H  H63  1  0.30810000  0.89480000  0.90930000  1.0 0.1263012858
H  H64  1  0.69190000  0.10520000  0.90930000  1.0 0.1263012858
H  H65  1  0.10520000  0.09070000  0.30810000  1.0 0.1263012858
H  H66  1  0.89480000  0.09070000  0.69190000  1.0 0.1263012858
H  H67  1  0.89480000  0.90930000  0.30810000  1.0 0.1263012858
H  H68  1  0.10520000  0.90930000  0.69190000  1.0 0.1263012858
H  H69  1  0.09070000  0.30810000  0.10520000  1.0 0.1263012858
H  H70  1  0.09070000  0.69190000  0.89480000  1.0 0.1263012858
H  H71  1  0.90930000  0.30810000  0.89480000  1.0 0.1263012858
H  H72  1  0.90930000  0.69190000  0.10520000  1.0 0.1263012858
C  C1  1  0.46120000  0.79500000  0.60470000  1.0 -0.1627974741
C  C2  1  0.53880000  0.20500000  0.60470000  1.0 -0.1627974741
C  C3  1  0.53880000  0.79500000  0.39530000  1.0 -0.1627974741
C  C4  1  0.46120000  0.20500000  0.39530000  1.0 -0.1627974741
C  C5  1  0.60470000  0.46120000  0.79500000  1.0 -0.1627974741
C  C6  1  0.60470000  0.53880000  0.20500000  1.0 -0.1627974741
C  C7  1  0.39530000  0.53880000  0.79500000  1.0 -0.1627974741
C  C8  1  0.39530000  0.46120000  0.20500000  1.0 -0.1627974741
C  C9  1  0.79500000  0.60470000  0.46120000  1.0 -0.1627974741
C  C10  1  0.20500000  0.60470000  0.53880000  1.0 -0.1627974741
C  C11  1  0.79500000  0.39530000  0.53880000  1.0 -0.1627974741
C  C12  1  0.20500000  0.39530000  0.46120000  1.0 -0.1627974741
C  C13  1  0.29500000  0.96120000  0.10470000  1.0 -0.1627974741
C  C14  1  0.70500000  0.03880000  0.10470000  1.0 -0.1627974741
C  C15  1  0.29500000  0.03880000  0.89530000  1.0 -0.1627974741
C  C16  1  0.70500000  0.96120000  0.89530000  1.0 -0.1627974741
C  C17  1  0.96120000  0.10470000  0.29500000  1.0 -0.1627974741
C  C18  1  0.03880000  0.10470000  0.70500000  1.0 -0.1627974741
C  C19  1  0.03880000  0.89530000  0.29500000  1.0 -0.1627974741
C  C20  1  0.96120000  0.89530000  0.70500000  1.0 -0.1627974741
C  C21  1  0.10470000  0.29500000  0.96120000  1.0 -0.1627974741
C  C22  1  0.10470000  0.70500000  0.03880000  1.0 -0.1627974741
C  C23  1  0.89530000  0.29500000  0.03880000  1.0 -0.1627974741
C  C24  1  0.89530000  0.70500000  0.96120000  1.0 -0.1627974741
C  C25  1  0.45880000  0.78660000  0.66620000  1.0 -0.0290588762
C  C26  1  0.54120000  0.21340000  0.66620000  1.0 -0.0290588762
C  C27  1  0.54120000  0.78660000  0.33380000  1.0 -0.0290588762
C  C28  1  0.45880000  0.21340000  0.33380000  1.0 -0.0290588762
C  C29  1  0.66620000  0.45880000  0.78660000  1.0 -0.0290588762
C  C30  1  0.66620000  0.54120000  0.21340000  1.0 -0.0290588762
C  C31  1  0.33380000  0.54120000  0.78660000  1.0 -0.0290588762
C  C32  1  0.33380000  0.45880000  0.21340000  1.0 -0.0290588762
C  C33  1  0.78660000  0.66620000  0.45880000  1.0 -0.0290588762
C  C34  1  0.21340000  0.66620000  0.54120000  1.0 -0.0290588762
C  C35  1  0.78660000  0.33380000  0.54120000  1.0 -0.0290588762
C  C36  1  0.21340000  0.33380000  0.45880000  1.0 -0.0290588762
C  C37  1  0.28660000  0.95880000  0.16620000  1.0 -0.0290588762
C  C38  1  0.71340000  0.04120000  0.16620000  1.0 -0.0290588762
C  C39  1  0.28660000  0.04120000  0.83380000  1.0 -0.0290588762
C  C40  1  0.71340000  0.95880000  0.83380000  1.0 -0.0290588762
C  C41  1  0.95880000  0.16620000  0.28660000  1.0 -0.0290588762
C  C42  1  0.04120000  0.16620000  0.71340000  1.0 -0.0290588762
C  C43  1  0.04120000  0.83380000  0.28660000  1.0 -0.0290588762
C  C44  1  0.95880000  0.83380000  0.71340000  1.0 -0.0290588762
C  C45  1  0.16620000  0.28660000  0.95880000  1.0 -0.0290588762
C  C46  1  0.16620000  0.71340000  0.04120000  1.0 -0.0290588762
C  C47  1  0.83380000  0.28660000  0.04120000  1.0 -0.0290588762
C  C48  1  0.83380000  0.71340000  0.95880000  1.0 -0.0290588762
C  C49  1  0.51120000  0.78610000  0.69940000  1.0 -0.1199082705
C  C50  1  0.48880000  0.21390000  0.69940000  1.0 -0.1199082705
C  C51  1  0.48880000  0.78610000  0.30060000  1.0 -0.1199082705
C  C52  1  0.51120000  0.21390000  0.30060000  1.0 -0.1199082705
C  C53  1  0.69940000  0.51120000  0.78610000  1.0 -0.1199082705
C  C54  1  0.69940000  0.48880000  0.21390000  1.0 -0.1199082705
C  C55  1  0.30060000  0.48880000  0.78610000  1.0 -0.1199082705
C  C56  1  0.30060000  0.51120000  0.21390000  1.0 -0.1199082705
C  C57  1  0.78610000  0.69940000  0.51120000  1.0 -0.1199082705
C  C58  1  0.21390000  0.69940000  0.48880000  1.0 -0.1199082705
C  C59  1  0.78610000  0.30060000  0.48880000  1.0 -0.1199082705
C  C60  1  0.21390000  0.30060000  0.51120000  1.0 -0.1199082705
C  C61  1  0.28610000  0.01120000  0.19940000  1.0 -0.1199082705
C  C62  1  0.71390000  0.98880000  0.19940000  1.0 -0.1199082705
C  C63  1  0.28610000  0.98880000  0.80060000  1.0 -0.1199082705
C  C64  1  0.71390000  0.01120000  0.80060000  1.0 -0.1199082705
C  C65  1  0.01120000  0.19940000  0.28610000  1.0 -0.1199082705
C  C66  1  0.98880000  0.19940000  0.71390000  1.0 -0.1199082705
C  C67  1  0.98880000  0.80060000  0.28610000  1.0 -0.1199082705
C  C68  1  0.01120000  0.80060000  0.71390000  1.0 -0.1199082705
C  C69  1  0.19940000  0.28610000  0.01120000  1.0 -0.1199082705
C  C70  1  0.19940000  0.71390000  0.98880000  1.0 -0.1199082705
C  C71  1  0.80060000  0.28610000  0.98880000  1.0 -0.1199082705
C  C72  1  0.80060000  0.71390000  0.01120000  1.0 -0.1199082705
C  C73  1  0.51630000  0.80100000  0.57740000  1.0 0.141892457
C  C74  1  0.48370000  0.19900000  0.57740000  1.0 0.141892457
C  C75  1  0.48370000  0.80100000  0.42260000  1.0 0.141892457
C  C76  1  0.51630000  0.19900000  0.42260000  1.0 0.141892457
C  C77  1  0.57740000  0.51630000  0.80100000  1.0 0.141892457
C  C78  1  0.57740000  0.48370000  0.19900000  1.0 0.141892457
C  C79  1  0.42260000  0.48370000  0.80100000  1.0 0.141892457
C  C80  1  0.42260000  0.51630000  0.19900000  1.0 0.141892457
C  C81  1  0.80100000  0.57740000  0.51630000  1.0 0.141892457
C  C82  1  0.19900000  0.57740000  0.48370000  1.0 0.141892457
C  C83  1  0.80100000  0.42260000  0.48370000  1.0 0.141892457
C  C84  1  0.19900000  0.42260000  0.51630000  1.0 0.141892457
C  C85  1  0.30100000  0.01630000  0.07740000  1.0 0.141892457
C  C86  1  0.69900000  0.98370000  0.07740000  1.0 0.141892457
C  C87  1  0.30100000  0.98370000  0.92260000  1.0 0.141892457
C  C88  1  0.69900000  0.01630000  0.92260000  1.0 0.141892457
C  C89  1  0.01630000  0.07740000  0.30100000  1.0 0.141892457
C  C90  1  0.98370000  0.07740000  0.69900000  1.0 0.141892457
C  C91  1  0.98370000  0.92260000  0.30100000  1.0 0.141892457
C  C92  1  0.01630000  0.92260000  0.69900000  1.0 0.141892457
C  C93  1  0.07740000  0.30100000  0.01630000  1.0 0.141892457
C  C94  1  0.07740000  0.69900000  0.98370000  1.0 0.141892457
C  C95  1  0.92260000  0.30100000  0.98370000  1.0 0.141892457
C  C96  1  0.92260000  0.69900000  0.01630000  1.0 0.141892457
C  C97  1  0.39900000  0.77980000  0.69510000  1.0 0.6099209813
C  C98  1  0.60100000  0.22020000  0.69510000  1.0 0.6099209813
C  C99  1  0.60100000  0.77980000  0.30490000  1.0 0.6099209813
C  C100  1  0.39900000  0.22020000  0.30490000  1.0 0.6099209813
C  C101  1  0.69510000  0.39900000  0.77980000  1.0 0.6099209813
C  C102  1  0.69510000  0.60100000  0.22020000  1.0 0.6099209813
C  C103  1  0.30490000  0.60100000  0.77980000  1.0 0.6099209813
C  C104  1  0.30490000  0.39900000  0.22020000  1.0 0.6099209813
C  C105  1  0.77980000  0.69510000  0.39900000  1.0 0.6099209813
C  C106  1  0.22020000  0.69510000  0.60100000  1.0 0.6099209813
C  C107  1  0.77980000  0.30490000  0.60100000  1.0 0.6099209813
C  C108  1  0.22020000  0.30490000  0.39900000  1.0 0.6099209813
C  C109  1  0.27980000  0.89900000  0.19510000  1.0 0.6099209813
C  C110  1  0.72020000  0.10100000  0.19510000  1.0 0.6099209813
C  C111  1  0.27980000  0.10100000  0.80490000  1.0 0.6099209813
C  C112  1  0.72020000  0.89900000  0.80490000  1.0 0.6099209813
C  C113  1  0.89900000  0.19510000  0.27980000  1.0 0.6099209813
C  C114  1  0.10100000  0.19510000  0.72020000  1.0 0.6099209813
C  C115  1  0.10100000  0.80490000  0.27980000  1.0 0.6099209813
C  C116  1  0.89900000  0.80490000  0.72020000  1.0 0.6099209813
C  C117  1  0.19510000  0.27980000  0.89900000  1.0 0.6099209813
C  C118  1  0.19510000  0.72020000  0.10100000  1.0 0.6099209813
C  C119  1  0.80490000  0.27980000  0.10100000  1.0 0.6099209813
C  C120  1  0.80490000  0.72020000  0.89900000  1.0 0.6099209813
C  C121  1  0.56520000  0.79360000  0.67180000  1.0 -0.0290588762
C  C122  1  0.43480000  0.20640000  0.67180000  1.0 -0.0290588762
C  C123  1  0.43480000  0.79360000  0.32820000  1.0 -0.0290588762
C  C124  1  0.56520000  0.20640000  0.32820000  1.0 -0.0290588762
C  C125  1  0.67180000  0.56520000  0.79360000  1.0 -0.0290588762
C  C126  1  0.67180000  0.43480000  0.20640000  1.0 -0.0290588762
C  C127  1  0.32820000  0.43480000  0.79360000  1.0 -0.0290588762
C  C128  1  0.32820000  0.56520000  0.20640000  1.0 -0.0290588762
C  C129  1  0.79360000  0.67180000  0.56520000  1.0 -0.0290588762
C  C130  1  0.20640000  0.67180000  0.43480000  1.0 -0.0290588762
C  C131  1  0.79360000  0.32820000  0.43480000  1.0 -0.0290588762
C  C132  1  0.20640000  0.32820000  0.56520000  1.0 -0.0290588762
C  C133  1  0.29360000  0.06520000  0.17180000  1.0 -0.0290588762
C  C134  1  0.70640000  0.93480000  0.17180000  1.0 -0.0290588762
C  C135  1  0.29360000  0.93480000  0.82820000  1.0 -0.0290588762
C  C136  1  0.70640000  0.06520000  0.82820000  1.0 -0.0290588762
C  C137  1  0.06520000  0.17180000  0.29360000  1.0 -0.0290588762
C  C138  1  0.93480000  0.17180000  0.70640000  1.0 -0.0290588762
C  C139  1  0.93480000  0.82820000  0.29360000  1.0 -0.0290588762
C  C140  1  0.06520000  0.82820000  0.70640000  1.0 -0.0290588762
C  C141  1  0.17180000  0.29360000  0.06520000  1.0 -0.0290588762
C  C142  1  0.17180000  0.70640000  0.93480000  1.0 -0.0290588762
C  C143  1  0.82820000  0.29360000  0.93480000  1.0 -0.0290588762
C  C144  1  0.82820000  0.70640000  0.06520000  1.0 -0.0290588762
C  C145  1  0.56800000  0.80190000  0.60980000  1.0 -0.1627974741
C  C146  1  0.43200000  0.19810000  0.60980000  1.0 -0.1627974741
C  C147  1  0.43200000  0.80190000  0.39020000  1.0 -0.1627974741
C  C148  1  0.56800000  0.19810000  0.39020000  1.0 -0.1627974741
C  C149  1  0.60980000  0.56800000  0.80190000  1.0 -0.1627974741
C  C150  1  0.60980000  0.43200000  0.19810000  1.0 -0.1627974741
C  C151  1  0.39020000  0.43200000  0.80190000  1.0 -0.1627974741
C  C152  1  0.39020000  0.56800000  0.19810000  1.0 -0.1627974741
C  C153  1  0.80190000  0.60980000  0.56800000  1.0 -0.1627974741
C  C154  1  0.19810000  0.60980000  0.43200000  1.0 -0.1627974741
C  C155  1  0.80190000  0.39020000  0.43200000  1.0 -0.1627974741
C  C156  1  0.19810000  0.39020000  0.56800000  1.0 -0.1627974741
C  C157  1  0.30190000  0.06800000  0.10980000  1.0 -0.1627974741
C  C158  1  0.69810000  0.93200000  0.10980000  1.0 -0.1627974741
C  C159  1  0.30190000  0.93200000  0.89020000  1.0 -0.1627974741
C  C160  1  0.69810000  0.06800000  0.89020000  1.0 -0.1627974741
C  C161  1  0.06800000  0.10980000  0.30190000  1.0 -0.1627974741
C  C162  1  0.93200000  0.10980000  0.69810000  1.0 -0.1627974741
C  C163  1  0.93200000  0.89020000  0.30190000  1.0 -0.1627974741
C  C164  1  0.06800000  0.89020000  0.69810000  1.0 -0.1627974741
C  C165  1  0.10980000  0.30190000  0.06800000  1.0 -0.1627974741
C  C166  1  0.10980000  0.69810000  0.93200000  1.0 -0.1627974741
C  C167  1  0.89020000  0.30190000  0.93200000  1.0 -0.1627974741
C  C168  1  0.89020000  0.69810000  0.06800000  1.0 -0.1627974741
C  C169  1  0.62310000  0.79460000  0.70520000  1.0 0.6099209813
C  C170  1  0.37690000  0.20540000  0.70520000  1.0 0.6099209813
C  C171  1  0.37690000  0.79460000  0.29480000  1.0 0.6099209813
C  C172  1  0.62310000  0.20540000  0.29480000  1.0 0.6099209813
C  C173  1  0.70520000  0.62310000  0.79460000  1.0 0.6099209813
C  C174  1  0.70520000  0.37690000  0.20540000  1.0 0.6099209813
C  C175  1  0.29480000  0.37690000  0.79460000  1.0 0.6099209813
C  C176  1  0.29480000  0.62310000  0.20540000  1.0 0.6099209813
C  C177  1  0.79460000  0.70520000  0.62310000  1.0 0.6099209813
C  C178  1  0.20540000  0.70520000  0.37690000  1.0 0.6099209813
C  C179  1  0.79460000  0.29480000  0.37690000  1.0 0.6099209813
C  C180  1  0.20540000  0.29480000  0.62310000  1.0 0.6099209813
C  C181  1  0.29460000  0.12310000  0.20520000  1.0 0.6099209813
C  C182  1  0.70540000  0.87690000  0.20520000  1.0 0.6099209813
C  C183  1  0.29460000  0.87690000  0.79480000  1.0 0.6099209813
C  C184  1  0.70540000  0.12310000  0.79480000  1.0 0.6099209813
C  C185  1  0.12310000  0.20520000  0.29460000  1.0 0.6099209813
C  C186  1  0.87690000  0.20520000  0.70540000  1.0 0.6099209813
C  C187  1  0.87690000  0.79480000  0.29460000  1.0 0.6099209813
C  C188  1  0.12310000  0.79480000  0.70540000  1.0 0.6099209813
C  C189  1  0.20520000  0.29460000  0.12310000  1.0 0.6099209813
C  C190  1  0.20520000  0.70540000  0.87690000  1.0 0.6099209813
C  C191  1  0.79480000  0.29460000  0.87690000  1.0 0.6099209813
C  C192  1  0.79480000  0.70540000  0.12310000  1.0 0.6099209813
Br  Br1  1  0.40162000  0.73680000  0.89179000  0.33 0.4166837511
Br  Br2  1  0.59838000  0.26320000  0.89179000  0.33 0.4091557954
Br  Br3  1  0.59838000  0.73680000  0.10821000  0.33 0.4091557954
Br  Br4  1  0.40162000  0.26320000  0.10821000  0.33 0.4091557954
Br  Br5  1  0.89179000  0.40162000  0.73680000  0.33 0.4166837511
Br  Br6  1  0.89179000  0.59838000  0.26320000  0.33 0.4091557954
Br  Br7  1  0.10821000  0.59838000  0.73680000  0.33 0.4091557954
Br  Br8  1  0.10821000  0.40162000  0.26320000  0.33 0.4091557954
Br  Br9  1  0.73680000  0.89179000  0.40162000  0.33 0.4166837511
Br  Br10  1  0.26320000  0.89179000  0.59838000  0.33 0.4091557954
Br  Br11  1  0.73680000  0.10821000  0.59838000  0.33 0.4091557954
Br  Br12  1  0.26320000  0.10821000  0.40162000  0.33 0.4091557954
Br  Br13  1  0.23680000  0.90162000  0.39179000  0.33 0.4166837511
Br  Br14  1  0.76320000  0.09838000  0.39179000  0.33 0.4091557954
Br  Br15  1  0.23680000  0.09838000  0.60821000  0.33 0.4091557954
Br  Br16  1  0.76320000  0.90162000  0.60821000  0.33 0.4091557954
Br  Br17  1  0.90162000  0.39179000  0.23680000  0.33 0.4091557954
Br  Br18  1  0.09838000  0.39179000  0.76320000  0.33 0.4166837511
Br  Br19  1  0.09838000  0.60821000  0.23680000  0.33 0.4091557954
Br  Br20  1  0.90162000  0.60821000  0.76320000  0.33 0.4091557954
Br  Br21  1  0.39179000  0.23680000  0.90162000  0.33 0.4091557954
Br  Br22  1  0.39179000  0.76320000  0.09838000  0.33 0.4166837511
Br  Br23  1  0.60821000  0.23680000  0.09838000  0.33 0.4091557954
Br  Br24  1  0.60821000  0.76320000  0.90162000  0.33 0.4091557954
N  N1  1  0.52290000  0.80420000  0.51380000  1.0 -0.1128041233
N  N2  1  0.47710000  0.19580000  0.51380000  1.0 -0.1128041233
N  N3  1  0.47710000  0.80420000  0.48620000  1.0 -0.1128041233
N  N4  1  0.52290000  0.19580000  0.48620000  1.0 -0.1128041233
N  N5  1  0.51380000  0.52290000  0.80420000  1.0 -0.1128041233
N  N6  1  0.51380000  0.47710000  0.19580000  1.0 -0.1128041233
N  N7  1  0.48620000  0.47710000  0.80420000  1.0 -0.1128041233
N  N8  1  0.48620000  0.52290000  0.19580000  1.0 -0.1128041233
N  N9  1  0.80420000  0.51380000  0.52290000  1.0 -0.1128041233
N  N10  1  0.19580000  0.51380000  0.47710000  1.0 -0.1128041233
N  N11  1  0.80420000  0.48620000  0.47710000  1.0 -0.1128041233
N  N12  1  0.19580000  0.48620000  0.52290000  1.0 -0.1128041233
N  N13  1  0.30420000  0.02290000  0.01380000  1.0 -0.1128041233
N  N14  1  0.69580000  0.97710000  0.01380000  1.0 -0.1128041233
N  N15  1  0.30420000  0.97710000  0.98620000  1.0 -0.1128041233
N  N16  1  0.69580000  0.02290000  0.98620000  1.0 -0.1128041233
N  N17  1  0.02290000  0.01380000  0.30420000  1.0 -0.1128041233
N  N18  1  0.97710000  0.01380000  0.69580000  1.0 -0.1128041233
N  N19  1  0.97710000  0.98620000  0.30420000  1.0 -0.1128041233
N  N20  1  0.02290000  0.98620000  0.69580000  1.0 -0.1128041233
N  N21  1  0.01380000  0.30420000  0.02290000  1.0 -0.1128041233
N  N22  1  0.01380000  0.69580000  0.97710000  1.0 -0.1128041233
N  N23  1  0.98620000  0.30420000  0.97710000  1.0 -0.1128041233
N  N24  1  0.98620000  0.69580000  0.02290000  1.0 -0.1128041233
O  O1  1  0.39696000  0.76140000  0.74780000  1.0 -0.5715228733
O  O2  1  0.60304000  0.23860000  0.74780000  1.0 -0.5715228733
O  O3  1  0.60304000  0.76140000  0.25220000  1.0 -0.5715228733
O  O4  1  0.39696000  0.23860000  0.25220000  1.0 -0.5715228733
O  O5  1  0.74780000  0.39696000  0.76140000  1.0 -0.5715228733
O  O6  1  0.74780000  0.60304000  0.23860000  1.0 -0.5715228733
O  O7  1  0.25220000  0.60304000  0.76140000  1.0 -0.5715228733
O  O8  1  0.25220000  0.39696000  0.23860000  1.0 -0.5715228733
O  O9  1  0.76140000  0.74780000  0.39696000  1.0 -0.5715228733
O  O10  1  0.23860000  0.74780000  0.60304000  1.0 -0.5715228733
O  O11  1  0.76140000  0.25220000  0.60304000  1.0 -0.5715228733
O  O12  1  0.23860000  0.25220000  0.39696000  1.0 -0.5715228733
O  O13  1  0.26140000  0.89696000  0.24780000  1.0 -0.5715228733
O  O14  1  0.73860000  0.10304000  0.24780000  1.0 -0.5715228733
O  O15  1  0.26140000  0.10304000  0.75220000  1.0 -0.5715228733
O  O16  1  0.73860000  0.89696000  0.75220000  1.0 -0.5715228733
O  O17  1  0.89696000  0.24780000  0.26140000  1.0 -0.5715228733
O  O18  1  0.10304000  0.24780000  0.73860000  1.0 -0.5715228733
O  O19  1  0.10304000  0.75220000  0.26140000  1.0 -0.5715228733
O  O20  1  0.89696000  0.75220000  0.73860000  1.0 -0.5715228733
O  O21  1  0.24780000  0.26140000  0.89696000  1.0 -0.5715228733
O  O22  1  0.24780000  0.73860000  0.10304000  1.0 -0.5715228733
O  O23  1  0.75220000  0.26140000  0.10304000  1.0 -0.5715228733
O  O24  1  0.75220000  0.73860000  0.89696000  1.0 -0.5715228733
O  O25  1  0.62140000  0.78020000  0.75920000  1.0 -0.5753234947
O  O26  1  0.37860000  0.21980000  0.75920000  1.0 -0.5753234947
O  O27  1  0.37860000  0.78020000  0.24080000  1.0 -0.5753234947
O  O28  1  0.62140000  0.21980000  0.24080000  1.0 -0.5753234947
O  O29  1  0.75920000  0.62140000  0.78020000  1.0 -0.5753234947
O  O30  1  0.75920000  0.37860000  0.21980000  1.0 -0.5753234947
O  O31  1  0.24080000  0.37860000  0.78020000  1.0 -0.5753234947
O  O32  1  0.24080000  0.62140000  0.21980000  1.0 -0.5753234947
O  O33  1  0.78020000  0.75920000  0.62140000  1.0 -0.5753234947
O  O34  1  0.21980000  0.75920000  0.37860000  1.0 -0.5753234947
O  O35  1  0.78020000  0.24080000  0.37860000  1.0 -0.5753234947
O  O36  1  0.21980000  0.24080000  0.62140000  1.0 -0.5753234947
O  O37  1  0.28020000  0.12140000  0.25920000  1.0 -0.5753234947
O  O38  1  0.71980000  0.87860000  0.25920000  1.0 -0.5753234947
O  O39  1  0.28020000  0.87860000  0.74080000  1.0 -0.5753234947
O  O40  1  0.71980000  0.12140000  0.74080000  1.0 -0.5753234947
O  O41  1  0.12140000  0.25920000  0.28020000  1.0 -0.5753234947
O  O42  1  0.87860000  0.25920000  0.71980000  1.0 -0.5753234947
O  O43  1  0.87860000  0.74080000  0.28020000  1.0 -0.5753234947
O  O44  1  0.12140000  0.74080000  0.71980000  1.0 -0.5715228733
O  O45  1  0.25920000  0.28020000  0.12140000  1.0 -0.5753234947
O  O46  1  0.25920000  0.71980000  0.87860000  1.0 -0.5753234947
O  O47  1  0.74080000  0.28020000  0.87860000  1.0 -0.5753234947
O  O48  1  0.74080000  0.71980000  0.12140000  1.0 -0.5753234947
O  O49  1  0.35430000  0.79350000  0.66270000  1.0 -0.5881052288
O  O50  1  0.64570000  0.20650000  0.66270000  1.0 -0.5881052288
O  O51  1  0.64570000  0.79350000  0.33730000  1.0 -0.5881052288
O  O52  1  0.35430000  0.20650000  0.33730000  1.0 -0.5881052288
O  O53  1  0.66270000  0.35430000  0.79350000  1.0 -0.5881052288
O  O54  1  0.66270000  0.64570000  0.20650000  1.0 -0.5881052288
O  O55  1  0.33730000  0.64570000  0.79350000  1.0 -0.5881052288
O  O56  1  0.33730000  0.35430000  0.20650000  1.0 -0.5881052288
O  O57  1  0.79350000  0.66270000  0.35430000  1.0 -0.5881052288
O  O58  1  0.20650000  0.66270000  0.64570000  1.0 -0.5881052288
O  O59  1  0.79350000  0.33730000  0.64570000  1.0 -0.5881052288
O  O60  1  0.20650000  0.33730000  0.35430000  1.0 -0.5881052288
O  O61  1  0.29350000  0.85430000  0.16270000  1.0 -0.5881052288
O  O62  1  0.70650000  0.14570000  0.16270000  1.0 -0.5881052288
O  O63  1  0.29350000  0.14570000  0.83730000  1.0 -0.5881052288
O  O64  1  0.70650000  0.85430000  0.83730000  1.0 -0.5881052288
O  O65  1  0.85430000  0.16270000  0.29350000  1.0 -0.5881052288
O  O66  1  0.14570000  0.16270000  0.70650000  1.0 -0.5881052288
O  O67  1  0.14570000  0.83730000  0.29350000  1.0 -0.5881052288
O  O68  1  0.85430000  0.83730000  0.70650000  1.0 -0.5881052288
O  O69  1  0.16270000  0.29350000  0.85430000  1.0 -0.5881052288
O  O70  1  0.16270000  0.70650000  0.14570000  1.0 -0.5881052288
O  O71  1  0.83730000  0.29350000  0.14570000  1.0 -0.5881052288
O  O72  1  0.83730000  0.70650000  0.85430000  1.0 -0.5881052288
O  O73  1  0.66770000  0.81060000  0.67580000  1.0 -0.5753234947
O  O74  1  0.33230000  0.18940000  0.67580000  1.0 -0.5753234947
O  O75  1  0.33230000  0.81060000  0.32420000  1.0 -0.5753234947
O  O76  1  0.66770000  0.18940000  0.32420000  1.0 -0.5753234947
O  O77  1  0.67580000  0.66770000  0.81060000  1.0 -0.5753234947
O  O78  1  0.67580000  0.33230000  0.18940000  1.0 -0.5753234947
O  O79  1  0.32420000  0.33230000  0.81060000  1.0 -0.5753234947
O  O80  1  0.32420000  0.66770000  0.18940000  1.0 -0.5753234947
O  O81  1  0.81060000  0.67580000  0.66770000  1.0 -0.5753234947
O  O82  1  0.18940000  0.67580000  0.33230000  1.0 -0.5753234947
O  O83  1  0.81060000  0.32420000  0.33230000  1.0 -0.5753234947
O  O84  1  0.18940000  0.32420000  0.66770000  1.0 -0.5753234947
O  O85  1  0.31060000  0.16770000  0.17580000  1.0 -0.5753234947
O  O86  1  0.68940000  0.83230000  0.17580000  1.0 -0.5753234947
O  O87  1  0.31060000  0.83230000  0.82420000  1.0 -0.5753234947
O  O88  1  0.68940000  0.16770000  0.82420000  1.0 -0.5753234947
O  O89  1  0.16770000  0.17580000  0.31060000  1.0 -0.5753234947
O  O90  1  0.83230000  0.17580000  0.68940000  1.0 -0.5753234947
O  O91  1  0.83230000  0.82420000  0.31060000  1.0 -0.5753234947
O  O92  1  0.16770000  0.82420000  0.68940000  1.0 -0.5753234947
O  O93  1  0.17580000  0.31060000  0.16770000  1.0 -0.5753234947
O  O94  1  0.17580000  0.68940000  0.83230000  1.0 -0.5753234947
O  O95  1  0.82420000  0.31060000  0.83230000  1.0 -0.5753234947
O  O96  1  0.82420000  0.68940000  0.16770000  1.0 -0.5753234947
O  O97  1  0.25960000  0.74040000  0.74040000  1.0 -1.0188751044
O  O98  1  0.74040000  0.25960000  0.74040000  1.0 -1.0188751044
O  O99  1  0.74040000  0.74040000  0.25960000  1.0 -1.0188751044
O  O100  1  0.25960000  0.25960000  0.25960000  1.0 -1.0188751044
O  O101  1  0.24040000  0.75960000  0.24040000  1.0 -1.0188751044
O  O102  1  0.75960000  0.24040000  0.24040000  1.0 -1.0188751044
O  O103  1  0.24040000  0.24040000  0.75960000  1.0 -1.0188751044
O  O104  1  0.75960000  0.75960000  0.75960000  1.0 -1.0188751044
O  O105  1  0.38800000  0.73600000  0.87160000  0.67 -0.1964063654
O  O106  1  0.61200000  0.26400000  0.87160000  0.67 -0.1964063654
O  O107  1  0.61200000  0.73600000  0.12840000  0.67 -0.1964063654
O  O108  1  0.38800000  0.26400000  0.12840000  0.67 -0.1964063654
O  O109  1  0.87160000  0.38800000  0.73600000  0.67 -0.1964063654
O  O110  1  0.87160000  0.61200000  0.26400000  0.67 -0.1964063654
O  O111  1  0.12840000  0.61200000  0.73600000  0.67 -0.1964063654
O  O112  1  0.12840000  0.38800000  0.26400000  0.67 -0.1964063654
O  O113  1  0.73600000  0.87160000  0.38800000  0.67 -0.1964063654
O  O114  1  0.26400000  0.87160000  0.61200000  0.67 -0.1964063654
O  O115  1  0.73600000  0.12840000  0.61200000  0.67 -0.1964063654
O  O116  1  0.26400000  0.12840000  0.38800000  0.67 -0.1964063654
O  O117  1  0.23600000  0.88800000  0.37160000  0.67 -0.1964063654
O  O118  1  0.76400000  0.11200000  0.37160000  0.67 -0.1964063654
O  O119  1  0.23600000  0.11200000  0.62840000  0.67 -0.1964063654
O  O120  1  0.76400000  0.88800000  0.62840000  0.67 -0.1964063654
O  O121  1  0.88800000  0.37160000  0.23600000  0.67 -0.1964063654
O  O122  1  0.11200000  0.37160000  0.76400000  0.67 -0.1964063654
O  O123  1  0.11200000  0.62840000  0.23600000  0.67 -0.1964063654
O  O124  1  0.88800000  0.62840000  0.76400000  0.67 -0.1964063654
O  O125  1  0.37160000  0.23600000  0.88800000  0.67 -0.1964063654
O  O126  1  0.37160000  0.76400000  0.11200000  0.67 -0.1964063654
O  O127  1  0.62840000  0.23600000  0.11200000  0.67 -0.1964063654
O  O128  1  0.62840000  0.76400000  0.88800000  0.67 -0.1964063654
