# DDEC6 charges by PACMAN v1.1 (https://github.com/mtap-research/PACMAN-charge/)
data_d3ta06197c2_2_ASR_pacman
_symmetry_space_group_name_H-M   'P 1'
_cell_length_a   21.49500000
_cell_length_b   26.71900000
_cell_length_c   31.70200000
_cell_angle_alpha   90.00000000
_cell_angle_beta   90.00000000
_cell_angle_gamma   90.00000000
_symmetry_Int_Tables_number   1
_chemical_formula_structural   Zn20H142.4C243.2Cl6.4O72
_chemical_formula_sum   'Zn20 H142.4 C243.2 Cl6.4 O72'
_cell_volume   18207.24813831
_cell_formula_units_Z   1
loop_
 _symmetry_equiv_pos_site_id
 _symmetry_equiv_pos_as_xyz
  1  'x, y, z'
loop_
 _atom_site_type_symbol
 _atom_site_label
 _atom_site_symmetry_multiplicity
 _atom_site_fract_x
 _atom_site_fract_y
 _atom_site_fract_z
 _atom_site_occupancy
 _atom_site_charge
Zn  Zn1  1  0.60739000  0.27489000  0.79209000  1.0 0.845390381
Zn  Zn2  1  0.89261000  0.22511000  0.79209000  1.0 0.845390381
Zn  Zn3  1  0.39261000  0.77489000  0.70791000  1.0 0.845390381
Zn  Zn4  1  0.10739000  0.72511000  0.70791000  1.0 0.845390381
Zn  Zn5  1  0.39261000  0.72511000  0.20791000  1.0 0.845390381
Zn  Zn6  1  0.10739000  0.77489000  0.20791000  1.0 0.845390381
Zn  Zn7  1  0.60739000  0.22511000  0.29209000  1.0 0.845390381
Zn  Zn8  1  0.89261000  0.27489000  0.29209000  1.0 0.845390381
Zn  Zn9  1  0.25000000  0.75000000  0.72473000  1.0 1.0235134378
Zn  Zn10  1  0.75000000  0.25000000  0.77527000  1.0 1.0235134378
Zn  Zn11  1  0.75000000  0.25000000  0.27527000  1.0 1.0235134378
Zn  Zn12  1  0.25000000  0.75000000  0.22473000  1.0 1.0235134378
Zn  Zn13  1  0.21212000  0.65729000  0.65688000  1.0 0.9595520959
Zn  Zn14  1  0.28788000  0.84271000  0.65688000  1.0 0.9595520959
Zn  Zn15  1  0.78788000  0.15729000  0.84312000  1.0 0.9595520959
Zn  Zn16  1  0.71212000  0.34271000  0.84312000  1.0 0.9595520959
Zn  Zn17  1  0.78788000  0.34271000  0.34312000  1.0 0.9595520959
Zn  Zn18  1  0.71212000  0.15729000  0.34312000  1.0 0.9595520959
Zn  Zn19  1  0.21212000  0.84271000  0.15688000  1.0 0.9595520959
Zn  Zn20  1  0.28788000  0.65729000  0.15688000  1.0 0.9595520959
H  H1  1  0.69000000  0.24970000  0.83940000  1.0 0.3778283015
H  H2  1  0.81000000  0.25030000  0.83940000  1.0 0.3778283015
H  H3  1  0.31000000  0.74970000  0.66060000  1.0 0.3778283015
H  H4  1  0.19000000  0.75030000  0.66060000  1.0 0.3778283015
H  H5  1  0.31000000  0.75030000  0.16060000  1.0 0.3778283015
H  H6  1  0.19000000  0.74970000  0.16060000  1.0 0.3778283015
H  H7  1  0.69000000  0.25030000  0.33940000  1.0 0.3778283015
H  H8  1  0.81000000  0.24970000  0.33940000  1.0 0.3778283015
H  H9  1  0.49009000  0.39407000  0.76963000  1.0 0.1296075604
H  H10  1  0.00991000  0.10593000  0.76963000  1.0 0.1296075604
H  H11  1  0.50991000  0.89407000  0.73037000  1.0 0.1296075604
H  H12  1  0.99009000  0.60593000  0.73037000  1.0 0.1296075604
H  H13  1  0.50991000  0.60593000  0.23037000  1.0 0.1296075604
H  H14  1  0.99009000  0.89407000  0.23037000  1.0 0.1296075604
H  H15  1  0.49009000  0.10593000  0.26963000  1.0 0.1296075604
H  H16  1  0.00991000  0.39407000  0.26963000  1.0 0.1296075604
H  H17  1  0.41775000  0.46480000  0.71674000  1.0 0.1400772848
H  H18  1  0.08225000  0.03520000  0.71674000  1.0 0.1400772848
H  H19  1  0.58225000  0.96480000  0.78326000  1.0 0.1400772848
H  H20  1  0.91775000  0.53520000  0.78326000  1.0 0.1400772848
H  H21  1  0.58225000  0.53520000  0.28326000  1.0 0.1400772848
H  H22  1  0.91775000  0.96480000  0.28326000  1.0 0.1400772848
H  H23  1  0.41775000  0.03520000  0.21674000  1.0 0.1400772848
H  H24  1  0.08225000  0.46480000  0.21674000  1.0 0.1400772848
H  H25  1  0.37369000  0.45439000  0.75708000  1.0 0.1296075604
H  H26  1  0.12631000  0.04561000  0.75708000  1.0 0.1296075604
H  H27  1  0.62631000  0.95439000  0.74292000  1.0 0.1400772848
H  H28  1  0.87369000  0.54561000  0.74292000  1.0 0.1400772848
H  H29  1  0.62631000  0.54561000  0.24292000  1.0 0.1296075604
H  H30  1  0.87369000  0.95439000  0.24292000  1.0 0.1296075604
H  H31  1  0.37369000  0.04561000  0.25708000  1.0 0.1296075604
H  H32  1  0.12631000  0.45439000  0.25708000  1.0 0.1296075604
H  H33  1  0.32372000  0.54506000  0.71415000  1.0 0.1296075604
H  H34  1  0.17628000  0.95494000  0.71415000  1.0 0.1296075604
H  H35  1  0.67628000  0.04506000  0.78585000  1.0 0.1296075604
H  H36  1  0.82372000  0.45494000  0.78585000  1.0 0.1296075604
H  H37  1  0.67628000  0.45494000  0.28585000  1.0 0.1296075604
H  H38  1  0.82372000  0.04506000  0.28585000  1.0 0.1296075604
H  H39  1  0.32372000  0.95494000  0.21415000  1.0 0.1296075604
H  H40  1  0.17628000  0.54506000  0.21415000  1.0 0.1296075604
H  H41  1  0.39478000  0.66693000  0.77407000  1.0 0.1218980393
H  H42  1  0.10522000  0.83307000  0.77407000  1.0 0.1218980393
H  H43  1  0.60522000  0.16693000  0.72593000  1.0 0.1218980393
H  H44  1  0.89478000  0.33307000  0.72593000  1.0 0.1218980393
H  H45  1  0.60522000  0.33307000  0.22593000  1.0 0.1218980393
H  H46  1  0.89478000  0.16693000  0.22593000  1.0 0.1218980393
H  H47  1  0.39478000  0.83307000  0.27407000  1.0 0.1218980393
H  H48  1  0.10522000  0.66693000  0.27407000  1.0 0.1218980393
H  H49  1  0.47097000  0.61815000  0.80829000  1.0 0.1296075604
H  H50  1  0.02903000  0.88185000  0.80829000  1.0 0.1296075604
H  H51  1  0.52903000  0.11815000  0.69171000  1.0 0.1296075604
H  H52  1  0.97097000  0.38185000  0.69171000  1.0 0.1296075604
H  H53  1  0.52903000  0.38185000  0.19171000  1.0 0.1296075604
H  H54  1  0.97097000  0.11815000  0.19171000  1.0 0.1296075604
H  H55  1  0.47097000  0.88185000  0.30829000  1.0 0.1296075604
H  H56  1  0.02903000  0.61815000  0.30829000  1.0 0.1296075604
H  H57  1  0.54755000  0.54747000  0.83243000  1.0 0.1218980393
H  H58  1  0.95245000  0.95253000  0.83243000  1.0 0.1218980393
H  H59  1  0.45245000  0.04747000  0.66757000  1.0 0.1218980393
H  H60  1  0.04755000  0.45253000  0.66757000  1.0 0.1218980393
H  H61  1  0.45245000  0.45253000  0.16757000  1.0 0.1218980393
H  H62  1  0.04755000  0.04747000  0.16757000  1.0 0.1218980393
H  H63  1  0.54755000  0.95253000  0.33243000  1.0 0.1218980393
H  H64  1  0.95245000  0.54747000  0.33243000  1.0 0.1218980393
H  H65  1  0.60171000  0.47420000  0.84864000  1.0 0.1296075604
H  H66  1  0.89829000  0.02580000  0.84864000  1.0 0.1296075604
H  H67  1  0.39829000  0.97420000  0.65136000  1.0 0.1296075604
H  H68  1  0.10171000  0.52580000  0.65136000  1.0 0.1296075604
H  H69  1  0.39829000  0.52580000  0.15136000  1.0 0.1296075604
H  H70  1  0.10171000  0.97420000  0.15136000  1.0 0.1296075604
H  H71  1  0.60171000  0.02580000  0.34864000  1.0 0.1296075604
H  H72  1  0.89829000  0.47420000  0.34864000  1.0 0.1296075604
H  H73  1  0.72942000  0.31343000  0.65808000  1.0 0.1400772848
H  H74  1  0.77058000  0.18657000  0.65808000  1.0 0.1400772848
H  H75  1  0.27058000  0.81343000  0.84192000  1.0 0.1400772848
H  H76  1  0.22942000  0.68657000  0.84192000  1.0 0.1400772848
H  H77  1  0.27058000  0.68657000  0.34192000  1.0 0.1400772848
H  H78  1  0.22942000  0.81343000  0.34192000  1.0 0.1400772848
H  H79  1  0.72942000  0.18657000  0.15808000  1.0 0.1400772848
H  H80  1  0.77058000  0.31343000  0.15808000  1.0 0.1400772848
H  H81  1  0.78141000  0.30741000  0.57225000  1.0 0.1296075604
H  H82  1  0.71859000  0.19259000  0.57225000  1.0 0.1296075604
H  H83  1  0.21859000  0.80741000  0.92775000  1.0 0.1296075604
H  H84  1  0.28141000  0.69259000  0.92775000  1.0 0.1296075604
H  H85  1  0.21859000  0.69259000  0.42775000  1.0 0.1296075604
H  H86  1  0.28141000  0.80741000  0.42775000  1.0 0.1296075604
H  H87  1  0.78141000  0.19259000  0.07225000  1.0 0.1296075604
H  H88  1  0.71859000  0.30741000  0.07225000  1.0 0.1296075604
H  H89  1  0.74401000  0.35985000  0.57269000  1.0 0.1400772848
H  H90  1  0.75599000  0.14015000  0.57269000  1.0 0.1400772848
H  H91  1  0.25599000  0.85985000  0.92731000  1.0 0.1400772848
H  H92  1  0.24401000  0.64015000  0.92731000  1.0 0.1400772848
H  H93  1  0.25599000  0.64015000  0.42731000  1.0 0.1400772848
H  H94  1  0.24401000  0.85985000  0.42731000  1.0 0.1400772848
H  H95  1  0.74401000  0.14015000  0.07269000  1.0 0.1400772848
H  H96  1  0.75599000  0.35985000  0.07269000  1.0 0.1400772848
H  H97  1  0.76975000  0.33832000  0.48192000  1.0 0.1400772848
H  H98  1  0.73025000  0.16168000  0.48192000  1.0 0.1400772848
H  H99  1  0.23025000  0.83832000  0.01808000  1.0 0.1400772848
H  H100  1  0.26975000  0.66168000  0.01808000  1.0 0.1400772848
H  H101  1  0.23025000  0.66168000  0.51808000  1.0 0.1400772848
H  H102  1  0.26975000  0.83832000  0.51808000  1.0 0.1400772848
H  H103  1  0.76975000  0.16168000  0.98192000  1.0 0.1400772848
H  H104  1  0.73025000  0.33832000  0.98192000  1.0 0.1400772848
H  H105  1  0.61907000  0.26303000  0.43457000  1.0 0.1296075604
H  H106  1  0.88093000  0.23697000  0.43457000  1.0 0.1296075604
H  H107  1  0.38093000  0.76303000  0.06543000  1.0 0.1296075604
H  H108  1  0.11907000  0.73697000  0.06543000  1.0 0.1296075604
H  H109  1  0.38093000  0.73697000  0.56543000  1.0 0.1296075604
H  H110  1  0.11907000  0.76303000  0.56543000  1.0 0.1296075604
H  H111  1  0.61907000  0.23697000  0.93457000  1.0 0.1296075604
H  H112  1  0.88093000  0.26303000  0.93457000  1.0 0.1296075604
H  H113  1  0.58242000  0.24767000  0.50246000  1.0 0.1218980393
H  H114  1  0.91758000  0.25233000  0.50246000  1.0 0.1218980393
H  H115  1  0.41758000  0.74767000  0.99754000  1.0 0.1218980393
H  H116  1  0.08242000  0.75233000  0.99754000  1.0 0.1218980393
H  H117  1  0.41758000  0.75233000  0.49754000  1.0 0.1218980393
H  H118  1  0.08242000  0.74767000  0.49754000  1.0 0.1218980393
H  H119  1  0.58242000  0.25233000  0.00246000  1.0 0.1218980393
H  H120  1  0.91758000  0.24767000  0.00246000  1.0 0.1218980393
H  H121  1  0.56337000  0.23709000  0.58461000  1.0 0.1218980393
H  H122  1  0.93663000  0.26291000  0.58461000  1.0 0.1218980393
H  H123  1  0.43663000  0.73709000  0.91539000  1.0 0.1218980393
H  H124  1  0.06337000  0.76291000  0.91539000  1.0 0.1218980393
H  H125  1  0.43663000  0.76291000  0.41539000  1.0 0.1218980393
H  H126  1  0.06337000  0.73709000  0.41539000  1.0 0.1218980393
H  H127  1  0.56337000  0.26291000  0.08461000  1.0 0.1218980393
H  H128  1  0.93663000  0.23709000  0.08461000  1.0 0.1218980393
H  H129  1  0.56538000  0.23876000  0.65903000  1.0 0.1296075604
H  H130  1  0.93462000  0.26124000  0.65903000  1.0 0.1296075604
H  H131  1  0.43462000  0.73876000  0.84097000  1.0 0.1296075604
H  H132  1  0.06538000  0.76124000  0.84097000  1.0 0.1296075604
H  H133  1  0.43462000  0.76124000  0.34097000  1.0 0.1296075604
H  H134  1  0.06538000  0.73876000  0.34097000  1.0 0.1296075604
H  H135  1  0.56538000  0.26124000  0.15903000  1.0 0.1296075604
H  H136  1  0.93462000  0.23876000  0.15903000  1.0 0.1296075604
H  H137  1  0.49932000  0.15062000  0.80626000  0.4 0.1296075604
H  H138  1  0.00068000  0.34938000  0.80626000  0.4 0.1296075604
H  H139  1  0.50068000  0.65062000  0.69374000  0.4 0.1296075604
H  H140  1  0.99932000  0.84938000  0.69374000  0.4 0.1296075604
H  H141  1  0.50068000  0.84938000  0.19374000  0.4 0.1296075604
H  H142  1  0.99932000  0.65062000  0.19374000  0.4 0.1296075604
H  H143  1  0.49932000  0.34938000  0.30626000  0.4 0.1296075604
H  H144  1  0.00068000  0.15062000  0.30626000  0.4 0.1296075604
H  H145  1  0.46784000  0.17777000  0.84595000  0.4 0.1218980393
H  H146  1  0.03216000  0.32223000  0.84595000  0.4 0.1218980393
H  H147  1  0.53216000  0.67777000  0.65405000  0.4 0.1218980393
H  H148  1  0.96784000  0.82223000  0.65405000  0.4 0.1218980393
H  H149  1  0.53216000  0.82223000  0.15405000  0.4 0.1218980393
H  H150  1  0.96784000  0.67777000  0.15405000  0.4 0.1218980393
H  H151  1  0.46784000  0.32223000  0.34595000  0.4 0.1218980393
H  H152  1  0.03216000  0.17777000  0.34595000  0.4 0.1218980393
C  C1  1  0.58970000  0.37880000  0.81490000  1.0 0.5936949694
C  C2  1  0.91030000  0.12120000  0.81490000  1.0 0.5936949694
C  C3  1  0.41030000  0.87880000  0.68510000  1.0 0.5936949694
C  C4  1  0.08970000  0.62120000  0.68510000  1.0 0.5936949694
C  C5  1  0.41030000  0.62120000  0.18510000  1.0 0.6009623066
C  C6  1  0.08970000  0.87880000  0.18510000  1.0 0.6009623066
C  C7  1  0.58970000  0.12120000  0.31490000  1.0 0.5936949694
C  C8  1  0.91030000  0.37880000  0.31490000  1.0 0.5936949694
C  C9  1  0.55180000  0.42560000  0.80920000  1.0 -0.0325293404
C  C10  1  0.94820000  0.07440000  0.80920000  1.0 -0.0325293404
C  C11  1  0.44820000  0.92560000  0.69080000  1.0 -0.0325293404
C  C12  1  0.05180000  0.57440000  0.69080000  1.0 -0.0325293404
C  C13  1  0.44820000  0.57440000  0.19080000  1.0 -0.0325293404
C  C14  1  0.05180000  0.92560000  0.19080000  1.0 -0.0325293404
C  C15  1  0.55180000  0.07440000  0.30920000  1.0 -0.0325293404
C  C16  1  0.94820000  0.42560000  0.30920000  1.0 -0.0325293404
C  C17  1  0.50170000  0.42470000  0.78270000  1.0 -0.1679855942
C  C18  1  0.99830000  0.07530000  0.78270000  1.0 -0.1679855942
C  C19  1  0.49830000  0.92470000  0.71730000  1.0 -0.1679855942
C  C20  1  0.00170000  0.57530000  0.71730000  1.0 -0.1679855942
C  C21  1  0.49830000  0.57530000  0.21730000  1.0 -0.1679855942
C  C22  1  0.00170000  0.92470000  0.21730000  1.0 -0.1679855942
C  C23  1  0.50170000  0.07530000  0.28270000  1.0 -0.1679855942
C  C24  1  0.99830000  0.42470000  0.28270000  1.0 -0.1679855942
C  C25  1  0.46750000  0.46770000  0.77440000  1.0 0.1000357996
C  C26  1  0.03250000  0.03230000  0.77440000  1.0 0.1000357996
C  C27  1  0.53250000  0.96770000  0.72560000  1.0 0.1058877275
C  C28  1  0.96750000  0.53230000  0.72560000  1.0 0.1058877275
C  C29  1  0.53250000  0.53230000  0.22560000  1.0 0.1000357996
C  C30  1  0.96750000  0.96770000  0.22560000  1.0 0.1058877275
C  C31  1  0.46750000  0.03230000  0.27440000  1.0 0.1000357996
C  C32  1  0.03250000  0.46770000  0.27440000  1.0 0.1000357996
C  C33  1  0.40920000  0.47420000  0.74640000  1.0 -0.2681647325
C  C34  1  0.09080000  0.02580000  0.74640000  1.0 -0.2681647325
C  C35  1  0.59080000  0.97420000  0.75360000  1.0 -0.27525357
C  C36  1  0.90920000  0.52580000  0.75360000  1.0 -0.27525357
C  C37  1  0.59080000  0.52580000  0.25360000  1.0 -0.2681647325
C  C38  1  0.90920000  0.97420000  0.25360000  1.0 -0.2681647325
C  C39  1  0.40920000  0.02580000  0.24640000  1.0 -0.27525357
C  C40  1  0.09080000  0.47420000  0.24640000  1.0 -0.27525357
C  C41  1  0.39760000  0.52990000  0.75070000  1.0 0.1000357996
C  C42  1  0.10240000  0.97010000  0.75070000  1.0 0.1000357996
C  C43  1  0.60240000  0.02990000  0.74930000  1.0 0.1000357996
C  C44  1  0.89760000  0.47010000  0.74930000  1.0 0.1000357996
C  C45  1  0.60240000  0.47010000  0.24930000  1.0 0.1000357996
C  C46  1  0.89760000  0.02990000  0.24930000  1.0 0.1000357996
C  C47  1  0.39760000  0.97010000  0.25070000  1.0 0.1000357996
C  C48  1  0.10240000  0.52990000  0.25070000  1.0 0.1000357996
C  C49  1  0.35350000  0.55960000  0.73260000  1.0 -0.1679855942
C  C50  1  0.14650000  0.94040000  0.73260000  1.0 -0.1679855942
C  C51  1  0.64650000  0.05960000  0.76740000  1.0 -0.1679855942
C  C52  1  0.85350000  0.44040000  0.76740000  1.0 -0.1679855942
C  C53  1  0.64650000  0.44040000  0.26740000  1.0 -0.1679855942
C  C54  1  0.85350000  0.05960000  0.26740000  1.0 -0.1679855942
C  C55  1  0.35350000  0.94040000  0.23260000  1.0 -0.1679855942
C  C56  1  0.14650000  0.55960000  0.23260000  1.0 -0.1679855942
C  C57  1  0.35130000  0.61150000  0.74050000  1.0 -0.0626287263
C  C58  1  0.14870000  0.88850000  0.74050000  1.0 -0.0626287263
C  C59  1  0.64870000  0.11150000  0.75950000  1.0 -0.0626287263
C  C60  1  0.85130000  0.38850000  0.75950000  1.0 -0.0626287263
C  C61  1  0.64870000  0.38850000  0.25950000  1.0 -0.0626287263
C  C62  1  0.85130000  0.11150000  0.25950000  1.0 -0.0626287263
C  C63  1  0.35130000  0.88850000  0.24050000  1.0 -0.0626287263
C  C64  1  0.14870000  0.61150000  0.24050000  1.0 -0.0626287263
C  C65  1  0.39610000  0.63200000  0.76870000  1.0 -0.0980000886
C  C66  1  0.10390000  0.86800000  0.76870000  1.0 -0.0980000886
C  C67  1  0.60390000  0.13200000  0.73130000  1.0 -0.0980000886
C  C68  1  0.89610000  0.36800000  0.73130000  1.0 -0.0980000886
C  C69  1  0.60390000  0.36800000  0.23130000  1.0 -0.0980000886
C  C70  1  0.89610000  0.13200000  0.23130000  1.0 -0.0980000886
C  C71  1  0.39610000  0.86800000  0.26870000  1.0 -0.0980000886
C  C72  1  0.10390000  0.63200000  0.26870000  1.0 -0.0980000886
C  C73  1  0.44240000  0.60350000  0.78900000  1.0 -0.181581763
C  C74  1  0.05760000  0.89650000  0.78900000  1.0 -0.181581763
C  C75  1  0.55760000  0.10350000  0.71100000  1.0 -0.181581763
C  C76  1  0.94240000  0.39650000  0.71100000  1.0 -0.181581763
C  C77  1  0.55760000  0.39650000  0.21100000  1.0 -0.181581763
C  C78  1  0.94240000  0.10350000  0.21100000  1.0 -0.181581763
C  C79  1  0.44240000  0.89650000  0.28900000  1.0 -0.181581763
C  C80  1  0.05760000  0.60350000  0.28900000  1.0 -0.181581763
C  C81  1  0.44390000  0.55310000  0.77940000  1.0 0.0357590333
C  C82  1  0.05610000  0.94690000  0.77940000  1.0 0.0357590333
C  C83  1  0.55610000  0.05310000  0.72060000  1.0 0.0306351246
C  C84  1  0.94390000  0.44690000  0.72060000  1.0 0.0306351246
C  C85  1  0.55610000  0.44690000  0.22060000  1.0 0.0306351246
C  C86  1  0.94390000  0.05310000  0.22060000  1.0 0.0306351246
C  C87  1  0.44390000  0.94690000  0.27940000  1.0 0.0306351246
C  C88  1  0.05610000  0.55310000  0.27940000  1.0 0.0306351246
C  C89  1  0.48630000  0.51460000  0.79350000  1.0 0.0166979224
C  C90  1  0.01370000  0.98540000  0.79350000  1.0 0.0166979224
C  C91  1  0.51370000  0.01460000  0.70650000  1.0 0.0166979224
C  C92  1  0.98630000  0.48540000  0.70650000  1.0 0.0166979224
C  C93  1  0.51370000  0.48540000  0.20650000  1.0 0.0166979224
C  C94  1  0.98630000  0.01460000  0.20650000  1.0 0.0166979224
C  C95  1  0.48630000  0.98540000  0.29350000  1.0 0.0166979224
C  C96  1  0.01370000  0.51460000  0.29350000  1.0 0.0166979224
C  C97  1  0.53550000  0.51660000  0.82010000  1.0 -0.150889505
C  C98  1  0.96450000  0.98340000  0.82010000  1.0 -0.150889505
C  C99  1  0.46450000  0.01660000  0.67990000  1.0 -0.150889505
C  C100  1  0.03550000  0.48340000  0.67990000  1.0 -0.150889505
C  C101  1  0.46450000  0.48340000  0.17990000  1.0 -0.150889505
C  C102  1  0.03550000  0.01660000  0.17990000  1.0 -0.150889505
C  C103  1  0.53550000  0.98340000  0.32010000  1.0 -0.150889505
C  C104  1  0.96450000  0.51660000  0.32010000  1.0 -0.150889505
C  C105  1  0.56820000  0.47310000  0.82910000  1.0 -0.0980000886
C  C106  1  0.93180000  0.02690000  0.82910000  1.0 -0.0980000886
C  C107  1  0.43180000  0.97310000  0.67090000  1.0 -0.094005793
C  C108  1  0.06820000  0.52690000  0.67090000  1.0 -0.094005793
C  C109  1  0.43180000  0.52690000  0.17090000  1.0 -0.094005793
C  C110  1  0.06820000  0.97310000  0.17090000  1.0 -0.094005793
C  C111  1  0.56820000  0.02690000  0.32910000  1.0 -0.094005793
C  C112  1  0.93180000  0.47310000  0.32910000  1.0 -0.094005793
C  C113  1  0.30660000  0.64260000  0.71800000  1.0 0.6009623066
C  C114  1  0.19340000  0.85740000  0.71800000  1.0 0.6009623066
C  C115  1  0.69340000  0.14260000  0.78200000  1.0 0.6009623066
C  C116  1  0.80660000  0.35740000  0.78200000  1.0 0.6009623066
C  C117  1  0.69340000  0.35740000  0.28200000  1.0 0.6009623066
C  C118  1  0.80660000  0.14260000  0.28200000  1.0 0.6009623066
C  C119  1  0.30660000  0.85740000  0.21800000  1.0 0.6009623066
C  C120  1  0.19340000  0.64260000  0.21800000  1.0 0.6009623066
C  C121  1  0.64750000  0.27580000  0.71250000  1.0 0.5936949694
C  C122  1  0.85250000  0.22420000  0.71250000  1.0 0.5936949694
C  C123  1  0.35250000  0.77580000  0.78750000  1.0 0.5936949694
C  C124  1  0.14750000  0.72420000  0.78750000  1.0 0.5936949694
C  C125  1  0.35250000  0.72420000  0.28750000  1.0 0.5936949694
C  C126  1  0.14750000  0.77580000  0.28750000  1.0 0.5936949694
C  C127  1  0.64750000  0.22420000  0.21250000  1.0 0.5936949694
C  C128  1  0.85250000  0.27580000  0.21250000  1.0 0.5936949694
C  C129  1  0.64760000  0.27570000  0.66460000  1.0 -0.0116838043
C  C130  1  0.85240000  0.22430000  0.66460000  1.0 -0.0116838043
C  C131  1  0.35240000  0.77570000  0.83540000  1.0 -0.0116838043
C  C132  1  0.14760000  0.72430000  0.83540000  1.0 -0.0116838043
C  C133  1  0.35240000  0.72430000  0.33540000  1.0 -0.0116838043
C  C134  1  0.14760000  0.77570000  0.33540000  1.0 -0.0116838043
C  C135  1  0.64760000  0.22430000  0.16460000  1.0 -0.0116838043
C  C136  1  0.85240000  0.27570000  0.16460000  1.0 -0.0116838043
C  C137  1  0.69560000  0.29910000  0.64310000  1.0 -0.1643560886
C  C138  1  0.80440000  0.20090000  0.64310000  1.0 -0.1643560886
C  C139  1  0.30440000  0.79910000  0.85690000  1.0 -0.1643560886
C  C140  1  0.19560000  0.70090000  0.85690000  1.0 -0.1643560886
C  C141  1  0.30440000  0.70090000  0.35690000  1.0 -0.1643560886
C  C142  1  0.19560000  0.79910000  0.35690000  1.0 -0.1643560886
C  C143  1  0.69560000  0.20090000  0.14310000  1.0 -0.1643560886
C  C144  1  0.80440000  0.29910000  0.14310000  1.0 -0.1643560886
C  C145  1  0.69370000  0.30140000  0.59940000  1.0 0.0807594723
C  C146  1  0.80630000  0.19860000  0.59940000  1.0 0.0807594723
C  C147  1  0.30630000  0.80140000  0.90060000  1.0 0.0807594723
C  C148  1  0.19370000  0.69860000  0.90060000  1.0 0.0807594723
C  C149  1  0.30630000  0.69860000  0.40060000  1.0 0.0807594723
C  C150  1  0.19370000  0.80140000  0.40060000  1.0 0.0807594723
C  C151  1  0.69370000  0.19860000  0.09940000  1.0 0.0807594723
C  C152  1  0.80630000  0.30140000  0.09940000  1.0 0.0807594723
C  C153  1  0.74000000  0.32320000  0.56911000  1.0 -0.2681647325
C  C154  1  0.76000000  0.17680000  0.56911000  1.0 -0.2681647325
C  C155  1  0.26000000  0.82320000  0.93089000  1.0 -0.2681647325
C  C156  1  0.24000000  0.67680000  0.93089000  1.0 -0.2681647325
C  C157  1  0.26000000  0.67680000  0.43089000  1.0 -0.2681647325
C  C158  1  0.24000000  0.82320000  0.43089000  1.0 -0.2681647325
C  C159  1  0.74000000  0.17680000  0.06911000  1.0 -0.2681647325
C  C160  1  0.76000000  0.32320000  0.06911000  1.0 -0.2681647325
C  C161  1  0.70980000  0.30980000  0.52642000  1.0 0.0807594723
C  C162  1  0.79020000  0.19020000  0.52642000  1.0 0.0807594723
C  C163  1  0.29020000  0.80980000  0.97358000  1.0 0.0807594723
C  C164  1  0.20980000  0.69020000  0.97358000  1.0 0.0807594723
C  C165  1  0.29020000  0.69020000  0.47358000  1.0 0.0807594723
C  C166  1  0.20980000  0.80980000  0.47358000  1.0 0.0807594723
C  C167  1  0.70980000  0.19020000  0.02642000  1.0 0.0807594723
C  C168  1  0.79020000  0.30980000  0.02642000  1.0 0.0807594723
C  C169  1  0.73210000  0.32040000  0.48610000  1.0 -0.181581763
C  C170  1  0.76790000  0.17960000  0.48610000  1.0 -0.181581763
C  C171  1  0.26790000  0.82040000  0.01390000  1.0 -0.181581763
C  C172  1  0.23210000  0.67960000  0.01390000  1.0 -0.181581763
C  C173  1  0.26790000  0.67960000  0.51390000  1.0 -0.181581763
C  C174  1  0.23210000  0.82040000  0.51390000  1.0 -0.181581763
C  C175  1  0.73210000  0.17960000  0.98610000  1.0 -0.181581763
C  C176  1  0.76790000  0.32040000  0.98610000  1.0 -0.181581763
C  C177  1  0.69650000  0.30330000  0.45204000  1.0 0.004690529
C  C178  1  0.80350000  0.19670000  0.45204000  1.0 0.004690529
C  C179  1  0.30350000  0.80330000  0.04796000  1.0 0.004690529
C  C180  1  0.19650000  0.69670000  0.04796000  1.0 0.004690529
C  C181  1  0.30350000  0.69670000  0.54796000  1.0 0.004690529
C  C182  1  0.19650000  0.80330000  0.54796000  1.0 0.004690529
C  C183  1  0.69650000  0.19670000  0.95204000  1.0 0.004690529
C  C184  1  0.80350000  0.30330000  0.95204000  1.0 0.004690529
C  C185  1  0.64140000  0.27530000  0.45830000  1.0 -0.1095834732
C  C186  1  0.85860000  0.22470000  0.45830000  1.0 -0.1095834732
C  C187  1  0.35860000  0.77530000  0.04170000  1.0 -0.1095834732
C  C188  1  0.14140000  0.72470000  0.04170000  1.0 -0.1095834732
C  C189  1  0.35860000  0.72470000  0.54170000  1.0 -0.1095834732
C  C190  1  0.14140000  0.77530000  0.54170000  1.0 -0.1095834732
C  C191  1  0.64140000  0.22470000  0.95830000  1.0 -0.1095834732
C  C192  1  0.85860000  0.27530000  0.95830000  1.0 -0.1095834732
C  C193  1  0.61990000  0.26570000  0.49820000  1.0 -0.150889505
C  C194  1  0.88010000  0.23430000  0.49820000  1.0 -0.150889505
C  C195  1  0.38010000  0.76570000  0.00180000  1.0 -0.150889505
C  C196  1  0.11990000  0.73430000  0.00180000  1.0 -0.150889505
C  C197  1  0.38010000  0.73430000  0.50180000  1.0 -0.150889505
C  C198  1  0.11990000  0.76570000  0.50180000  1.0 -0.150889505
C  C199  1  0.61990000  0.23430000  0.99820000  1.0 -0.150889505
C  C200  1  0.88010000  0.26570000  0.99820000  1.0 -0.150889505
C  C201  1  0.65500000  0.28340000  0.53260000  1.0 0.0141603813
C  C202  1  0.84500000  0.21660000  0.53260000  1.0 0.0141603813
C  C203  1  0.34500000  0.78340000  0.96740000  1.0 0.0141603813
C  C204  1  0.15500000  0.71660000  0.96740000  1.0 0.0141603813
C  C205  1  0.34500000  0.71660000  0.46740000  1.0 0.0141603813
C  C206  1  0.15500000  0.78340000  0.46740000  1.0 0.0141603813
C  C207  1  0.65500000  0.21660000  0.03260000  1.0 0.0141603813
C  C208  1  0.84500000  0.28340000  0.03260000  1.0 0.0141603813
C  C209  1  0.64510000  0.27780000  0.57800000  1.0 0.0306351246
C  C210  1  0.85490000  0.22220000  0.57800000  1.0 0.0306351246
C  C211  1  0.35490000  0.77780000  0.92200000  1.0 0.0306351246
C  C212  1  0.14510000  0.72220000  0.92200000  1.0 0.0306351246
C  C213  1  0.35490000  0.72220000  0.42200000  1.0 0.0306351246
C  C214  1  0.14510000  0.77780000  0.42200000  1.0 0.0306351246
C  C215  1  0.64510000  0.22220000  0.07800000  1.0 0.0306351246
C  C216  1  0.85490000  0.27780000  0.07800000  1.0 0.0306351246
C  C217  1  0.59610000  0.25320000  0.59950000  1.0 -0.1643560886
C  C218  1  0.90390000  0.24680000  0.59950000  1.0 -0.1643560886
C  C219  1  0.40390000  0.75320000  0.90050000  1.0 -0.1643560886
C  C220  1  0.09610000  0.74680000  0.90050000  1.0 -0.1643560886
C  C221  1  0.40390000  0.74680000  0.40050000  1.0 -0.1643560886
C  C222  1  0.09610000  0.75320000  0.40050000  1.0 -0.1643560886
C  C223  1  0.59610000  0.24680000  0.09950000  1.0 -0.1643560886
C  C224  1  0.90390000  0.25320000  0.09950000  1.0 -0.1643560886
C  C225  1  0.59820000  0.25370000  0.64340000  1.0 -0.1168812311
C  C226  1  0.90180000  0.24630000  0.64340000  1.0 -0.1168812311
C  C227  1  0.40180000  0.75370000  0.85660000  1.0 -0.1168812311
C  C228  1  0.09820000  0.74630000  0.85660000  1.0 -0.1168812311
C  C229  1  0.40180000  0.74630000  0.35660000  1.0 -0.1168812311
C  C230  1  0.09820000  0.75370000  0.35660000  1.0 -0.1168812311
C  C231  1  0.59820000  0.24630000  0.14340000  1.0 -0.1168812311
C  C232  1  0.90180000  0.25370000  0.14340000  1.0 -0.1168812311
C  C233  1  0.71960000  0.31440000  0.40780000  1.0 0.5628103629
C  C234  1  0.78040000  0.18560000  0.40780000  1.0 0.5628103629
C  C235  1  0.28040000  0.81440000  0.09220000  1.0 0.5628103629
C  C236  1  0.21960000  0.68560000  0.09220000  1.0 0.5628103629
C  C237  1  0.28040000  0.68560000  0.59220000  1.0 0.5628103629
C  C238  1  0.21960000  0.81440000  0.59220000  1.0 0.5628103629
C  C239  1  0.71960000  0.18560000  0.90780000  1.0 0.5628103629
C  C240  1  0.78040000  0.31440000  0.90780000  1.0 0.5628103629
C  C241  1  0.50810000  0.16930000  0.83260000  0.4 -0.080927824
C  C242  1  0.99190000  0.33070000  0.83260000  0.4 -0.080927824
C  C243  1  0.49190000  0.66930000  0.66740000  0.4 -0.080927824
C  C244  1  0.00810000  0.83070000  0.66740000  0.4 -0.080927824
C  C245  1  0.49190000  0.83070000  0.16740000  0.4 -0.080927824
C  C246  1  0.00810000  0.66930000  0.16740000  0.4 -0.080927824
C  C247  1  0.50810000  0.33070000  0.33260000  0.4 -0.080927824
C  C248  1  0.99190000  0.16930000  0.33260000  0.4 -0.080927824
Cl  Cl1  1  0.54830000  0.22440000  0.82050000  0.4 -0.0980000886
Cl  Cl2  1  0.95170000  0.27560000  0.82050000  0.4 -0.0980000886
Cl  Cl3  1  0.45170000  0.72440000  0.67950000  0.4 -0.0980000886
Cl  Cl4  1  0.04830000  0.77560000  0.67950000  0.4 -0.0980000886
Cl  Cl5  1  0.45170000  0.77560000  0.17950000  0.4 -0.0980000886
Cl  Cl6  1  0.04830000  0.72440000  0.17950000  0.4 -0.0980000886
Cl  Cl7  1  0.54830000  0.27560000  0.32050000  0.4 -0.0980000886
Cl  Cl8  1  0.95170000  0.22440000  0.32050000  0.4 -0.0980000886
Cl  Cl9  1  0.55170000  0.13130000  0.86690000  0.4 -0.133823731
Cl  Cl10  1  0.94830000  0.36870000  0.86690000  0.4 -0.133823731
Cl  Cl11  1  0.44830000  0.63130000  0.63310000  0.4 -0.133823731
Cl  Cl12  1  0.05170000  0.86870000  0.63310000  0.4 -0.133823731
Cl  Cl13  1  0.44830000  0.86870000  0.13310000  0.4 -0.1368076487
Cl  Cl14  1  0.05170000  0.63130000  0.13310000  0.4 -0.1368076487
Cl  Cl15  1  0.55170000  0.36870000  0.36690000  0.4 -0.133823731
Cl  Cl16  1  0.94830000  0.13130000  0.36690000  0.4 -0.133823731
O  O1  1  0.68760000  0.27661000  0.82136000  1.0 -0.8559803128
O  O2  1  0.81240000  0.22339000  0.82136000  1.0 -0.8559803128
O  O3  1  0.31240000  0.77661000  0.67864000  1.0 -0.8559803128
O  O4  1  0.18760000  0.72339000  0.67864000  1.0 -0.8559803128
O  O5  1  0.31240000  0.72339000  0.17864000  1.0 -0.8559803128
O  O6  1  0.18760000  0.77661000  0.17864000  1.0 -0.8559803128
O  O7  1  0.68760000  0.22339000  0.32136000  1.0 -0.8559803128
O  O8  1  0.81240000  0.27661000  0.32136000  1.0 -0.8559803128
O  O9  1  0.57150000  0.34048000  0.79911000  1.0 -0.5045633897
O  O10  1  0.92850000  0.15952000  0.79911000  1.0 -0.5045633897
O  O11  1  0.42850000  0.84048000  0.70089000  1.0 -0.5107855277
O  O12  1  0.07150000  0.65952000  0.70089000  1.0 -0.5107855277
O  O13  1  0.42850000  0.65952000  0.20089000  1.0 -0.5107855277
O  O14  1  0.07150000  0.84048000  0.20089000  1.0 -0.5045633897
O  O15  1  0.57150000  0.15952000  0.29911000  1.0 -0.5107855277
O  O16  1  0.92850000  0.34048000  0.29911000  1.0 -0.5107855277
O  O17  1  0.63740000  0.38542000  0.83858000  1.0 -0.5369416545
O  O18  1  0.86260000  0.11458000  0.83858000  1.0 -0.5369416545
O  O19  1  0.36260000  0.88542000  0.66142000  1.0 -0.5369416545
O  O20  1  0.13740000  0.61458000  0.66142000  1.0 -0.5369416545
O  O21  1  0.36260000  0.61458000  0.16142000  1.0 -0.5346326396
O  O22  1  0.13740000  0.88542000  0.16142000  1.0 -0.5346326396
O  O23  1  0.63740000  0.11458000  0.33858000  1.0 -0.5369416545
O  O24  1  0.86260000  0.38542000  0.33858000  1.0 -0.5369416545
O  O25  1  0.26780000  0.62208000  0.69439000  1.0 -0.5107855277
O  O26  1  0.23220000  0.87792000  0.69439000  1.0 -0.5107855277
O  O27  1  0.73220000  0.12208000  0.80561000  1.0 -0.5107855277
O  O28  1  0.76780000  0.37792000  0.80561000  1.0 -0.5107855277
O  O29  1  0.73220000  0.37792000  0.30561000  1.0 -0.5107855277
O  O30  1  0.76780000  0.12208000  0.30561000  1.0 -0.5107855277
O  O31  1  0.26780000  0.87792000  0.19439000  1.0 -0.5107855277
O  O32  1  0.23220000  0.62208000  0.19439000  1.0 -0.5107855277
O  O33  1  0.30990000  0.68947000  0.72644000  1.0 -0.5906430095
O  O34  1  0.19010000  0.81053000  0.72644000  1.0 -0.5906430095
O  O35  1  0.69010000  0.18947000  0.77356000  1.0 -0.5906430095
O  O36  1  0.80990000  0.31053000  0.77356000  1.0 -0.5906430095
O  O37  1  0.69010000  0.31053000  0.27356000  1.0 -0.5906430095
O  O38  1  0.80990000  0.18947000  0.27356000  1.0 -0.5906430095
O  O39  1  0.30990000  0.81053000  0.22644000  1.0 -0.5906430095
O  O40  1  0.19010000  0.68947000  0.22644000  1.0 -0.5906430095
O  O41  1  0.59900000  0.26302000  0.73139000  1.0 -0.5181884154
O  O42  1  0.90100000  0.23698000  0.73139000  1.0 -0.5181884154
O  O43  1  0.40100000  0.76302000  0.76861000  1.0 -0.5181884154
O  O44  1  0.09900000  0.73698000  0.76861000  1.0 -0.5181884154
O  O45  1  0.40100000  0.73698000  0.26861000  1.0 -0.5181884154
O  O46  1  0.09900000  0.76302000  0.26861000  1.0 -0.5181884154
O  O47  1  0.59900000  0.23698000  0.23139000  1.0 -0.5181884154
O  O48  1  0.90100000  0.26302000  0.23139000  1.0 -0.5181884154
O  O49  1  0.69780000  0.28834000  0.73040000  1.0 -0.5469802007
O  O50  1  0.80220000  0.21166000  0.73040000  1.0 -0.5469802007
O  O51  1  0.30220000  0.78834000  0.76960000  1.0 -0.5469802007
O  O52  1  0.19780000  0.71166000  0.76960000  1.0 -0.5469802007
O  O53  1  0.30220000  0.71166000  0.26960000  1.0 -0.5469802007
O  O54  1  0.19780000  0.78834000  0.26960000  1.0 -0.5469802007
O  O55  1  0.69780000  0.21166000  0.23040000  1.0 -0.5469802007
O  O56  1  0.80220000  0.28834000  0.23040000  1.0 -0.5469802007
O  O57  1  0.76920000  0.33976000  0.40367000  1.0 -0.5346326396
O  O58  1  0.73080000  0.16024000  0.40367000  1.0 -0.5346326396
O  O59  1  0.23080000  0.83976000  0.09633000  1.0 -0.5346326396
O  O60  1  0.26920000  0.66024000  0.09633000  1.0 -0.5346326396
O  O61  1  0.23080000  0.66024000  0.59633000  1.0 -0.5346326396
O  O62  1  0.26920000  0.83976000  0.59633000  1.0 -0.5346326396
O  O63  1  0.76920000  0.16024000  0.90367000  1.0 -0.5346326396
O  O64  1  0.73080000  0.33976000  0.90367000  1.0 -0.5346326396
O  O65  1  0.68720000  0.29857000  0.37781000  1.0 -0.5369416545
O  O66  1  0.81280000  0.20143000  0.37781000  1.0 -0.5369416545
O  O67  1  0.31280000  0.79857000  0.12219000  1.0 -0.5369416545
O  O68  1  0.18720000  0.70143000  0.12219000  1.0 -0.5369416545
O  O69  1  0.31280000  0.70143000  0.62219000  1.0 -0.5369416545
O  O70  1  0.18720000  0.79857000  0.62219000  1.0 -0.5369416545
O  O71  1  0.68720000  0.20143000  0.87781000  1.0 -0.5369416545
O  O72  1  0.81280000  0.29857000  0.87781000  1.0 -0.5369416545
