# DDEC6 charges by PACMAN v1.1 (https://github.com/mtap-research/PACMAN-charge/)
data_c7cc03350h2_FSR_pacman
_symmetry_space_group_name_H-M   'P 1'
_cell_length_a   12.42670000
_cell_length_b   12.42670000
_cell_length_c   27.15770000
_cell_angle_alpha   90.00000000
_cell_angle_beta   90.00000000
_cell_angle_gamma   90.00000000
_symmetry_Int_Tables_number   1
_chemical_formula_structural   Zn6H32C52N20O17
_chemical_formula_sum   'Zn12 H64 C104 N40 O34'
_cell_volume   4193.77005508
_cell_formula_units_Z   2
loop_
 _symmetry_equiv_pos_site_id
 _symmetry_equiv_pos_as_xyz
  1  'x, y, z'
loop_
 _atom_site_type_symbol
 _atom_site_label
 _atom_site_symmetry_multiplicity
 _atom_site_fract_x
 _atom_site_fract_y
 _atom_site_fract_z
 _atom_site_occupancy
 _atom_site_charge
Zn  Zn1  1  0.41136000  0.40601000  0.04106000  1.0 0.6080235637
Zn  Zn2  1  0.58864000  0.59399000  0.04106000  1.0 0.6080235637
Zn  Zn3  1  0.40601000  0.58864000  0.95894000  1.0 0.6080235637
Zn  Zn4  1  0.59399000  0.41136000  0.95894000  1.0 0.6080235637
Zn  Zn5  1  0.08864000  0.90601000  0.45894000  1.0 0.6080235637
Zn  Zn6  1  0.91136000  0.09399000  0.45894000  1.0 0.6080235637
Zn  Zn7  1  0.09399000  0.08864000  0.54106000  1.0 0.6080235637
Zn  Zn8  1  0.90601000  0.91136000  0.54106000  1.0 0.6080235637
Zn  Zn9  1  0.99080000  0.53770000  0.14603000  0.25 0.2870625279
Zn  Zn10  1  0.00070000  0.49120000  0.14583000  0.25 0.3840059547
Zn  Zn11  1  0.00920000  0.46230000  0.14603000  0.25 0.2870625279
Zn  Zn12  1  0.99930000  0.50880000  0.14583000  0.25 0.3840059547
Zn  Zn13  1  0.53770000  0.00920000  0.85397000  0.25 0.2870625279
Zn  Zn14  1  0.49120000  0.99930000  0.85417000  0.25 0.3840059547
Zn  Zn15  1  0.46230000  0.99080000  0.85397000  0.25 0.2870625279
Zn  Zn16  1  0.50880000  0.00070000  0.85417000  0.25 0.3840059547
Zn  Zn17  1  0.50920000  0.03770000  0.35397000  0.25 0.2870625279
Zn  Zn18  1  0.49930000  0.99120000  0.35417000  0.25 0.3840059547
Zn  Zn19  1  0.49080000  0.96230000  0.35397000  0.25 0.2870625279
Zn  Zn20  1  0.50070000  0.00880000  0.35417000  0.25 0.3840059547
Zn  Zn21  1  0.96230000  0.50920000  0.64603000  0.25 0.2870625279
Zn  Zn22  1  0.00880000  0.49930000  0.64583000  0.25 0.3840059547
Zn  Zn23  1  0.03770000  0.49080000  0.64603000  0.25 0.2870625279
Zn  Zn24  1  0.99120000  0.50070000  0.64583000  0.25 0.3840059547
H  H1  1  0.19640000  0.27920000  0.22190000  0.5 0.0896223733
H  H2  1  0.26390000  0.16660000  0.28360000  0.5 0.0798854122
H  H3  1  0.15710000  0.12420000  0.35190000  0.5 0.0694917685
H  H4  1  0.91560000  0.30710000  0.29670000  0.5 0.0995729041
H  H5  1  0.98050000  0.69070000  0.10770000  0.5 0.0896223733
H  H6  1  0.98080000  0.78960000  0.07450000  0.5 0.1305101265
H  H7  1  0.22220000  0.37520000  0.11590000  0.5 0.0296174048
H  H8  1  0.25210000  0.77310000  0.97090000  0.5 0.0896223733
H  H9  1  0.20970000  0.12920000  0.20930000  0.5 0.0798854122
H  H10  1  0.23960000  0.02220000  0.27880000  0.5 0.0798854122
H  H11  1  0.12960000  0.04110000  0.34820000  0.5 0.0632794856
H  H12  1  0.95970000  0.27410000  0.27850000  0.5 0.0995729041
H  H13  1  0.96900000  0.80690000  0.04650000  0.5 0.1206707305
H  H14  1  0.96600000  0.72020000  0.08620000  0.5 0.1109796103
H  H15  1  0.21080000  0.41370000  0.11690000  0.5 0.0995729041
H  H16  1  0.24280000  0.76330000  0.94840000  0.5 0.0296174048
H  H17  1  0.80360000  0.72080000  0.22190000  0.5 0.0896223733
H  H18  1  0.73610000  0.83340000  0.28360000  0.5 0.0798854122
H  H19  1  0.84290000  0.87580000  0.35190000  0.5 0.0694917685
H  H20  1  0.08440000  0.69290000  0.29670000  0.5 0.0995729041
H  H21  1  0.01950000  0.30930000  0.10770000  0.5 0.0896223733
H  H22  1  0.01920000  0.21040000  0.07450000  0.5 0.1305101265
H  H23  1  0.77780000  0.62480000  0.11590000  0.5 0.0296174048
H  H24  1  0.74790000  0.22690000  0.97090000  0.5 0.0896223733
H  H25  1  0.79030000  0.87080000  0.20930000  0.5 0.0798854122
H  H26  1  0.76040000  0.97780000  0.27880000  0.5 0.0798854122
H  H27  1  0.87040000  0.95890000  0.34820000  0.5 0.0632794856
H  H28  1  0.04030000  0.72590000  0.27850000  0.5 0.0995729041
H  H29  1  0.03100000  0.19310000  0.04650000  0.5 0.1206707305
H  H30  1  0.03400000  0.27980000  0.08620000  0.5 0.1109796103
H  H31  1  0.78920000  0.58630000  0.11690000  0.5 0.0995729041
H  H32  1  0.75720000  0.23670000  0.94840000  0.5 0.0296174048
H  H33  1  0.27920000  0.80360000  0.77810000  0.5 0.0896223733
H  H34  1  0.16660000  0.73610000  0.71640000  0.5 0.0798854122
H  H35  1  0.12420000  0.84290000  0.64810000  0.5 0.0694917685
H  H36  1  0.30710000  0.08440000  0.70330000  0.5 0.0995729041
H  H37  1  0.69070000  0.01950000  0.89230000  0.5 0.0896223733
H  H38  1  0.78960000  0.01920000  0.92550000  0.5 0.1305101265
H  H39  1  0.37520000  0.77780000  0.88410000  0.5 0.0296174048
H  H40  1  0.77310000  0.74790000  0.02910000  0.5 0.0896223733
H  H41  1  0.12920000  0.79030000  0.79070000  0.5 0.0798854122
H  H42  1  0.02220000  0.76040000  0.72120000  0.5 0.0798854122
H  H43  1  0.04110000  0.87040000  0.65180000  0.5 0.0632794856
H  H44  1  0.27410000  0.04030000  0.72150000  0.5 0.0995729041
H  H45  1  0.80690000  0.03100000  0.95350000  0.5 0.1206707305
H  H46  1  0.72020000  0.03400000  0.91380000  0.5 0.1109796103
H  H47  1  0.41370000  0.78920000  0.88310000  0.5 0.0995729041
H  H48  1  0.76330000  0.75720000  0.05160000  0.5 0.0296174048
H  H49  1  0.72080000  0.19640000  0.77810000  0.5 0.0896223733
H  H50  1  0.83340000  0.26390000  0.71640000  0.5 0.0798854122
H  H51  1  0.87580000  0.15710000  0.64810000  0.5 0.0694917685
H  H52  1  0.69290000  0.91560000  0.70330000  0.5 0.0995729041
H  H53  1  0.30930000  0.98050000  0.89230000  0.5 0.0896223733
H  H54  1  0.21040000  0.98080000  0.92550000  0.5 0.1305101265
H  H55  1  0.62480000  0.22220000  0.88410000  0.5 0.0296174048
H  H56  1  0.22690000  0.25210000  0.02910000  0.5 0.0896223733
H  H57  1  0.87080000  0.20970000  0.79070000  0.5 0.0798854122
H  H58  1  0.97780000  0.23960000  0.72120000  0.5 0.0798854122
H  H59  1  0.95890000  0.12960000  0.65180000  0.5 0.0632794856
H  H60  1  0.72590000  0.95970000  0.72150000  0.5 0.0995729041
H  H61  1  0.19310000  0.96900000  0.95350000  0.5 0.1206707305
H  H62  1  0.27980000  0.96600000  0.91380000  0.5 0.1109796103
H  H63  1  0.58630000  0.21080000  0.88310000  0.5 0.0995729041
H  H64  1  0.23670000  0.24280000  0.05160000  0.5 0.0296174048
H  H65  1  0.30360000  0.77920000  0.27810000  0.5 0.0896223733
H  H66  1  0.23610000  0.66666667  0.21640000  0.5 0.0798854122
H  H67  1  0.34290000  0.62420000  0.14810000  0.5 0.0694917685
H  H68  1  0.58440000  0.80710000  0.20330000  0.5 0.0995729041
H  H69  1  0.51950000  0.19070000  0.39230000  0.5 0.0896223733
H  H70  1  0.51920000  0.28960000  0.42550000  0.5 0.1305101265
H  H71  1  0.27780000  0.87520000  0.38410000  0.5 0.0296174048
H  H72  1  0.24790000  0.27310000  0.52910000  0.5 0.0896223733
H  H73  1  0.29030000  0.62920000  0.29070000  0.5 0.0798854122
H  H74  1  0.26040000  0.52220000  0.22120000  0.5 0.0798854122
H  H75  1  0.37040000  0.54110000  0.15180000  0.5 0.0632794856
H  H76  1  0.54030000  0.77410000  0.22150000  0.5 0.0995729041
H  H77  1  0.53100000  0.30690000  0.45350000  0.5 0.1206707305
H  H78  1  0.53400000  0.22020000  0.41380000  0.5 0.1109796103
H  H79  1  0.28920000  0.91370000  0.38310000  0.5 0.0995729041
H  H80  1  0.25720000  0.26330000  0.55160000  0.5 0.0296174048
H  H81  1  0.69640000  0.22080000  0.27810000  0.5 0.0896223733
H  H82  1  0.76390000  0.33340000  0.21640000  0.5 0.0798854122
H  H83  1  0.65710000  0.37580000  0.14810000  0.5 0.0694917685
H  H84  1  0.41560000  0.19290000  0.20330000  0.5 0.0995729041
H  H85  1  0.48050000  0.80930000  0.39230000  0.5 0.0896223733
H  H86  1  0.48080000  0.71040000  0.42550000  0.5 0.1305101265
H  H87  1  0.72220000  0.12480000  0.38410000  0.5 0.0296174048
H  H88  1  0.75210000  0.72690000  0.52910000  0.5 0.0896223733
H  H89  1  0.70970000  0.37080000  0.29070000  0.5 0.0798854122
H  H90  1  0.73960000  0.47780000  0.22120000  0.5 0.0798854122
H  H91  1  0.62960000  0.45890000  0.15180000  0.5 0.0632794856
H  H92  1  0.45970000  0.22590000  0.22150000  0.5 0.0995729041
H  H93  1  0.46900000  0.69310000  0.45350000  0.5 0.1206707305
H  H94  1  0.46600000  0.77980000  0.41380000  0.5 0.1109796103
H  H95  1  0.71080000  0.08630000  0.38310000  0.5 0.0995729041
H  H96  1  0.74280000  0.73670000  0.55160000  0.5 0.0296174048
H  H97  1  0.22080000  0.30360000  0.72190000  0.5 0.0896223733
H  H98  1  0.33340000  0.23610000  0.78360000  0.5 0.0798854122
H  H99  1  0.37580000  0.34290000  0.85190000  0.5 0.0694917685
H  H100  1  0.19290000  0.58440000  0.79670000  0.5 0.0995729041
H  H101  1  0.80930000  0.51950000  0.60770000  0.5 0.0896223733
H  H102  1  0.71040000  0.51920000  0.57450000  0.5 0.1305101265
H  H103  1  0.12480000  0.27780000  0.61590000  0.5 0.0296174048
H  H104  1  0.72690000  0.24790000  0.47090000  0.5 0.0896223733
H  H105  1  0.37080000  0.29030000  0.70930000  0.5 0.0798854122
H  H106  1  0.47780000  0.26040000  0.77880000  0.5 0.0798854122
H  H107  1  0.45890000  0.37040000  0.84820000  0.5 0.0632794856
H  H108  1  0.22590000  0.54030000  0.77850000  0.5 0.0995729041
H  H109  1  0.69310000  0.53100000  0.54650000  0.5 0.1206707305
H  H110  1  0.77980000  0.53400000  0.58620000  0.5 0.1109796103
H  H111  1  0.08630000  0.28920000  0.61690000  0.5 0.0995729041
H  H112  1  0.73670000  0.25720000  0.44840000  0.5 0.0296174048
H  H113  1  0.77920000  0.69640000  0.72190000  0.5 0.0896223733
H  H114  1  0.66666667  0.76390000  0.78360000  0.5 0.0798854122
H  H115  1  0.62420000  0.65710000  0.85190000  0.5 0.0694917685
H  H116  1  0.80710000  0.41560000  0.79670000  0.5 0.0995729041
H  H117  1  0.19070000  0.48050000  0.60770000  0.5 0.0896223733
H  H118  1  0.28960000  0.48080000  0.57450000  0.5 0.1305101265
H  H119  1  0.87520000  0.72220000  0.61590000  0.5 0.0296174048
H  H120  1  0.27310000  0.75210000  0.47090000  0.5 0.0896223733
H  H121  1  0.62920000  0.70970000  0.70930000  0.5 0.0798854122
H  H122  1  0.52220000  0.73960000  0.77880000  0.5 0.0798854122
H  H123  1  0.54110000  0.62960000  0.84820000  0.5 0.0632794856
H  H124  1  0.77410000  0.45970000  0.77850000  0.5 0.0995729041
H  H125  1  0.30690000  0.46900000  0.54650000  0.5 0.1206707305
H  H126  1  0.22020000  0.46600000  0.58620000  0.5 0.1109796103
H  H127  1  0.91370000  0.71080000  0.61690000  0.5 0.0995729041
H  H128  1  0.26330000  0.74280000  0.44840000  0.5 0.0296174048
C  C1  1  0.00240000  0.37650000  0.21480000  0.5 0.0995729041
C  C2  1  0.04970000  0.30370000  0.25350000  0.5 -0.0015878191
C  C3  1  0.15310000  0.26200000  0.24960000  0.5 -0.0502379813
C  C4  1  0.19320000  0.19510000  0.28630000  0.5 -0.0502379813
C  C5  1  0.12980000  0.16990000  0.32680000  0.5 -0.0209602122
C  C6  1  0.02630000  0.21160000  0.33070000  0.5 -0.0434330448
C  C7  1  0.98630000  0.27850000  0.29400000  0.5 -0.1365920256
C  C8  1  0.95520000  0.18620000  0.37410000  0.5 0.4075528442
C  C9  1  0.21270000  0.44020000  0.09800000  0.5 0.0296174048
C  C10  1  0.24140000  0.56570000  0.04460000  0.5 0.2369332558
C  C11  1  0.15060000  0.59510000  0.07130000  0.5 0.0296174048
C  C12  1  0.09760000  0.69080000  0.06060000  0.5 0.0632794856
C  C13  1  0.22620000  0.72780000  0.99650000  0.5 0.0995729041
C  C14  1  0.06350000  0.27960000  0.19280000  0.5 0.2659393011
C  C15  1  0.08190000  0.21170000  0.23740000  0.5 -0.0209602122
C  C16  1  0.16500000  0.13690000  0.23750000  0.5 -0.0558503538
C  C17  1  0.18280000  0.07330000  0.27880000  0.5 -0.1668173594
C  C18  1  0.11740000  0.08460000  0.32000000  0.5 -0.1030877882
C  C19  1  0.03430000  0.15940000  0.31990000  0.5 0.0128862376
C  C20  1  0.01650000  0.22300000  0.27860000  0.5 -0.0558503538
C  C21  1  0.96890000  0.16490000  0.36670000  0.5 0.3968585229
C  C22  1  0.20350000  0.47170000  0.09430000  0.5 0.1305101265
C  C23  1  0.23340000  0.57910000  0.03410000  0.5 0.2315907593
C  C24  1  0.14110000  0.61410000  0.05820000  0.5 -0.0502379813
C  C25  1  0.08670000  0.70470000  0.04140000  0.5 0.1731695479
C  C26  1  0.21690000  0.72530000  0.97640000  0.5 0.0798854122
C  C27  1  0.99760000  0.62350000  0.21480000  0.5 0.0995729041
C  C28  1  0.95030000  0.69630000  0.25350000  0.5 -0.0015878191
C  C29  1  0.84690000  0.73800000  0.24960000  0.5 -0.0502379813
C  C30  1  0.80680000  0.80490000  0.28630000  0.5 -0.0502379813
C  C31  1  0.87020000  0.83010000  0.32680000  0.5 -0.0209602122
C  C32  1  0.97370000  0.78840000  0.33070000  0.5 -0.0434330448
C  C33  1  0.01370000  0.72150000  0.29400000  0.5 -0.1365920256
C  C34  1  0.04480000  0.81380000  0.37410000  0.5 0.4075528442
C  C35  1  0.78730000  0.55980000  0.09800000  0.5 0.0296174048
C  C36  1  0.75860000  0.43430000  0.04460000  0.5 0.2369332558
C  C37  1  0.84940000  0.40490000  0.07130000  0.5 0.0296174048
C  C38  1  0.90240000  0.30920000  0.06060000  0.5 0.0632794856
C  C39  1  0.77380000  0.27220000  0.99650000  0.5 0.0995729041
C  C40  1  0.93650000  0.72040000  0.19280000  0.5 0.2659393011
C  C41  1  0.91810000  0.78830000  0.23740000  0.5 -0.0209602122
C  C42  1  0.83500000  0.86310000  0.23750000  0.5 -0.0558503538
C  C43  1  0.81720000  0.92670000  0.27880000  0.5 -0.1668173594
C  C44  1  0.88260000  0.91540000  0.32000000  0.5 -0.1030877882
C  C45  1  0.96570000  0.84060000  0.31990000  0.5 0.0128862376
C  C46  1  0.98350000  0.77700000  0.27860000  0.5 -0.0558503538
C  C47  1  0.03110000  0.83510000  0.36670000  0.5 0.3968585229
C  C48  1  0.79650000  0.52830000  0.09430000  0.5 0.1305101265
C  C49  1  0.76660000  0.42090000  0.03410000  0.5 0.2315907593
C  C50  1  0.85890000  0.38590000  0.05820000  0.5 -0.0502379813
C  C51  1  0.91330000  0.29530000  0.04140000  0.5 0.1731695479
C  C52  1  0.78310000  0.27470000  0.97640000  0.5 0.0798854122
C  C53  1  0.37650000  0.99760000  0.78520000  0.5 0.0995729041
C  C54  1  0.30370000  0.95030000  0.74650000  0.5 -0.0015878191
C  C55  1  0.26200000  0.84690000  0.75040000  0.5 -0.0502379813
C  C56  1  0.19510000  0.80680000  0.71370000  0.5 -0.0502379813
C  C57  1  0.16990000  0.87020000  0.67320000  0.5 -0.0209602122
C  C58  1  0.21160000  0.97370000  0.66930000  0.5 -0.0434330448
C  C59  1  0.27850000  0.01370000  0.70600000  0.5 -0.1365920256
C  C60  1  0.18620000  0.04480000  0.62590000  0.5 0.4075528442
C  C61  1  0.44020000  0.78730000  0.90200000  0.5 0.0296174048
C  C62  1  0.56570000  0.75860000  0.95540000  0.5 0.2369332558
C  C63  1  0.59510000  0.84940000  0.92870000  0.5 0.0296174048
C  C64  1  0.69080000  0.90240000  0.93940000  0.5 0.0632794856
C  C65  1  0.72780000  0.77380000  0.00350000  0.5 0.0995729041
C  C66  1  0.27960000  0.93650000  0.80720000  0.5 0.2659393011
C  C67  1  0.21170000  0.91810000  0.76260000  0.5 -0.0209602122
C  C68  1  0.13690000  0.83500000  0.76250000  0.5 -0.0558503538
C  C69  1  0.07330000  0.81720000  0.72120000  0.5 -0.1668173594
C  C70  1  0.08460000  0.88260000  0.68000000  0.5 -0.1030877882
C  C71  1  0.15940000  0.96570000  0.68010000  0.5 0.0128862376
C  C72  1  0.22300000  0.98350000  0.72140000  0.5 -0.0558503538
C  C73  1  0.16490000  0.03110000  0.63330000  0.5 0.3968585229
C  C74  1  0.47170000  0.79650000  0.90570000  0.5 0.1305101265
C  C75  1  0.57910000  0.76660000  0.96590000  0.5 0.2315907593
C  C76  1  0.61410000  0.85890000  0.94180000  0.5 -0.0502379813
C  C77  1  0.70470000  0.91330000  0.95860000  0.5 0.1731695479
C  C78  1  0.72530000  0.78310000  0.02360000  0.5 0.0798854122
C  C79  1  0.62350000  0.00240000  0.78520000  0.5 0.0995729041
C  C80  1  0.69630000  0.04970000  0.74650000  0.5 -0.0015878191
C  C81  1  0.73800000  0.15310000  0.75040000  0.5 -0.0502379813
C  C82  1  0.80490000  0.19320000  0.71370000  0.5 -0.0502379813
C  C83  1  0.83010000  0.12980000  0.67320000  0.5 -0.0209602122
C  C84  1  0.78840000  0.02630000  0.66930000  0.5 -0.0434330448
C  C85  1  0.72150000  0.98630000  0.70600000  0.5 -0.1365920256
C  C86  1  0.81380000  0.95520000  0.62590000  0.5 0.4075528442
C  C87  1  0.55980000  0.21270000  0.90200000  0.5 0.0296174048
C  C88  1  0.43430000  0.24140000  0.95540000  0.5 0.2369332558
C  C89  1  0.40490000  0.15060000  0.92870000  0.5 0.0296174048
C  C90  1  0.30920000  0.09760000  0.93940000  0.5 0.0632794856
C  C91  1  0.27220000  0.22620000  0.00350000  0.5 0.0995729041
C  C92  1  0.72040000  0.06350000  0.80720000  0.5 0.2659393011
C  C93  1  0.78830000  0.08190000  0.76260000  0.5 -0.0209602122
C  C94  1  0.86310000  0.16500000  0.76250000  0.5 -0.0558503538
C  C95  1  0.92670000  0.18280000  0.72120000  0.5 -0.1668173594
C  C96  1  0.91540000  0.11740000  0.68000000  0.5 -0.1030877882
C  C97  1  0.84060000  0.03430000  0.68010000  0.5 0.0128862376
C  C98  1  0.77700000  0.01650000  0.72140000  0.5 -0.0558503538
C  C99  1  0.83510000  0.96890000  0.63330000  0.5 0.3968585229
C  C100  1  0.52830000  0.20350000  0.90570000  0.5 0.1305101265
C  C101  1  0.42090000  0.23340000  0.96590000  0.5 0.2315907593
C  C102  1  0.38590000  0.14110000  0.94180000  0.5 -0.0502379813
C  C103  1  0.29530000  0.08670000  0.95860000  0.5 0.1731695479
C  C104  1  0.27470000  0.21690000  0.02360000  0.5 0.0798854122
C  C105  1  0.49760000  0.87650000  0.28520000  0.5 0.0995729041
C  C106  1  0.45030000  0.80370000  0.24650000  0.5 -0.0015878191
C  C107  1  0.34690000  0.76200000  0.25040000  0.5 -0.0502379813
C  C108  1  0.30680000  0.69510000  0.21370000  0.5 -0.0502379813
C  C109  1  0.37020000  0.66990000  0.17320000  0.5 -0.0209602122
C  C110  1  0.47370000  0.71160000  0.16930000  0.5 -0.0434330448
C  C111  1  0.51370000  0.77850000  0.20600000  0.5 -0.1365920256
C  C112  1  0.54480000  0.68620000  0.12590000  0.5 0.4075528442
C  C113  1  0.28730000  0.94020000  0.40200000  0.5 0.0296174048
C  C114  1  0.25860000  0.06570000  0.45540000  0.5 0.2369332558
C  C115  1  0.34940000  0.09510000  0.42870000  0.5 0.0296174048
C  C116  1  0.40240000  0.19080000  0.43940000  0.5 0.0632794856
C  C117  1  0.27380000  0.22780000  0.50350000  0.5 0.0995729041
C  C118  1  0.43650000  0.77960000  0.30720000  0.5 0.2659393011
C  C119  1  0.41810000  0.71170000  0.26260000  0.5 -0.0209602122
C  C120  1  0.33500000  0.63690000  0.26250000  0.5 -0.0558503538
C  C121  1  0.31720000  0.57330000  0.22120000  0.5 -0.1668173594
C  C122  1  0.38260000  0.58460000  0.18000000  0.5 -0.1030877882
C  C123  1  0.46570000  0.65940000  0.18010000  0.5 0.0128862376
C  C124  1  0.48350000  0.72300000  0.22140000  0.5 -0.0558503538
C  C125  1  0.53110000  0.66490000  0.13330000  0.5 0.3968585229
C  C126  1  0.29650000  0.97170000  0.40570000  0.5 0.1305101265
C  C127  1  0.26660000  0.07910000  0.46590000  0.5 0.2315907593
C  C128  1  0.35890000  0.11410000  0.44180000  0.5 -0.0502379813
C  C129  1  0.41330000  0.20470000  0.45860000  0.5 0.1731695479
C  C130  1  0.28310000  0.22530000  0.52360000  0.5 0.0798854122
C  C131  1  0.50240000  0.12350000  0.28520000  0.5 0.0995729041
C  C132  1  0.54970000  0.19630000  0.24650000  0.5 -0.0015878191
C  C133  1  0.65310000  0.23800000  0.25040000  0.5 -0.0502379813
C  C134  1  0.69320000  0.30490000  0.21370000  0.5 -0.0502379813
C  C135  1  0.62980000  0.33010000  0.17320000  0.5 -0.0209602122
C  C136  1  0.52630000  0.28840000  0.16930000  0.5 -0.0434330448
C  C137  1  0.48630000  0.22150000  0.20600000  0.5 -0.1365920256
C  C138  1  0.45520000  0.31380000  0.12590000  0.5 0.4075528442
C  C139  1  0.71270000  0.05980000  0.40200000  0.5 0.0296174048
C  C140  1  0.74140000  0.93430000  0.45540000  0.5 0.2369332558
C  C141  1  0.65060000  0.90490000  0.42870000  0.5 0.0296174048
C  C142  1  0.59760000  0.80920000  0.43940000  0.5 0.0632794856
C  C143  1  0.72620000  0.77220000  0.50350000  0.5 0.0995729041
C  C144  1  0.56350000  0.22040000  0.30720000  0.5 0.2659393011
C  C145  1  0.58190000  0.28830000  0.26260000  0.5 -0.0209602122
C  C146  1  0.66500000  0.36310000  0.26250000  0.5 -0.0558503538
C  C147  1  0.68280000  0.42670000  0.22120000  0.5 -0.1668173594
C  C148  1  0.61740000  0.41540000  0.18000000  0.5 -0.1030877882
C  C149  1  0.53430000  0.34060000  0.18010000  0.5 0.0128862376
C  C150  1  0.51650000  0.27700000  0.22140000  0.5 -0.0558503538
C  C151  1  0.46890000  0.33510000  0.13330000  0.5 0.3968585229
C  C152  1  0.70350000  0.02830000  0.40570000  0.5 0.1305101265
C  C153  1  0.73340000  0.92090000  0.46590000  0.5 0.2315907593
C  C154  1  0.64110000  0.88590000  0.44180000  0.5 -0.0502379813
C  C155  1  0.58670000  0.79530000  0.45860000  0.5 0.1731695479
C  C156  1  0.71690000  0.77470000  0.52360000  0.5 0.0798854122
C  C157  1  0.12350000  0.49760000  0.71480000  0.5 0.0995729041
C  C158  1  0.19630000  0.45030000  0.75350000  0.5 -0.0015878191
C  C159  1  0.23800000  0.34690000  0.74960000  0.5 -0.0502379813
C  C160  1  0.30490000  0.30680000  0.78630000  0.5 -0.0502379813
C  C161  1  0.33010000  0.37020000  0.82680000  0.5 -0.0209602122
C  C162  1  0.28840000  0.47370000  0.83070000  0.5 -0.0434330448
C  C163  1  0.22150000  0.51370000  0.79400000  0.5 -0.1365920256
C  C164  1  0.31380000  0.54480000  0.87410000  0.5 0.4075528442
C  C165  1  0.05980000  0.28730000  0.59800000  0.5 0.0296174048
C  C166  1  0.93430000  0.25860000  0.54460000  0.5 0.2369332558
C  C167  1  0.90490000  0.34940000  0.57130000  0.5 0.0296174048
C  C168  1  0.80920000  0.40240000  0.56060000  0.5 0.0632794856
C  C169  1  0.77220000  0.27380000  0.49650000  0.5 0.0995729041
C  C170  1  0.22040000  0.43650000  0.69280000  0.5 0.2659393011
C  C171  1  0.28830000  0.41810000  0.73740000  0.5 -0.0209602122
C  C172  1  0.36310000  0.33500000  0.73750000  0.5 -0.0558503538
C  C173  1  0.42670000  0.31720000  0.77880000  0.5 -0.1668173594
C  C174  1  0.41540000  0.38260000  0.82000000  0.5 -0.1030877882
C  C175  1  0.34060000  0.46570000  0.81990000  0.5 0.0128862376
C  C176  1  0.27700000  0.48350000  0.77860000  0.5 -0.0558503538
C  C177  1  0.33510000  0.53110000  0.86670000  0.5 0.3968585229
C  C178  1  0.02830000  0.29650000  0.59430000  0.5 0.1305101265
C  C179  1  0.92090000  0.26660000  0.53410000  0.5 0.2315907593
C  C180  1  0.88590000  0.35890000  0.55820000  0.5 -0.0502379813
C  C181  1  0.79530000  0.41330000  0.54140000  0.5 0.1731695479
C  C182  1  0.77470000  0.28310000  0.47640000  0.5 0.0798854122
C  C183  1  0.87650000  0.50240000  0.71480000  0.5 0.0995729041
C  C184  1  0.80370000  0.54970000  0.75350000  0.5 -0.0015878191
C  C185  1  0.76200000  0.65310000  0.74960000  0.5 -0.0502379813
C  C186  1  0.69510000  0.69320000  0.78630000  0.5 -0.0502379813
C  C187  1  0.66990000  0.62980000  0.82680000  0.5 -0.0209602122
C  C188  1  0.71160000  0.52630000  0.83070000  0.5 -0.0434330448
C  C189  1  0.77850000  0.48630000  0.79400000  0.5 -0.1365920256
C  C190  1  0.68620000  0.45520000  0.87410000  0.5 0.4075528442
C  C191  1  0.94020000  0.71270000  0.59800000  0.5 0.0296174048
C  C192  1  0.06570000  0.74140000  0.54460000  0.5 0.2369332558
C  C193  1  0.09510000  0.65060000  0.57130000  0.5 0.0296174048
C  C194  1  0.19080000  0.59760000  0.56060000  0.5 0.0632794856
C  C195  1  0.22780000  0.72620000  0.49650000  0.5 0.0995729041
C  C196  1  0.77960000  0.56350000  0.69280000  0.5 0.2659393011
C  C197  1  0.71170000  0.58190000  0.73740000  0.5 -0.0209602122
C  C198  1  0.63690000  0.66500000  0.73750000  0.5 -0.0558503538
C  C199  1  0.57330000  0.68280000  0.77880000  0.5 -0.1668173594
C  C200  1  0.58460000  0.61740000  0.82000000  0.5 -0.1030877882
C  C201  1  0.65940000  0.53430000  0.81990000  0.5 0.0128862376
C  C202  1  0.72300000  0.51650000  0.77860000  0.5 -0.0558503538
C  C203  1  0.66490000  0.46890000  0.86670000  0.5 0.3968585229
C  C204  1  0.97170000  0.70350000  0.59430000  0.5 0.1305101265
C  C205  1  0.07910000  0.73340000  0.53410000  0.5 0.2315907593
C  C206  1  0.11410000  0.64110000  0.55820000  0.5 -0.0502379813
C  C207  1  0.20470000  0.58670000  0.54140000  0.5 0.1731695479
C  C208  1  0.22530000  0.71690000  0.47640000  0.5 0.0798854122
N  N1  1  0.13440000  0.51230000  0.10540000  0.5 -0.1147346522
N  N2  1  0.27530000  0.47440000  0.06140000  0.5 -0.3013356269
N  N3  1  0.00950000  0.72800000  0.08360000  0.5 -0.2482601271
N  N4  1  0.13540000  0.75710000  0.02320000  0.5 -0.0558503538
N  N5  1  0.27920000  0.63200000  0.00720000  0.5 -0.1927414013
N  N6  1  0.12310000  0.54590000  0.09600000  0.5 -0.0719466105
N  N7  1  0.27240000  0.49120000  0.05620000  0.5 -0.2692067527
N  N8  1  0.99690000  0.74910000  0.06020000  0.5 -0.2220099342
N  N9  1  0.12460000  0.76030000  0.00050000  0.5 -0.1563948037
N  N10  1  0.27130000  0.63470000  0.99320000  0.5 -0.2053489142
N  N11  1  0.86560000  0.48770000  0.10540000  0.5 -0.1147346522
N  N12  1  0.72470000  0.52560000  0.06140000  0.5 -0.3013356269
N  N13  1  0.99050000  0.27200000  0.08360000  0.5 -0.2482601271
N  N14  1  0.86460000  0.24290000  0.02320000  0.5 -0.0558503538
N  N15  1  0.72080000  0.36800000  0.00720000  0.5 -0.1927414013
N  N16  1  0.87690000  0.45410000  0.09600000  0.5 -0.0719466105
N  N17  1  0.72760000  0.50880000  0.05620000  0.5 -0.2692067527
N  N18  1  0.00310000  0.25090000  0.06020000  0.5 -0.2220099342
N  N19  1  0.87540000  0.23970000  0.00050000  0.5 -0.1563948037
N  N20  1  0.72870000  0.36530000  0.99320000  0.5 -0.2053489142
N  N21  1  0.51230000  0.86560000  0.89460000  0.5 -0.1147346522
N  N22  1  0.47440000  0.72470000  0.93860000  0.5 -0.3013356269
N  N23  1  0.72800000  0.99050000  0.91640000  0.5 -0.2482601271
N  N24  1  0.75710000  0.86460000  0.97680000  0.5 -0.0558503538
N  N25  1  0.63200000  0.72080000  0.99280000  0.5 -0.1927414013
N  N26  1  0.54590000  0.87690000  0.90400000  0.5 -0.0719466105
N  N27  1  0.49120000  0.72760000  0.94380000  0.5 -0.2692067527
N  N28  1  0.74910000  0.00310000  0.93980000  0.5 -0.2220099342
N  N29  1  0.76030000  0.87540000  0.99950000  0.5 -0.1563948037
N  N30  1  0.63470000  0.72870000  0.00680000  0.5 -0.2053489142
N  N31  1  0.48770000  0.13440000  0.89460000  0.5 -0.1147346522
N  N32  1  0.52560000  0.27530000  0.93860000  0.5 -0.3013356269
N  N33  1  0.27200000  0.00950000  0.91640000  0.5 -0.2482601271
N  N34  1  0.24290000  0.13540000  0.97680000  0.5 -0.0558503538
N  N35  1  0.36800000  0.27920000  0.99280000  0.5 -0.1927414013
N  N36  1  0.45410000  0.12310000  0.90400000  0.5 -0.0719466105
N  N37  1  0.50880000  0.27240000  0.94380000  0.5 -0.2692067527
N  N38  1  0.25090000  0.99690000  0.93980000  0.5 -0.2220099342
N  N39  1  0.23970000  0.12460000  0.99950000  0.5 -0.1563948037
N  N40  1  0.36530000  0.27130000  0.00680000  0.5 -0.2053489142
N  N41  1  0.36560000  0.01230000  0.39460000  0.5 -0.1147346522
N  N42  1  0.22470000  0.97440000  0.43860000  0.5 -0.3013356269
N  N43  1  0.49050000  0.22800000  0.41640000  0.5 -0.2482601271
N  N44  1  0.36460000  0.25710000  0.47680000  0.5 -0.0558503538
N  N45  1  0.22080000  0.13200000  0.49280000  0.5 -0.1927414013
N  N46  1  0.37690000  0.04590000  0.40400000  0.5 -0.0719466105
N  N47  1  0.22760000  0.99120000  0.44380000  0.5 -0.2692067527
N  N48  1  0.50310000  0.24910000  0.43980000  0.5 -0.2220099342
N  N49  1  0.37540000  0.26030000  0.49950000  0.5 -0.1563948037
N  N50  1  0.22870000  0.13470000  0.50680000  0.5 -0.2053489142
N  N51  1  0.63440000  0.98770000  0.39460000  0.5 -0.1147346522
N  N52  1  0.77530000  0.02560000  0.43860000  0.5 -0.3013356269
N  N53  1  0.50950000  0.77200000  0.41640000  0.5 -0.2482601271
N  N54  1  0.63540000  0.74290000  0.47680000  0.5 -0.0558503538
N  N55  1  0.77920000  0.86800000  0.49280000  0.5 -0.1927414013
N  N56  1  0.62310000  0.95410000  0.40400000  0.5 -0.0719466105
N  N57  1  0.77240000  0.00880000  0.44380000  0.5 -0.2692067527
N  N58  1  0.49690000  0.75090000  0.43980000  0.5 -0.2220099342
N  N59  1  0.62460000  0.73970000  0.49950000  0.5 -0.1563948037
N  N60  1  0.77130000  0.86530000  0.50680000  0.5 -0.2053489142
N  N61  1  0.98770000  0.36560000  0.60540000  0.5 -0.1147346522
N  N62  1  0.02560000  0.22470000  0.56140000  0.5 -0.3013356269
N  N63  1  0.77200000  0.49050000  0.58360000  0.5 -0.2482601271
N  N64  1  0.74290000  0.36460000  0.52320000  0.5 -0.0558503538
N  N65  1  0.86800000  0.22080000  0.50720000  0.5 -0.1927414013
N  N66  1  0.95410000  0.37690000  0.59600000  0.5 -0.0719466105
N  N67  1  0.00880000  0.22760000  0.55620000  0.5 -0.2692067527
N  N68  1  0.75090000  0.50310000  0.56020000  0.5 -0.2220099342
N  N69  1  0.73970000  0.37540000  0.50050000  0.5 -0.1563948037
N  N70  1  0.86530000  0.22870000  0.49320000  0.5 -0.2053489142
N  N71  1  0.01230000  0.63440000  0.60540000  0.5 -0.1147346522
N  N72  1  0.97440000  0.77530000  0.56140000  0.5 -0.3013356269
N  N73  1  0.22800000  0.50950000  0.58360000  0.5 -0.2482601271
N  N74  1  0.25710000  0.63540000  0.52320000  0.5 -0.0558503538
N  N75  1  0.13200000  0.77920000  0.50720000  0.5 -0.1927414013
N  N76  1  0.04590000  0.62310000  0.59600000  0.5 -0.0719466105
N  N77  1  0.99120000  0.77240000  0.55620000  0.5 -0.2692067527
N  N78  1  0.24910000  0.49690000  0.56020000  0.5 -0.2220099342
N  N79  1  0.26030000  0.62460000  0.50050000  0.5 -0.1563948037
N  N80  1  0.13470000  0.77130000  0.49320000  0.5 -0.2053489142
O  O1  1  0.50000000  0.50000000  0.00000000  1.0 -0.4879413152
O  O2  1  0.00000000  0.00000000  0.50000000  1.0 -0.4879413152
O  O3  1  0.06090000  0.38770000  0.17710000  0.5 -0.084820993
O  O4  1  0.91220000  0.41940000  0.22220000  0.5 -0.390088001
O  O5  1  0.86230000  0.22220000  0.38020000  0.5 -0.2220099342
O  O6  1  0.00300000  0.12400000  0.40310000  0.5 -0.4322488213
O  O7  1  0.99900000  0.35410000  0.19960000  0.5 0.0228314942
O  O8  1  0.11020000  0.26090000  0.15300000  0.5 -0.5215049142
O  O9  1  0.00800000  0.13360000  0.40740000  0.5 -0.4653452986
O  O10  1  0.87620000  0.20120000  0.36370000  0.5 -0.0886326709
O  O11  1  0.93910000  0.61230000  0.17710000  0.5 -0.084820993
O  O12  1  0.08780000  0.58060000  0.22220000  0.5 -0.390088001
O  O13  1  0.13770000  0.77780000  0.38020000  0.5 -0.2220099342
O  O14  1  0.99700000  0.87600000  0.40310000  0.5 -0.4322488213
O  O15  1  0.00100000  0.64590000  0.19960000  0.5 0.0228314942
O  O16  1  0.88980000  0.73910000  0.15300000  0.5 -0.5215049142
O  O17  1  0.99200000  0.86640000  0.40740000  0.5 -0.4653452986
O  O18  1  0.12380000  0.79880000  0.36370000  0.5 -0.0886326709
O  O19  1  0.38770000  0.93910000  0.82290000  0.5 -0.084820993
O  O20  1  0.41940000  0.08780000  0.77780000  0.5 -0.390088001
O  O21  1  0.22220000  0.13770000  0.61980000  0.5 -0.2220099342
O  O22  1  0.12400000  0.99700000  0.59690000  0.5 -0.4322488213
O  O23  1  0.35410000  0.00100000  0.80040000  0.5 0.0228314942
O  O24  1  0.26090000  0.88980000  0.84700000  0.5 -0.5215049142
O  O25  1  0.13360000  0.99200000  0.59260000  0.5 -0.4653452986
O  O26  1  0.20120000  0.12380000  0.63630000  0.5 -0.0886326709
O  O27  1  0.61230000  0.06090000  0.82290000  0.5 -0.084820993
O  O28  1  0.58060000  0.91220000  0.77780000  0.5 -0.390088001
O  O29  1  0.77780000  0.86230000  0.61980000  0.5 -0.2220099342
O  O30  1  0.87600000  0.00300000  0.59690000  0.5 -0.4322488213
O  O31  1  0.64590000  0.99900000  0.80040000  0.5 0.0228314942
O  O32  1  0.73910000  0.11020000  0.84700000  0.5 -0.5215049142
O  O33  1  0.86640000  0.00800000  0.59260000  0.5 -0.4653452986
O  O34  1  0.79880000  0.87620000  0.63630000  0.5 -0.0886326709
O  O35  1  0.43910000  0.88770000  0.32290000  0.5 -0.084820993
O  O36  1  0.58780000  0.91940000  0.27780000  0.5 -0.390088001
O  O37  1  0.63770000  0.72220000  0.11980000  0.5 -0.2220099342
O  O38  1  0.49700000  0.62400000  0.09690000  0.5 -0.4322488213
O  O39  1  0.50100000  0.85410000  0.30040000  0.5 0.0228314942
O  O40  1  0.38980000  0.76090000  0.34700000  0.5 -0.5215049142
O  O41  1  0.49200000  0.63360000  0.09260000  0.5 -0.4653452986
O  O42  1  0.62380000  0.70120000  0.13630000  0.5 -0.0886326709
O  O43  1  0.56090000  0.11230000  0.32290000  0.5 -0.084820993
O  O44  1  0.41220000  0.08060000  0.27780000  0.5 -0.390088001
O  O45  1  0.36230000  0.27780000  0.11980000  0.5 -0.2220099342
O  O46  1  0.50300000  0.37600000  0.09690000  0.5 -0.4322488213
O  O47  1  0.49900000  0.14590000  0.30040000  0.5 0.0228314942
O  O48  1  0.61020000  0.23910000  0.34700000  0.5 -0.5215049142
O  O49  1  0.50800000  0.36640000  0.09260000  0.5 -0.4653452986
O  O50  1  0.37620000  0.29880000  0.13630000  0.5 -0.0886326709
O  O51  1  0.11230000  0.43910000  0.67710000  0.5 -0.084820993
O  O52  1  0.08060000  0.58780000  0.72220000  0.5 -0.390088001
O  O53  1  0.27780000  0.63770000  0.88020000  0.5 -0.2220099342
O  O54  1  0.37600000  0.49700000  0.90310000  0.5 -0.4322488213
O  O55  1  0.14590000  0.50100000  0.69960000  0.5 0.0228314942
O  O56  1  0.23910000  0.38980000  0.65300000  0.5 -0.5215049142
O  O57  1  0.36640000  0.49200000  0.90740000  0.5 -0.4653452986
O  O58  1  0.29880000  0.62380000  0.86370000  0.5 -0.0886326709
O  O59  1  0.88770000  0.56090000  0.67710000  0.5 -0.084820993
O  O60  1  0.91940000  0.41220000  0.72220000  0.5 -0.390088001
O  O61  1  0.72220000  0.36230000  0.88020000  0.5 -0.2220099342
O  O62  1  0.62400000  0.50300000  0.90310000  0.5 -0.4322488213
O  O63  1  0.85410000  0.49900000  0.69960000  0.5 0.0228314942
O  O64  1  0.76090000  0.61020000  0.65300000  0.5 -0.5215049142
O  O65  1  0.63360000  0.50800000  0.90740000  0.5 -0.4653452986
O  O66  1  0.70120000  0.37620000  0.86370000  0.5 -0.0886326709
