# DDEC6 charges by PACMAN v1.1 (https://github.com/mtap-research/PACMAN-charge/)
data_d2dt03158b2_FSR_pacman
_symmetry_space_group_name_H-M   'P 1'
_cell_length_a   26.40970000
_cell_length_b   26.40970000
_cell_length_c   26.40970000
_cell_angle_alpha   90.00000000
_cell_angle_beta   90.00000000
_cell_angle_gamma   90.00000000
_symmetry_Int_Tables_number   1
_chemical_formula_structural   Ca12Ti12.0H303.696C432O139.848
_chemical_formula_sum   'Ca12 Ti12.0 H303.696 C432 O139.848'
_cell_volume   18420.03298884
_cell_formula_units_Z   1
loop_
 _symmetry_equiv_pos_site_id
 _symmetry_equiv_pos_as_xyz
  1  'x, y, z'
loop_
 _atom_site_type_symbol
 _atom_site_label
 _atom_site_symmetry_multiplicity
 _atom_site_fract_x
 _atom_site_fract_y
 _atom_site_fract_z
 _atom_site_occupancy
 _atom_site_charge
Ca  Ca1  1  0.00000000  0.50000000  0.93000000  0.1 0.2227354333
Ca  Ca2  1  0.00000000  0.50000000  0.07000000  0.1 0.2227354333
Ca  Ca3  1  0.93000000  0.00000000  0.50000000  0.1 0.2227354333
Ca  Ca4  1  0.07000000  0.00000000  0.50000000  0.1 0.2227354333
Ca  Ca5  1  0.50000000  0.93000000  0.00000000  0.1 0.2227354333
Ca  Ca6  1  0.50000000  0.07000000  0.00000000  0.1 0.2227354333
Ca  Ca13  1  0.50000000  0.00000000  0.43000000  0.1 0.2227354333
Ca  Ca14  1  0.50000000  0.00000000  0.57000000  0.1 0.2227354333
Ca  Ca15  1  0.43000000  0.50000000  0.00000000  0.1 0.2227354333
Ca  Ca16  1  0.57000000  0.50000000  0.00000000  0.1 0.2227354333
Ca  Ca17  1  0.00000000  0.43000000  0.50000000  0.1 0.2227354333
Ca  Ca18  1  0.00000000  0.57000000  0.50000000  0.1 0.2227354333
Ca  Ca7  1  0.92589000  0.50000000  0.00000000  0.9 0.3455003535
Ca  Ca8  1  0.07411000  0.50000000  0.00000000  0.9 0.3455003535
Ca  Ca9  1  0.00000000  0.92589000  0.50000000  0.9 0.3455003535
Ca  Ca10  1  0.00000000  0.07411000  0.50000000  0.9 0.3455003535
Ca  Ca11  1  0.50000000  0.00000000  0.92589000  0.9 0.3455003535
Ca  Ca12  1  0.50000000  0.00000000  0.07411000  0.9 0.3455003535
Ca  Ca19  1  0.42589000  0.00000000  0.50000000  0.9 0.3455003535
Ca  Ca20  1  0.57411000  0.00000000  0.50000000  0.9 0.3455003535
Ca  Ca21  1  0.50000000  0.42589000  0.00000000  0.9 0.3455003535
Ca  Ca22  1  0.50000000  0.57411000  0.00000000  0.9 0.3455003535
Ca  Ca23  1  0.00000000  0.50000000  0.42589000  0.9 0.3455003535
Ca  Ca24  1  0.00000000  0.50000000  0.57411000  0.9 0.3455003535
Ti  Ti7  1  0.00000000  0.50000000  0.88132000  0.9 0.8426427404
Ti  Ti8  1  0.00000000  0.50000000  0.11868000  0.9 0.8426427404
Ti  Ti9  1  0.88132000  0.00000000  0.50000000  0.9 0.8426427404
Ti  Ti10  1  0.11868000  0.00000000  0.50000000  0.9 0.8426427404
Ti  Ti11  1  0.50000000  0.88132000  0.00000000  0.9 0.8426427404
Ti  Ti12  1  0.50000000  0.11868000  0.00000000  0.9 0.8426427404
Ti  Ti19  1  0.50000000  0.00000000  0.38132000  0.9 0.8426427404
Ti  Ti20  1  0.50000000  0.00000000  0.61868000  0.9 0.8426427404
Ti  Ti21  1  0.38132000  0.50000000  0.00000000  0.9 0.8426427404
Ti  Ti22  1  0.61868000  0.50000000  0.00000000  0.9 0.8426427404
Ti  Ti23  1  0.00000000  0.38132000  0.50000000  0.9 0.8426427404
Ti  Ti24  1  0.00000000  0.61868000  0.50000000  0.9 0.8426427404
Ti  Ti1  1  0.88100000  0.50000000  0.00000000  0.1 0.8514893562
Ti  Ti2  1  0.11900000  0.50000000  0.00000000  0.1 0.8514893562
Ti  Ti3  1  0.00000000  0.88100000  0.50000000  0.1 0.8514893562
Ti  Ti4  1  0.00000000  0.11900000  0.50000000  0.1 0.8514893562
Ti  Ti5  1  0.50000000  0.00000000  0.88100000  0.1 0.8514893562
Ti  Ti6  1  0.50000000  0.00000000  0.11900000  0.1 0.8514893562
Ti  Ti13  1  0.38100000  0.00000000  0.50000000  0.1 0.8514893562
Ti  Ti14  1  0.61900000  0.00000000  0.50000000  0.1 0.8514893562
Ti  Ti15  1  0.50000000  0.38100000  0.00000000  0.1 0.8514893562
Ti  Ti16  1  0.50000000  0.61900000  0.00000000  0.1 0.8514893562
Ti  Ti17  1  0.00000000  0.50000000  0.38100000  0.1 0.8514893562
Ti  Ti18  1  0.00000000  0.50000000  0.61900000  0.1 0.8514893562
H  H61  1  0.85920000  0.35380000  0.93930000  1.0 0.1196710776
H  H62  1  0.14080000  0.64620000  0.93930000  1.0 0.1196710776
H  H63  1  0.14080000  0.35380000  0.06070000  1.0 0.1196710776
H  H64  1  0.85920000  0.64620000  0.06070000  1.0 0.1196710776
H  H65  1  0.93930000  0.85920000  0.35380000  1.0 0.1196710776
H  H66  1  0.93930000  0.14080000  0.64620000  1.0 0.1196710776
H  H67  1  0.06070000  0.14080000  0.35380000  1.0 0.1196710776
H  H68  1  0.06070000  0.85920000  0.64620000  1.0 0.1196710776
H  H69  1  0.35380000  0.93930000  0.85920000  1.0 0.1196710776
H  H70  1  0.64620000  0.93930000  0.14080000  1.0 0.1196710776
H  H71  1  0.35380000  0.06070000  0.14080000  1.0 0.1196710776
H  H72  1  0.64620000  0.06070000  0.85920000  1.0 0.1196710776
H  H73  1  0.14080000  0.64620000  0.06070000  1.0 0.1196710776
H  H74  1  0.85920000  0.35380000  0.06070000  1.0 0.1196710776
H  H75  1  0.85920000  0.64620000  0.93930000  1.0 0.1196710776
H  H76  1  0.14080000  0.35380000  0.93930000  1.0 0.1196710776
H  H77  1  0.06070000  0.14080000  0.64620000  1.0 0.1196710776
H  H78  1  0.06070000  0.85920000  0.35380000  1.0 0.1196710776
H  H79  1  0.93930000  0.85920000  0.64620000  1.0 0.1196710776
H  H80  1  0.93930000  0.14080000  0.35380000  1.0 0.1196710776
H  H81  1  0.64620000  0.06070000  0.14080000  1.0 0.1196710776
H  H82  1  0.35380000  0.06070000  0.85920000  1.0 0.1196710776
H  H83  1  0.64620000  0.93930000  0.85920000  1.0 0.1196710776
H  H84  1  0.35380000  0.93930000  0.14080000  1.0 0.1196710776
H  H85  1  0.82250000  0.28310000  0.90580000  1.0 0.1109515141
H  H86  1  0.17750000  0.71690000  0.90580000  1.0 0.1109515141
H  H87  1  0.17750000  0.28310000  0.09420000  1.0 0.1109515141
H  H88  1  0.82250000  0.71690000  0.09420000  1.0 0.1109515141
H  H89  1  0.90580000  0.82250000  0.28310000  1.0 0.1109515141
H  H90  1  0.90580000  0.17750000  0.71690000  1.0 0.1109515141
H  H91  1  0.09420000  0.17750000  0.28310000  1.0 0.1109515141
H  H92  1  0.09420000  0.82250000  0.71690000  1.0 0.1109515141
H  H93  1  0.28310000  0.90580000  0.82250000  1.0 0.1109515141
H  H94  1  0.71690000  0.90580000  0.17750000  1.0 0.1109515141
H  H95  1  0.28310000  0.09420000  0.17750000  1.0 0.1109515141
H  H96  1  0.71690000  0.09420000  0.82250000  1.0 0.1109515141
H  H97  1  0.17750000  0.71690000  0.09420000  1.0 0.1109515141
H  H98  1  0.82250000  0.28310000  0.09420000  1.0 0.1109515141
H  H99  1  0.82250000  0.71690000  0.90580000  1.0 0.1109515141
H  H100  1  0.17750000  0.28310000  0.90580000  1.0 0.1109515141
H  H101  1  0.09420000  0.17750000  0.71690000  1.0 0.1109515141
H  H102  1  0.09420000  0.82250000  0.28310000  1.0 0.1109515141
H  H103  1  0.90580000  0.82250000  0.71690000  1.0 0.1109515141
H  H104  1  0.90580000  0.17750000  0.28310000  1.0 0.1109515141
H  H105  1  0.71690000  0.09420000  0.17750000  1.0 0.1109515141
H  H106  1  0.28310000  0.09420000  0.82250000  1.0 0.1109515141
H  H107  1  0.71690000  0.90580000  0.82250000  1.0 0.1109515141
H  H108  1  0.28310000  0.90580000  0.17750000  1.0 0.1109515141
H  H109  1  0.86550000  0.32860000  0.76790000  1.0 0.1109515141
H  H110  1  0.13450000  0.67140000  0.76790000  1.0 0.1109515141
H  H111  1  0.13450000  0.32860000  0.23210000  1.0 0.1109515141
H  H112  1  0.86550000  0.67140000  0.23210000  1.0 0.1109515141
H  H113  1  0.76790000  0.86550000  0.32860000  1.0 0.1109515141
H  H114  1  0.76790000  0.13450000  0.67140000  1.0 0.1109515141
H  H115  1  0.23210000  0.13450000  0.32860000  1.0 0.1109515141
H  H116  1  0.23210000  0.86550000  0.67140000  1.0 0.1109515141
H  H117  1  0.32860000  0.76790000  0.86550000  1.0 0.1109515141
H  H118  1  0.67140000  0.76790000  0.13450000  1.0 0.1109515141
H  H119  1  0.32860000  0.23210000  0.13450000  1.0 0.1109515141
H  H120  1  0.67140000  0.23210000  0.86550000  1.0 0.1109515141
H  H121  1  0.13450000  0.67140000  0.23210000  1.0 0.1109515141
H  H122  1  0.86550000  0.32860000  0.23210000  1.0 0.1109515141
H  H123  1  0.86550000  0.67140000  0.76790000  1.0 0.1109515141
H  H124  1  0.13450000  0.32860000  0.76790000  1.0 0.1109515141
H  H125  1  0.23210000  0.13450000  0.67140000  1.0 0.1109515141
H  H126  1  0.23210000  0.86550000  0.32860000  1.0 0.1109515141
H  H127  1  0.76790000  0.86550000  0.67140000  1.0 0.1109515141
H  H128  1  0.76790000  0.13450000  0.32860000  1.0 0.1109515141
H  H129  1  0.67140000  0.23210000  0.13450000  1.0 0.1109515141
H  H130  1  0.32860000  0.23210000  0.86550000  1.0 0.1109515141
H  H131  1  0.67140000  0.76790000  0.86550000  1.0 0.1109515141
H  H132  1  0.32860000  0.76790000  0.13450000  1.0 0.1109515141
H  H133  1  0.90440000  0.39640000  0.80150000  1.0 0.1109515141
H  H134  1  0.09560000  0.60360000  0.80150000  1.0 0.1109515141
H  H135  1  0.09560000  0.39640000  0.19850000  1.0 0.1109515141
H  H136  1  0.90440000  0.60360000  0.19850000  1.0 0.1109515141
H  H137  1  0.80150000  0.90440000  0.39640000  1.0 0.1109515141
H  H138  1  0.80150000  0.09560000  0.60360000  1.0 0.1109515141
H  H139  1  0.19850000  0.09560000  0.39640000  1.0 0.1109515141
H  H140  1  0.19850000  0.90440000  0.60360000  1.0 0.1109515141
H  H141  1  0.39640000  0.80150000  0.90440000  1.0 0.1109515141
H  H142  1  0.60360000  0.80150000  0.09560000  1.0 0.1109515141
H  H143  1  0.39640000  0.19850000  0.09560000  1.0 0.1109515141
H  H144  1  0.60360000  0.19850000  0.90440000  1.0 0.1109515141
H  H145  1  0.09560000  0.60360000  0.19850000  1.0 0.1109515141
H  H146  1  0.90440000  0.39640000  0.19850000  1.0 0.1109515141
H  H147  1  0.90440000  0.60360000  0.80150000  1.0 0.1109515141
H  H148  1  0.09560000  0.39640000  0.80150000  1.0 0.1109515141
H  H149  1  0.19850000  0.09560000  0.60360000  1.0 0.1109515141
H  H150  1  0.19850000  0.90440000  0.39640000  1.0 0.1109515141
H  H151  1  0.80150000  0.90440000  0.60360000  1.0 0.1109515141
H  H152  1  0.80150000  0.09560000  0.39640000  1.0 0.1109515141
H  H153  1  0.60360000  0.19850000  0.09560000  1.0 0.1109515141
H  H154  1  0.39640000  0.19850000  0.90440000  1.0 0.1109515141
H  H155  1  0.60360000  0.80150000  0.90440000  1.0 0.1109515141
H  H156  1  0.39640000  0.80150000  0.09560000  1.0 0.1109515141
H  H157  1  0.86150000  0.24370000  0.75220000  1.0 0.1039075787
H  H158  1  0.13850000  0.75630000  0.75220000  1.0 0.1039075787
H  H159  1  0.13850000  0.24370000  0.24780000  1.0 0.1039075787
H  H160  1  0.86150000  0.75630000  0.24780000  1.0 0.1039075787
H  H161  1  0.75220000  0.86150000  0.24370000  1.0 0.1039075787
H  H162  1  0.75220000  0.13850000  0.75630000  1.0 0.1039075787
H  H163  1  0.24780000  0.13850000  0.24370000  1.0 0.1039075787
H  H164  1  0.24780000  0.86150000  0.75630000  1.0 0.1039075787
H  H165  1  0.24370000  0.75220000  0.86150000  1.0 0.1039075787
H  H166  1  0.75630000  0.75220000  0.13850000  1.0 0.1039075787
H  H167  1  0.24370000  0.24780000  0.13850000  1.0 0.1039075787
H  H168  1  0.75630000  0.24780000  0.86150000  1.0 0.1039075787
H  H169  1  0.13850000  0.75630000  0.24780000  1.0 0.1039075787
H  H170  1  0.86150000  0.24370000  0.24780000  1.0 0.1039075787
H  H171  1  0.86150000  0.75630000  0.75220000  1.0 0.1039075787
H  H172  1  0.13850000  0.24370000  0.75220000  1.0 0.1039075787
H  H173  1  0.24780000  0.13850000  0.75630000  1.0 0.1039075787
H  H174  1  0.24780000  0.86150000  0.24370000  1.0 0.1039075787
H  H175  1  0.75220000  0.86150000  0.75630000  1.0 0.1039075787
H  H176  1  0.75220000  0.13850000  0.24370000  1.0 0.1039075787
H  H177  1  0.75630000  0.24780000  0.13850000  1.0 0.1039075787
H  H178  1  0.24370000  0.24780000  0.86150000  1.0 0.1039075787
H  H179  1  0.75630000  0.75220000  0.86150000  1.0 0.1039075787
H  H180  1  0.24370000  0.75220000  0.13850000  1.0 0.1039075787
H  H241  1  0.35920000  0.85380000  0.43930000  1.0 0.1196710776
H  H242  1  0.64080000  0.14620000  0.43930000  1.0 0.1196710776
H  H243  1  0.64080000  0.85380000  0.56070000  1.0 0.1196710776
H  H244  1  0.35920000  0.14620000  0.56070000  1.0 0.1196710776
H  H245  1  0.43930000  0.35920000  0.85380000  1.0 0.1196710776
H  H246  1  0.43930000  0.64080000  0.14620000  1.0 0.1196710776
H  H247  1  0.56070000  0.64080000  0.85380000  1.0 0.1196710776
H  H248  1  0.56070000  0.35920000  0.14620000  1.0 0.1196710776
H  H249  1  0.85380000  0.43930000  0.35920000  1.0 0.1196710776
H  H250  1  0.14620000  0.43930000  0.64080000  1.0 0.1196710776
H  H251  1  0.85380000  0.56070000  0.64080000  1.0 0.1196710776
H  H252  1  0.14620000  0.56070000  0.35920000  1.0 0.1196710776
H  H253  1  0.64080000  0.14620000  0.56070000  1.0 0.1196710776
H  H254  1  0.35920000  0.85380000  0.56070000  1.0 0.1196710776
H  H255  1  0.35920000  0.14620000  0.43930000  1.0 0.1196710776
H  H256  1  0.64080000  0.85380000  0.43930000  1.0 0.1196710776
H  H257  1  0.56070000  0.64080000  0.14620000  1.0 0.1196710776
H  H258  1  0.56070000  0.35920000  0.85380000  1.0 0.1196710776
H  H259  1  0.43930000  0.35920000  0.14620000  1.0 0.1196710776
H  H260  1  0.43930000  0.64080000  0.85380000  1.0 0.1196710776
H  H261  1  0.14620000  0.56070000  0.64080000  1.0 0.1196710776
H  H262  1  0.85380000  0.56070000  0.35920000  1.0 0.1196710776
H  H263  1  0.14620000  0.43930000  0.35920000  1.0 0.1196710776
H  H264  1  0.85380000  0.43930000  0.64080000  1.0 0.1196710776
H  H265  1  0.32250000  0.78310000  0.40580000  1.0 0.1109515141
H  H266  1  0.67750000  0.21690000  0.40580000  1.0 0.1109515141
H  H267  1  0.67750000  0.78310000  0.59420000  1.0 0.1109515141
H  H268  1  0.32250000  0.21690000  0.59420000  1.0 0.1109515141
H  H269  1  0.40580000  0.32250000  0.78310000  1.0 0.1109515141
H  H270  1  0.40580000  0.67750000  0.21690000  1.0 0.1109515141
H  H271  1  0.59420000  0.67750000  0.78310000  1.0 0.1109515141
H  H272  1  0.59420000  0.32250000  0.21690000  1.0 0.1109515141
H  H273  1  0.78310000  0.40580000  0.32250000  1.0 0.1109515141
H  H274  1  0.21690000  0.40580000  0.67750000  1.0 0.1109515141
H  H275  1  0.78310000  0.59420000  0.67750000  1.0 0.1109515141
H  H276  1  0.21690000  0.59420000  0.32250000  1.0 0.1109515141
H  H277  1  0.67750000  0.21690000  0.59420000  1.0 0.1109515141
H  H278  1  0.32250000  0.78310000  0.59420000  1.0 0.1109515141
H  H279  1  0.32250000  0.21690000  0.40580000  1.0 0.1109515141
H  H280  1  0.67750000  0.78310000  0.40580000  1.0 0.1109515141
H  H281  1  0.59420000  0.67750000  0.21690000  1.0 0.1109515141
H  H282  1  0.59420000  0.32250000  0.78310000  1.0 0.1109515141
H  H283  1  0.40580000  0.32250000  0.21690000  1.0 0.1109515141
H  H284  1  0.40580000  0.67750000  0.78310000  1.0 0.1109515141
H  H285  1  0.21690000  0.59420000  0.67750000  1.0 0.1109515141
H  H286  1  0.78310000  0.59420000  0.32250000  1.0 0.1109515141
H  H287  1  0.21690000  0.40580000  0.32250000  1.0 0.1109515141
H  H288  1  0.78310000  0.40580000  0.67750000  1.0 0.1109515141
H  H289  1  0.36550000  0.82860000  0.26790000  1.0 0.1109515141
H  H290  1  0.63450000  0.17140000  0.26790000  1.0 0.1109515141
H  H291  1  0.63450000  0.82860000  0.73210000  1.0 0.1109515141
H  H292  1  0.36550000  0.17140000  0.73210000  1.0 0.1109515141
H  H293  1  0.26790000  0.36550000  0.82860000  1.0 0.1109515141
H  H294  1  0.26790000  0.63450000  0.17140000  1.0 0.1109515141
H  H295  1  0.73210000  0.63450000  0.82860000  1.0 0.1109515141
H  H296  1  0.73210000  0.36550000  0.17140000  1.0 0.1109515141
H  H297  1  0.82860000  0.26790000  0.36550000  1.0 0.1109515141
H  H298  1  0.17140000  0.26790000  0.63450000  1.0 0.1109515141
H  H299  1  0.82860000  0.73210000  0.63450000  1.0 0.1109515141
H  H300  1  0.17140000  0.73210000  0.36550000  1.0 0.1109515141
H  H301  1  0.63450000  0.17140000  0.73210000  1.0 0.1109515141
H  H302  1  0.36550000  0.82860000  0.73210000  1.0 0.1109515141
H  H303  1  0.36550000  0.17140000  0.26790000  1.0 0.1109515141
H  H304  1  0.63450000  0.82860000  0.26790000  1.0 0.1109515141
H  H305  1  0.73210000  0.63450000  0.17140000  1.0 0.1109515141
H  H306  1  0.73210000  0.36550000  0.82860000  1.0 0.1109515141
H  H307  1  0.26790000  0.36550000  0.17140000  1.0 0.1109515141
H  H308  1  0.26790000  0.63450000  0.82860000  1.0 0.1109515141
H  H309  1  0.17140000  0.73210000  0.63450000  1.0 0.1109515141
H  H310  1  0.82860000  0.73210000  0.36550000  1.0 0.1109515141
H  H311  1  0.17140000  0.26790000  0.36550000  1.0 0.1109515141
H  H312  1  0.82860000  0.26790000  0.63450000  1.0 0.1109515141
H  H313  1  0.40440000  0.89640000  0.30150000  1.0 0.1109515141
H  H314  1  0.59560000  0.10360000  0.30150000  1.0 0.1109515141
H  H315  1  0.59560000  0.89640000  0.69850000  1.0 0.1109515141
H  H316  1  0.40440000  0.10360000  0.69850000  1.0 0.1109515141
H  H317  1  0.30150000  0.40440000  0.89640000  1.0 0.1109515141
H  H318  1  0.30150000  0.59560000  0.10360000  1.0 0.1109515141
H  H319  1  0.69850000  0.59560000  0.89640000  1.0 0.1109515141
H  H320  1  0.69850000  0.40440000  0.10360000  1.0 0.1109515141
H  H321  1  0.89640000  0.30150000  0.40440000  1.0 0.1109515141
H  H322  1  0.10360000  0.30150000  0.59560000  1.0 0.1109515141
H  H323  1  0.89640000  0.69850000  0.59560000  1.0 0.1109515141
H  H324  1  0.10360000  0.69850000  0.40440000  1.0 0.1109515141
H  H325  1  0.59560000  0.10360000  0.69850000  1.0 0.1109515141
H  H326  1  0.40440000  0.89640000  0.69850000  1.0 0.1109515141
H  H327  1  0.40440000  0.10360000  0.30150000  1.0 0.1109515141
H  H328  1  0.59560000  0.89640000  0.30150000  1.0 0.1109515141
H  H329  1  0.69850000  0.59560000  0.10360000  1.0 0.1109515141
H  H330  1  0.69850000  0.40440000  0.89640000  1.0 0.1109515141
H  H331  1  0.30150000  0.40440000  0.10360000  1.0 0.1109515141
H  H332  1  0.30150000  0.59560000  0.89640000  1.0 0.1109515141
H  H333  1  0.10360000  0.69850000  0.59560000  1.0 0.1109515141
H  H334  1  0.89640000  0.69850000  0.40440000  1.0 0.1109515141
H  H335  1  0.10360000  0.30150000  0.40440000  1.0 0.1109515141
H  H336  1  0.89640000  0.30150000  0.59560000  1.0 0.1109515141
H  H337  1  0.36150000  0.74370000  0.25220000  1.0 0.1039075787
H  H338  1  0.63850000  0.25630000  0.25220000  1.0 0.1039075787
H  H339  1  0.63850000  0.74370000  0.74780000  1.0 0.1039075787
H  H340  1  0.36150000  0.25630000  0.74780000  1.0 0.1039075787
H  H341  1  0.25220000  0.36150000  0.74370000  1.0 0.1039075787
H  H342  1  0.25220000  0.63850000  0.25630000  1.0 0.1039075787
H  H343  1  0.74780000  0.63850000  0.74370000  1.0 0.1039075787
H  H344  1  0.74780000  0.36150000  0.25630000  1.0 0.1039075787
H  H345  1  0.74370000  0.25220000  0.36150000  1.0 0.1039075787
H  H346  1  0.25630000  0.25220000  0.63850000  1.0 0.1039075787
H  H347  1  0.74370000  0.74780000  0.63850000  1.0 0.1039075787
H  H348  1  0.25630000  0.74780000  0.36150000  1.0 0.1039075787
H  H349  1  0.63850000  0.25630000  0.74780000  1.0 0.1039075787
H  H350  1  0.36150000  0.74370000  0.74780000  1.0 0.1039075787
H  H351  1  0.36150000  0.25630000  0.25220000  1.0 0.1039075787
H  H352  1  0.63850000  0.74370000  0.25220000  1.0 0.1039075787
H  H353  1  0.74780000  0.63850000  0.25630000  1.0 0.1039075787
H  H354  1  0.74780000  0.36150000  0.74370000  1.0 0.1039075787
H  H355  1  0.25220000  0.36150000  0.25630000  1.0 0.1039075787
H  H356  1  0.25220000  0.63850000  0.74370000  1.0 0.1039075787
H  H357  1  0.25630000  0.74780000  0.63850000  1.0 0.1039075787
H  H358  1  0.74370000  0.74780000  0.36150000  1.0 0.1039075787
H  H359  1  0.25630000  0.25220000  0.36150000  1.0 0.1039075787
H  H360  1  0.74370000  0.25220000  0.63850000  1.0 0.1039075787
H  H1  1  0.78200000  0.50000000  0.97130000  0.1 0.142648123
H  H2  1  0.21800000  0.50000000  0.97130000  0.1 0.142648123
H  H3  1  0.21800000  0.50000000  0.02870000  0.1 0.142648123
H  H4  1  0.78200000  0.50000000  0.02870000  0.1 0.142648123
H  H5  1  0.97130000  0.78200000  0.50000000  0.1 0.142648123
H  H6  1  0.97130000  0.21800000  0.50000000  0.1 0.142648123
H  H7  1  0.02870000  0.21800000  0.50000000  0.1 0.142648123
H  H8  1  0.02870000  0.78200000  0.50000000  0.1 0.142648123
H  H9  1  0.50000000  0.97130000  0.78200000  0.1 0.142648123
H  H10  1  0.50000000  0.97130000  0.21800000  0.1 0.142648123
H  H11  1  0.50000000  0.02870000  0.21800000  0.1 0.142648123
H  H12  1  0.50000000  0.02870000  0.78200000  0.1 0.142648123
H  H13  1  0.02880000  0.50000000  0.81740000  0.1 0.2345559366
H  H14  1  0.97120000  0.50000000  0.81740000  0.1 0.2345559366
H  H15  1  0.97120000  0.50000000  0.18260000  0.1 0.2345559366
H  H16  1  0.02880000  0.50000000  0.18260000  0.1 0.2345559366
H  H17  1  0.81740000  0.02880000  0.50000000  0.1 0.2345559366
H  H18  1  0.81740000  0.97120000  0.50000000  0.1 0.2358310829
H  H19  1  0.18260000  0.97120000  0.50000000  0.1 0.2358310829
H  H20  1  0.18260000  0.02880000  0.50000000  0.1 0.2345559366
H  H21  1  0.50000000  0.81740000  0.02880000  0.1 0.2345559366
H  H22  1  0.50000000  0.81740000  0.97120000  0.1 0.2358310829
H  H23  1  0.50000000  0.18260000  0.97120000  0.1 0.2345559366
H  H24  1  0.50000000  0.18260000  0.02880000  0.1 0.2345559366
H  H181  1  0.28200000  0.00000000  0.47130000  0.1 0.142648123
H  H182  1  0.71800000  0.00000000  0.47130000  0.1 0.142648123
H  H183  1  0.71800000  0.00000000  0.52870000  0.1 0.142648123
H  H184  1  0.28200000  0.00000000  0.52870000  0.1 0.142648123
H  H185  1  0.47130000  0.28200000  0.00000000  0.1 0.142648123
H  H186  1  0.47130000  0.71800000  0.00000000  0.1 0.142648123
H  H187  1  0.52870000  0.71800000  0.00000000  0.1 0.142648123
H  H188  1  0.52870000  0.28200000  0.00000000  0.1 0.142648123
H  H189  1  0.00000000  0.47130000  0.28200000  0.1 0.142648123
H  H190  1  0.00000000  0.47130000  0.71800000  0.1 0.142648123
H  H191  1  0.00000000  0.52870000  0.71800000  0.1 0.142648123
H  H192  1  0.00000000  0.52870000  0.28200000  0.1 0.142648123
H  H193  1  0.52880000  0.00000000  0.31740000  0.1 0.2345559366
H  H194  1  0.47120000  0.00000000  0.31740000  0.1 0.2345559366
H  H195  1  0.47120000  0.00000000  0.68260000  0.1 0.2345559366
H  H196  1  0.52880000  0.00000000  0.68260000  0.1 0.2345559366
H  H197  1  0.31740000  0.52880000  0.00000000  0.1 0.2345559366
H  H198  1  0.31740000  0.47120000  0.00000000  0.1 0.2345559366
H  H199  1  0.68260000  0.47120000  0.00000000  0.1 0.2345559366
H  H200  1  0.68260000  0.52880000  0.00000000  0.1 0.2345559366
H  H201  1  0.00000000  0.31740000  0.52880000  0.1 0.2345559366
H  H202  1  0.00000000  0.31740000  0.47120000  0.1 0.2345559366
H  H203  1  0.00000000  0.68260000  0.47120000  0.1 0.2345559366
H  H204  1  0.00000000  0.68260000  0.52880000  0.1 0.2345559366
H  H49  1  0.00000000  0.59790000  0.02850000  0.654 0.3738200824
H  H50  1  0.00000000  0.40210000  0.02850000  0.654 0.3738200824
H  H51  1  0.00000000  0.59790000  0.97150000  0.654 0.3738200824
H  H52  1  0.00000000  0.40210000  0.97150000  0.654 0.3738200824
H  H53  1  0.02850000  0.00000000  0.59790000  0.654 0.3738200824
H  H54  1  0.02850000  0.00000000  0.40210000  0.654 0.3738200824
H  H55  1  0.97150000  0.00000000  0.59790000  0.654 0.3738200824
H  H56  1  0.97150000  0.00000000  0.40210000  0.654 0.3738200824
H  H57  1  0.59790000  0.02850000  0.00000000  0.654 0.3738200824
H  H58  1  0.40210000  0.02850000  0.00000000  0.654 0.3738200824
H  H59  1  0.59790000  0.97150000  0.00000000  0.654 0.3738200824
H  H60  1  0.40210000  0.97150000  0.00000000  0.654 0.3738200824
H  H229  1  0.50000000  0.09790000  0.52850000  0.654 0.3738200824
H  H230  1  0.50000000  0.90210000  0.52850000  0.654 0.3738200824
H  H231  1  0.50000000  0.09790000  0.47150000  0.654 0.3738200824
H  H232  1  0.50000000  0.90210000  0.47150000  0.654 0.3738200824
H  H233  1  0.52850000  0.50000000  0.09790000  0.654 0.3738200824
H  H234  1  0.52850000  0.50000000  0.90210000  0.654 0.3738200824
H  H235  1  0.47150000  0.50000000  0.09790000  0.654 0.3738200824
H  H236  1  0.47150000  0.50000000  0.90210000  0.654 0.3738200824
H  H237  1  0.09790000  0.52850000  0.50000000  0.654 0.3738200824
H  H238  1  0.90210000  0.52850000  0.50000000  0.654 0.3738200824
H  H239  1  0.09790000  0.47150000  0.50000000  0.654 0.3738200824
H  H240  1  0.90210000  0.47150000  0.50000000  0.654 0.3738200824
H  H25  1  0.80810000  0.50000000  0.97160000  0.9 0.1890185709
H  H26  1  0.19190000  0.50000000  0.97160000  0.9 0.1890185709
H  H27  1  0.19190000  0.50000000  0.02840000  0.9 0.1890185709
H  H28  1  0.80810000  0.50000000  0.02840000  0.9 0.1890185709
H  H29  1  0.97160000  0.80810000  0.50000000  0.9 0.1890185709
H  H30  1  0.97160000  0.19190000  0.50000000  0.9 0.1890185709
H  H31  1  0.02840000  0.19190000  0.50000000  0.9 0.1890185709
H  H32  1  0.02840000  0.80810000  0.50000000  0.9 0.1890185709
H  H33  1  0.50000000  0.97160000  0.80810000  0.9 0.1890185709
H  H34  1  0.50000000  0.97160000  0.19190000  0.9 0.1890185709
H  H35  1  0.50000000  0.02840000  0.19190000  0.9 0.1890185709
H  H36  1  0.50000000  0.02840000  0.80810000  0.9 0.1890185709
H  H37  1  0.02840000  0.50000000  0.77350000  0.9 0.1196710776
H  H38  1  0.97160000  0.50000000  0.77350000  0.9 0.1196710776
H  H39  1  0.97160000  0.50000000  0.22650000  0.9 0.1196710776
H  H40  1  0.02840000  0.50000000  0.22650000  0.9 0.1196710776
H  H41  1  0.77350000  0.02840000  0.50000000  0.9 0.1196710776
H  H42  1  0.77350000  0.97160000  0.50000000  0.9 0.1196710776
H  H43  1  0.22650000  0.97160000  0.50000000  0.9 0.1196710776
H  H44  1  0.22650000  0.02840000  0.50000000  0.9 0.1196710776
H  H45  1  0.50000000  0.77350000  0.02840000  0.9 0.1196710776
H  H46  1  0.50000000  0.77350000  0.97160000  0.9 0.1196710776
H  H47  1  0.50000000  0.22650000  0.97160000  0.9 0.1196710776
H  H48  1  0.50000000  0.22650000  0.02840000  0.9 0.1196710776
H  H205  1  0.30810000  0.00000000  0.47160000  0.9 0.1890185709
H  H206  1  0.69190000  0.00000000  0.47160000  0.9 0.1890185709
H  H207  1  0.69190000  0.00000000  0.52840000  0.9 0.1890185709
H  H208  1  0.30810000  0.00000000  0.52840000  0.9 0.1890185709
H  H209  1  0.47160000  0.30810000  0.00000000  0.9 0.1890185709
H  H210  1  0.47160000  0.69190000  0.00000000  0.9 0.1890185709
H  H211  1  0.52840000  0.69190000  0.00000000  0.9 0.1890185709
H  H212  1  0.52840000  0.30810000  0.00000000  0.9 0.1890185709
H  H213  1  0.00000000  0.47160000  0.30810000  0.9 0.1890185709
H  H214  1  0.00000000  0.47160000  0.69190000  0.9 0.1890185709
H  H215  1  0.00000000  0.52840000  0.69190000  0.9 0.1890185709
H  H216  1  0.00000000  0.52840000  0.30810000  0.9 0.1890185709
H  H217  1  0.52840000  0.00000000  0.27350000  0.9 0.1196710776
H  H218  1  0.47160000  0.00000000  0.27350000  0.9 0.1196710776
H  H219  1  0.47160000  0.00000000  0.72650000  0.9 0.1196710776
H  H220  1  0.52840000  0.00000000  0.72650000  0.9 0.1196710776
H  H221  1  0.27350000  0.52840000  0.00000000  0.9 0.1196710776
H  H222  1  0.27350000  0.47160000  0.00000000  0.9 0.1196710776
H  H223  1  0.72650000  0.47160000  0.00000000  0.9 0.1196710776
H  H224  1  0.72650000  0.52840000  0.00000000  0.9 0.1196710776
H  H225  1  0.00000000  0.27350000  0.52840000  0.9 0.1196710776
H  H226  1  0.00000000  0.27350000  0.47160000  0.9 0.1196710776
H  H227  1  0.00000000  0.72650000  0.47160000  0.9 0.1196710776
H  H228  1  0.00000000  0.72650000  0.52840000  0.9 0.1196710776
C  C1  1  0.91820000  0.42219000  0.89880000  1.0 0.5018486018
C  C2  1  0.08180000  0.57781000  0.89880000  1.0 0.5018486018
C  C3  1  0.08180000  0.42219000  0.10120000  1.0 0.5018486018
C  C4  1  0.91820000  0.57781000  0.10120000  1.0 0.5018486018
C  C5  1  0.89880000  0.91820000  0.42219000  1.0 0.5018486018
C  C6  1  0.89880000  0.08180000  0.57781000  1.0 0.5018486018
C  C7  1  0.10120000  0.08180000  0.42219000  1.0 0.5018486018
C  C8  1  0.10120000  0.91820000  0.57781000  1.0 0.5018486018
C  C9  1  0.42219000  0.89880000  0.91820000  1.0 0.5018486018
C  C10  1  0.57781000  0.89880000  0.08180000  1.0 0.5018486018
C  C11  1  0.42219000  0.10120000  0.08180000  1.0 0.5018486018
C  C12  1  0.57781000  0.10120000  0.91820000  1.0 0.5018486018
C  C13  1  0.08180000  0.57781000  0.10120000  1.0 0.5018486018
C  C14  1  0.91820000  0.42219000  0.10120000  1.0 0.5018486018
C  C15  1  0.91820000  0.57781000  0.89880000  1.0 0.5018486018
C  C16  1  0.08180000  0.42219000  0.89880000  1.0 0.5018486018
C  C17  1  0.10120000  0.08180000  0.57781000  1.0 0.5018486018
C  C18  1  0.10120000  0.91820000  0.42219000  1.0 0.5018486018
C  C19  1  0.89880000  0.91820000  0.57781000  1.0 0.5018486018
C  C20  1  0.89880000  0.08180000  0.42219000  1.0 0.5018486018
C  C21  1  0.57781000  0.10120000  0.08180000  1.0 0.5018486018
C  C22  1  0.42219000  0.10120000  0.91820000  1.0 0.5018486018
C  C23  1  0.57781000  0.89880000  0.91820000  1.0 0.5018486018
C  C24  1  0.42219000  0.89880000  0.08180000  1.0 0.5018486018
C  C25  1  0.88900000  0.38048000  0.87470000  1.0 -0.0239001966
C  C26  1  0.11100000  0.61952000  0.87470000  1.0 -0.0239001966
C  C27  1  0.11100000  0.38048000  0.12530000  1.0 -0.0239001966
C  C28  1  0.88900000  0.61952000  0.12530000  1.0 -0.0239001966
C  C29  1  0.87470000  0.88900000  0.38048000  1.0 -0.0239001966
C  C30  1  0.87470000  0.11100000  0.61952000  1.0 -0.0239001966
C  C31  1  0.12530000  0.11100000  0.38048000  1.0 -0.0239001966
C  C32  1  0.12530000  0.88900000  0.61952000  1.0 -0.0239001966
C  C33  1  0.38048000  0.87470000  0.88900000  1.0 -0.0239001966
C  C34  1  0.61952000  0.87470000  0.11100000  1.0 -0.0239001966
C  C35  1  0.38048000  0.12530000  0.11100000  1.0 -0.0239001966
C  C36  1  0.61952000  0.12530000  0.88900000  1.0 -0.0239001966
C  C37  1  0.11100000  0.61952000  0.12530000  1.0 -0.0239001966
C  C38  1  0.88900000  0.38048000  0.12530000  1.0 -0.0239001966
C  C39  1  0.88900000  0.61952000  0.87470000  1.0 -0.0239001966
C  C40  1  0.11100000  0.38048000  0.87470000  1.0 -0.0239001966
C  C41  1  0.12530000  0.11100000  0.61952000  1.0 -0.0239001966
C  C42  1  0.12530000  0.88900000  0.38048000  1.0 -0.0239001966
C  C43  1  0.87470000  0.88900000  0.61952000  1.0 -0.0239001966
C  C44  1  0.87470000  0.11100000  0.38048000  1.0 -0.0239001966
C  C45  1  0.61952000  0.12530000  0.11100000  1.0 -0.0239001966
C  C46  1  0.38048000  0.12530000  0.88900000  1.0 -0.0239001966
C  C47  1  0.61952000  0.87470000  0.88900000  1.0 -0.0239001966
C  C48  1  0.38048000  0.87470000  0.11100000  1.0 -0.0239001966
C  C49  1  0.86170000  0.34770000  0.90470000  1.0 -0.0884475767
C  C50  1  0.13830000  0.65230000  0.90470000  1.0 -0.0884475767
C  C51  1  0.13830000  0.34770000  0.09530000  1.0 -0.0884475767
C  C52  1  0.86170000  0.65230000  0.09530000  1.0 -0.0884475767
C  C53  1  0.90470000  0.86170000  0.34770000  1.0 -0.0884475767
C  C54  1  0.90470000  0.13830000  0.65230000  1.0 -0.0884475767
C  C55  1  0.09530000  0.13830000  0.34770000  1.0 -0.0884475767
C  C56  1  0.09530000  0.86170000  0.65230000  1.0 -0.0884475767
C  C57  1  0.34770000  0.90470000  0.86170000  1.0 -0.0884475767
C  C58  1  0.65230000  0.90470000  0.13830000  1.0 -0.0884475767
C  C59  1  0.34770000  0.09530000  0.13830000  1.0 -0.0884475767
C  C60  1  0.65230000  0.09530000  0.86170000  1.0 -0.0884475767
C  C61  1  0.13830000  0.65230000  0.09530000  1.0 -0.0884475767
C  C62  1  0.86170000  0.34770000  0.09530000  1.0 -0.0884475767
C  C63  1  0.86170000  0.65230000  0.90470000  1.0 -0.0884475767
C  C64  1  0.13830000  0.34770000  0.90470000  1.0 -0.0884475767
C  C65  1  0.09530000  0.13830000  0.65230000  1.0 -0.0884475767
C  C66  1  0.09530000  0.86170000  0.34770000  1.0 -0.0884475767
C  C67  1  0.90470000  0.86170000  0.65230000  1.0 -0.0884475767
C  C68  1  0.90470000  0.13830000  0.34770000  1.0 -0.0884475767
C  C69  1  0.65230000  0.09530000  0.13830000  1.0 -0.0884475767
C  C70  1  0.34770000  0.09530000  0.86170000  1.0 -0.0884475767
C  C71  1  0.65230000  0.90470000  0.86170000  1.0 -0.0884475767
C  C72  1  0.34770000  0.90470000  0.13830000  1.0 -0.0884475767
C  C73  1  0.83830000  0.30630000  0.88450000  1.0 -0.1492236843
C  C74  1  0.16170000  0.69370000  0.88450000  1.0 -0.1492236843
C  C75  1  0.16170000  0.30630000  0.11550000  1.0 -0.1492236843
C  C76  1  0.83830000  0.69370000  0.11550000  1.0 -0.1492236843
C  C77  1  0.88450000  0.83830000  0.30630000  1.0 -0.1492236843
C  C78  1  0.88450000  0.16170000  0.69370000  1.0 -0.1492236843
C  C79  1  0.11550000  0.16170000  0.30630000  1.0 -0.1492236843
C  C80  1  0.11550000  0.83830000  0.69370000  1.0 -0.1492236843
C  C81  1  0.30630000  0.88450000  0.83830000  1.0 -0.1492236843
C  C82  1  0.69370000  0.88450000  0.16170000  1.0 -0.1492236843
C  C83  1  0.30630000  0.11550000  0.16170000  1.0 -0.1492236843
C  C84  1  0.69370000  0.11550000  0.83830000  1.0 -0.1492236843
C  C85  1  0.16170000  0.69370000  0.11550000  1.0 -0.1492236843
C  C86  1  0.83830000  0.30630000  0.11550000  1.0 -0.1492236843
C  C87  1  0.83830000  0.69370000  0.88450000  1.0 -0.1492236843
C  C88  1  0.16170000  0.30630000  0.88450000  1.0 -0.1492236843
C  C89  1  0.11550000  0.16170000  0.69370000  1.0 -0.1492236843
C  C90  1  0.11550000  0.83830000  0.30630000  1.0 -0.1492236843
C  C91  1  0.88450000  0.83830000  0.69370000  1.0 -0.1492236843
C  C92  1  0.88450000  0.16170000  0.30630000  1.0 -0.1492236843
C  C93  1  0.69370000  0.11550000  0.16170000  1.0 -0.1492236843
C  C94  1  0.30630000  0.11550000  0.83830000  1.0 -0.1492236843
C  C95  1  0.69370000  0.88450000  0.83830000  1.0 -0.1492236843
C  C96  1  0.30630000  0.88450000  0.16170000  1.0 -0.1492236843
C  C97  1  0.83777000  0.29840000  0.83313000  1.0 0.058969334
C  C98  1  0.16223000  0.70160000  0.83313000  1.0 0.058969334
C  C99  1  0.16223000  0.29840000  0.16687000  1.0 0.058969334
C  C100  1  0.83777000  0.70160000  0.16687000  1.0 0.058969334
C  C101  1  0.83313000  0.83777000  0.29840000  1.0 0.058969334
C  C102  1  0.83313000  0.16223000  0.70160000  1.0 0.058969334
C  C103  1  0.16687000  0.16223000  0.29840000  1.0 0.058969334
C  C104  1  0.16687000  0.83777000  0.70160000  1.0 0.058969334
C  C105  1  0.29840000  0.83313000  0.83777000  1.0 0.058969334
C  C106  1  0.70160000  0.83313000  0.16223000  1.0 0.058969334
C  C107  1  0.29840000  0.16687000  0.16223000  1.0 0.058969334
C  C108  1  0.70160000  0.16687000  0.83777000  1.0 0.058969334
C  C109  1  0.16223000  0.70160000  0.16687000  1.0 0.058969334
C  C110  1  0.83777000  0.29840000  0.16687000  1.0 0.058969334
C  C111  1  0.83777000  0.70160000  0.83313000  1.0 0.058969334
C  C112  1  0.16223000  0.29840000  0.83313000  1.0 0.058969334
C  C113  1  0.16687000  0.16223000  0.70160000  1.0 0.058969334
C  C114  1  0.16687000  0.83777000  0.29840000  1.0 0.058969334
C  C115  1  0.83313000  0.83777000  0.70160000  1.0 0.058969334
C  C116  1  0.83313000  0.16223000  0.29840000  1.0 0.058969334
C  C117  1  0.70160000  0.16687000  0.16223000  1.0 0.058969334
C  C118  1  0.29840000  0.16687000  0.83777000  1.0 0.058969334
C  C119  1  0.70160000  0.83313000  0.83777000  1.0 0.058969334
C  C120  1  0.29840000  0.83313000  0.16223000  1.0 0.058969334
C  C121  1  0.86450000  0.33350000  0.80270000  1.0 -0.1659808664
C  C122  1  0.13550000  0.66650000  0.80270000  1.0 -0.1659808664
C  C123  1  0.13550000  0.33350000  0.19730000  1.0 -0.1659808664
C  C124  1  0.86450000  0.66650000  0.19730000  1.0 -0.1659808664
C  C125  1  0.80270000  0.86450000  0.33350000  1.0 -0.1659808664
C  C126  1  0.80270000  0.13550000  0.66650000  1.0 -0.1659808664
C  C127  1  0.19730000  0.13550000  0.33350000  1.0 -0.1659808664
C  C128  1  0.19730000  0.86450000  0.66650000  1.0 -0.1659808664
C  C129  1  0.33350000  0.80270000  0.86450000  1.0 -0.1659808664
C  C130  1  0.66650000  0.80270000  0.13550000  1.0 -0.1659808664
C  C131  1  0.33350000  0.19730000  0.13550000  1.0 -0.1659808664
C  C132  1  0.66650000  0.19730000  0.86450000  1.0 -0.1659808664
C  C133  1  0.13550000  0.66650000  0.19730000  1.0 -0.1659808664
C  C134  1  0.86450000  0.33350000  0.19730000  1.0 -0.1659808664
C  C135  1  0.86450000  0.66650000  0.80270000  1.0 -0.1659808664
C  C136  1  0.13550000  0.33350000  0.80270000  1.0 -0.1659808664
C  C137  1  0.19730000  0.13550000  0.66650000  1.0 -0.1659808664
C  C138  1  0.19730000  0.86450000  0.33350000  1.0 -0.1659808664
C  C139  1  0.80270000  0.86450000  0.66650000  1.0 -0.1659808664
C  C140  1  0.80270000  0.13550000  0.33350000  1.0 -0.1659808664
C  C141  1  0.66650000  0.19730000  0.13550000  1.0 -0.1659808664
C  C142  1  0.33350000  0.19730000  0.86450000  1.0 -0.1659808664
C  C143  1  0.66650000  0.80270000  0.86450000  1.0 -0.1659808664
C  C144  1  0.33350000  0.80270000  0.13550000  1.0 -0.1659808664
C  C145  1  0.88830000  0.37330000  0.82260000  1.0 -0.0884475767
C  C146  1  0.11170000  0.62670000  0.82260000  1.0 -0.0884475767
C  C147  1  0.11170000  0.37330000  0.17740000  1.0 -0.0884475767
C  C148  1  0.88830000  0.62670000  0.17740000  1.0 -0.0884475767
C  C149  1  0.82260000  0.88830000  0.37330000  1.0 -0.0884475767
C  C150  1  0.82260000  0.11170000  0.62670000  1.0 -0.0884475767
C  C151  1  0.17740000  0.11170000  0.37330000  1.0 -0.0884475767
C  C152  1  0.17740000  0.88830000  0.62670000  1.0 -0.0884475767
C  C153  1  0.37330000  0.82260000  0.88830000  1.0 -0.0884475767
C  C154  1  0.62670000  0.82260000  0.11170000  1.0 -0.0884475767
C  C155  1  0.37330000  0.17740000  0.11170000  1.0 -0.0884475767
C  C156  1  0.62670000  0.17740000  0.88830000  1.0 -0.0884475767
C  C157  1  0.11170000  0.62670000  0.17740000  1.0 -0.0884475767
C  C158  1  0.88830000  0.37330000  0.17740000  1.0 -0.0884475767
C  C159  1  0.88830000  0.62670000  0.82260000  1.0 -0.0884475767
C  C160  1  0.11170000  0.37330000  0.82260000  1.0 -0.0884475767
C  C161  1  0.17740000  0.11170000  0.62670000  1.0 -0.0884475767
C  C162  1  0.17740000  0.88830000  0.37330000  1.0 -0.0884475767
C  C163  1  0.82260000  0.88830000  0.62670000  1.0 -0.0884475767
C  C164  1  0.82260000  0.11170000  0.37330000  1.0 -0.0884475767
C  C165  1  0.62670000  0.17740000  0.11170000  1.0 -0.0884475767
C  C166  1  0.37330000  0.17740000  0.88830000  1.0 -0.0884475767
C  C167  1  0.62670000  0.82260000  0.88830000  1.0 -0.0884475767
C  C168  1  0.37330000  0.82260000  0.11170000  1.0 -0.0884475767
C  C169  1  0.81348000  0.25317000  0.81110000  1.0 0.0725545446
C  C170  1  0.18652000  0.74683000  0.81110000  1.0 0.0725545446
C  C171  1  0.18652000  0.25317000  0.18890000  1.0 0.0725545446
C  C172  1  0.81348000  0.74683000  0.18890000  1.0 0.0725545446
C  C173  1  0.81110000  0.81348000  0.25317000  1.0 0.0725545446
C  C174  1  0.81110000  0.18652000  0.74683000  1.0 0.0725545446
C  C175  1  0.18890000  0.18652000  0.25317000  1.0 0.0725545446
C  C176  1  0.18890000  0.81348000  0.74683000  1.0 0.0725545446
C  C177  1  0.25317000  0.81110000  0.81348000  1.0 0.0725545446
C  C178  1  0.74683000  0.81110000  0.18652000  1.0 0.0725545446
C  C179  1  0.25317000  0.18890000  0.18652000  1.0 0.0725545446
C  C180  1  0.74683000  0.18890000  0.81348000  1.0 0.0725545446
C  C181  1  0.18652000  0.74683000  0.18890000  1.0 0.0725545446
C  C182  1  0.81348000  0.25317000  0.18890000  1.0 0.0725545446
C  C183  1  0.81348000  0.74683000  0.81110000  1.0 0.0725545446
C  C184  1  0.18652000  0.25317000  0.81110000  1.0 0.0725545446
C  C185  1  0.18890000  0.18652000  0.74683000  1.0 0.0725545446
C  C186  1  0.18890000  0.81348000  0.25317000  1.0 0.0725545446
C  C187  1  0.81110000  0.81348000  0.74683000  1.0 0.0725545446
C  C188  1  0.81110000  0.18652000  0.25317000  1.0 0.0725545446
C  C189  1  0.74683000  0.18890000  0.18652000  1.0 0.0725545446
C  C190  1  0.25317000  0.18890000  0.81348000  1.0 0.0725545446
C  C191  1  0.74683000  0.81110000  0.81348000  1.0 0.0725545446
C  C192  1  0.25317000  0.81110000  0.18652000  1.0 0.0725545446
C  C193  1  0.83305000  0.22985000  0.76766000  1.0 -0.2024860447
C  C194  1  0.16695000  0.77015000  0.76766000  1.0 -0.2024860447
C  C195  1  0.16695000  0.22985000  0.23234000  1.0 -0.2024860447
C  C196  1  0.83305000  0.77015000  0.23234000  1.0 -0.2024860447
C  C197  1  0.76766000  0.83305000  0.22985000  1.0 -0.2024860447
C  C198  1  0.76766000  0.16695000  0.77015000  1.0 -0.2024860447
C  C199  1  0.23234000  0.16695000  0.22985000  1.0 -0.2024860447
C  C200  1  0.23234000  0.83305000  0.77015000  1.0 -0.2024860447
C  C201  1  0.22985000  0.76766000  0.83305000  1.0 -0.2024860447
C  C202  1  0.77015000  0.76766000  0.16695000  1.0 -0.2024860447
C  C203  1  0.22985000  0.23234000  0.16695000  1.0 -0.2024860447
C  C204  1  0.77015000  0.23234000  0.83305000  1.0 -0.2024860447
C  C205  1  0.16695000  0.77015000  0.23234000  1.0 -0.2024860447
C  C206  1  0.83305000  0.22985000  0.23234000  1.0 -0.2024860447
C  C207  1  0.83305000  0.77015000  0.76766000  1.0 -0.2024860447
C  C208  1  0.16695000  0.22985000  0.76766000  1.0 -0.2024860447
C  C209  1  0.23234000  0.16695000  0.77015000  1.0 -0.2024860447
C  C210  1  0.23234000  0.83305000  0.22985000  1.0 -0.2024860447
C  C211  1  0.76766000  0.83305000  0.77015000  1.0 -0.2024860447
C  C212  1  0.76766000  0.16695000  0.22985000  1.0 -0.2024860447
C  C213  1  0.77015000  0.23234000  0.16695000  1.0 -0.2024860447
C  C214  1  0.22985000  0.23234000  0.83305000  1.0 -0.2024860447
C  C215  1  0.77015000  0.76766000  0.83305000  1.0 -0.2024860447
C  C216  1  0.22985000  0.76766000  0.16695000  1.0 -0.2024860447
C  C217  1  0.41820000  0.92219000  0.39880000  1.0 0.5018486018
C  C218  1  0.58180000  0.07781000  0.39880000  1.0 0.5018486018
C  C219  1  0.58180000  0.92219000  0.60120000  1.0 0.5018486018
C  C220  1  0.41820000  0.07781000  0.60120000  1.0 0.5018486018
C  C221  1  0.39880000  0.41820000  0.92219000  1.0 0.5018486018
C  C222  1  0.39880000  0.58180000  0.07781000  1.0 0.5018486018
C  C223  1  0.60120000  0.58180000  0.92219000  1.0 0.5018486018
C  C224  1  0.60120000  0.41820000  0.07781000  1.0 0.5018486018
C  C225  1  0.92219000  0.39880000  0.41820000  1.0 0.5018486018
C  C226  1  0.07781000  0.39880000  0.58180000  1.0 0.5018486018
C  C227  1  0.92219000  0.60120000  0.58180000  1.0 0.5018486018
C  C228  1  0.07781000  0.60120000  0.41820000  1.0 0.5018486018
C  C229  1  0.58180000  0.07781000  0.60120000  1.0 0.5018486018
C  C230  1  0.41820000  0.92219000  0.60120000  1.0 0.5018486018
C  C231  1  0.41820000  0.07781000  0.39880000  1.0 0.5018486018
C  C232  1  0.58180000  0.92219000  0.39880000  1.0 0.5018486018
C  C233  1  0.60120000  0.58180000  0.07781000  1.0 0.5018486018
C  C234  1  0.60120000  0.41820000  0.92219000  1.0 0.5018486018
C  C235  1  0.39880000  0.41820000  0.07781000  1.0 0.5018486018
C  C236  1  0.39880000  0.58180000  0.92219000  1.0 0.5018486018
C  C237  1  0.07781000  0.60120000  0.58180000  1.0 0.5018486018
C  C238  1  0.92219000  0.60120000  0.41820000  1.0 0.5018486018
C  C239  1  0.07781000  0.39880000  0.41820000  1.0 0.5018486018
C  C240  1  0.92219000  0.39880000  0.58180000  1.0 0.5018486018
C  C241  1  0.38900000  0.88048000  0.37470000  1.0 -0.0239001966
C  C242  1  0.61100000  0.11952000  0.37470000  1.0 -0.0239001966
C  C243  1  0.61100000  0.88048000  0.62530000  1.0 -0.0239001966
C  C244  1  0.38900000  0.11952000  0.62530000  1.0 -0.0239001966
C  C245  1  0.37470000  0.38900000  0.88048000  1.0 -0.0239001966
C  C246  1  0.37470000  0.61100000  0.11952000  1.0 -0.0239001966
C  C247  1  0.62530000  0.61100000  0.88048000  1.0 -0.0239001966
C  C248  1  0.62530000  0.38900000  0.11952000  1.0 -0.0239001966
C  C249  1  0.88048000  0.37470000  0.38900000  1.0 -0.0239001966
C  C250  1  0.11952000  0.37470000  0.61100000  1.0 -0.0239001966
C  C251  1  0.88048000  0.62530000  0.61100000  1.0 -0.0239001966
C  C252  1  0.11952000  0.62530000  0.38900000  1.0 -0.0239001966
C  C253  1  0.61100000  0.11952000  0.62530000  1.0 -0.0239001966
C  C254  1  0.38900000  0.88048000  0.62530000  1.0 -0.0239001966
C  C255  1  0.38900000  0.11952000  0.37470000  1.0 -0.0239001966
C  C256  1  0.61100000  0.88048000  0.37470000  1.0 -0.0239001966
C  C257  1  0.62530000  0.61100000  0.11952000  1.0 -0.0239001966
C  C258  1  0.62530000  0.38900000  0.88048000  1.0 -0.0239001966
C  C259  1  0.37470000  0.38900000  0.11952000  1.0 -0.0239001966
C  C260  1  0.37470000  0.61100000  0.88048000  1.0 -0.0239001966
C  C261  1  0.11952000  0.62530000  0.61100000  1.0 -0.0239001966
C  C262  1  0.88048000  0.62530000  0.38900000  1.0 -0.0239001966
C  C263  1  0.11952000  0.37470000  0.38900000  1.0 -0.0239001966
C  C264  1  0.88048000  0.37470000  0.61100000  1.0 -0.0239001966
C  C265  1  0.36170000  0.84770000  0.40470000  1.0 -0.0884475767
C  C266  1  0.63830000  0.15230000  0.40470000  1.0 -0.0884475767
C  C267  1  0.63830000  0.84770000  0.59530000  1.0 -0.0884475767
C  C268  1  0.36170000  0.15230000  0.59530000  1.0 -0.0884475767
C  C269  1  0.40470000  0.36170000  0.84770000  1.0 -0.0884475767
C  C270  1  0.40470000  0.63830000  0.15230000  1.0 -0.0884475767
C  C271  1  0.59530000  0.63830000  0.84770000  1.0 -0.0884475767
C  C272  1  0.59530000  0.36170000  0.15230000  1.0 -0.0884475767
C  C273  1  0.84770000  0.40470000  0.36170000  1.0 -0.0884475767
C  C274  1  0.15230000  0.40470000  0.63830000  1.0 -0.0884475767
C  C275  1  0.84770000  0.59530000  0.63830000  1.0 -0.0884475767
C  C276  1  0.15230000  0.59530000  0.36170000  1.0 -0.0884475767
C  C277  1  0.63830000  0.15230000  0.59530000  1.0 -0.0884475767
C  C278  1  0.36170000  0.84770000  0.59530000  1.0 -0.0884475767
C  C279  1  0.36170000  0.15230000  0.40470000  1.0 -0.0884475767
C  C280  1  0.63830000  0.84770000  0.40470000  1.0 -0.0884475767
C  C281  1  0.59530000  0.63830000  0.15230000  1.0 -0.0884475767
C  C282  1  0.59530000  0.36170000  0.84770000  1.0 -0.0884475767
C  C283  1  0.40470000  0.36170000  0.15230000  1.0 -0.0884475767
C  C284  1  0.40470000  0.63830000  0.84770000  1.0 -0.0884475767
C  C285  1  0.15230000  0.59530000  0.63830000  1.0 -0.0884475767
C  C286  1  0.84770000  0.59530000  0.36170000  1.0 -0.0884475767
C  C287  1  0.15230000  0.40470000  0.36170000  1.0 -0.0884475767
C  C288  1  0.84770000  0.40470000  0.63830000  1.0 -0.0884475767
C  C289  1  0.33830000  0.80630000  0.38450000  1.0 -0.1492236843
C  C290  1  0.66170000  0.19370000  0.38450000  1.0 -0.1492236843
C  C291  1  0.66170000  0.80630000  0.61550000  1.0 -0.1492236843
C  C292  1  0.33830000  0.19370000  0.61550000  1.0 -0.1492236843
C  C293  1  0.38450000  0.33830000  0.80630000  1.0 -0.1492236843
C  C294  1  0.38450000  0.66170000  0.19370000  1.0 -0.1492236843
C  C295  1  0.61550000  0.66170000  0.80630000  1.0 -0.1492236843
C  C296  1  0.61550000  0.33830000  0.19370000  1.0 -0.1492236843
C  C297  1  0.80630000  0.38450000  0.33830000  1.0 -0.1492236843
C  C298  1  0.19370000  0.38450000  0.66170000  1.0 -0.1492236843
C  C299  1  0.80630000  0.61550000  0.66170000  1.0 -0.1492236843
C  C300  1  0.19370000  0.61550000  0.33830000  1.0 -0.1492236843
C  C301  1  0.66170000  0.19370000  0.61550000  1.0 -0.1492236843
C  C302  1  0.33830000  0.80630000  0.61550000  1.0 -0.1492236843
C  C303  1  0.33830000  0.19370000  0.38450000  1.0 -0.1492236843
C  C304  1  0.66170000  0.80630000  0.38450000  1.0 -0.1492236843
C  C305  1  0.61550000  0.66170000  0.19370000  1.0 -0.1492236843
C  C306  1  0.61550000  0.33830000  0.80630000  1.0 -0.1492236843
C  C307  1  0.38450000  0.33830000  0.19370000  1.0 -0.1492236843
C  C308  1  0.38450000  0.66170000  0.80630000  1.0 -0.1492236843
C  C309  1  0.19370000  0.61550000  0.66170000  1.0 -0.1492236843
C  C310  1  0.80630000  0.61550000  0.33830000  1.0 -0.1492236843
C  C311  1  0.19370000  0.38450000  0.33830000  1.0 -0.1492236843
C  C312  1  0.80630000  0.38450000  0.66170000  1.0 -0.1492236843
C  C313  1  0.33777000  0.79840000  0.33313000  1.0 0.058969334
C  C314  1  0.66223000  0.20160000  0.33313000  1.0 0.058969334
C  C315  1  0.66223000  0.79840000  0.66687000  1.0 0.058969334
C  C316  1  0.33777000  0.20160000  0.66687000  1.0 0.058969334
C  C317  1  0.33313000  0.33777000  0.79840000  1.0 0.058969334
C  C318  1  0.33313000  0.66223000  0.20160000  1.0 0.058969334
C  C319  1  0.66687000  0.66223000  0.79840000  1.0 0.058969334
C  C320  1  0.66687000  0.33777000  0.20160000  1.0 0.058969334
C  C321  1  0.79840000  0.33313000  0.33777000  1.0 0.058969334
C  C322  1  0.20160000  0.33313000  0.66223000  1.0 0.058969334
C  C323  1  0.79840000  0.66687000  0.66223000  1.0 0.058969334
C  C324  1  0.20160000  0.66687000  0.33777000  1.0 0.058969334
C  C325  1  0.66223000  0.20160000  0.66687000  1.0 0.058969334
C  C326  1  0.33777000  0.79840000  0.66687000  1.0 0.058969334
C  C327  1  0.33777000  0.20160000  0.33313000  1.0 0.058969334
C  C328  1  0.66223000  0.79840000  0.33313000  1.0 0.058969334
C  C329  1  0.66687000  0.66223000  0.20160000  1.0 0.058969334
C  C330  1  0.66687000  0.33777000  0.79840000  1.0 0.058969334
C  C331  1  0.33313000  0.33777000  0.20160000  1.0 0.058969334
C  C332  1  0.33313000  0.66223000  0.79840000  1.0 0.058969334
C  C333  1  0.20160000  0.66687000  0.66223000  1.0 0.058969334
C  C334  1  0.79840000  0.66687000  0.33777000  1.0 0.058969334
C  C335  1  0.20160000  0.33313000  0.33777000  1.0 0.058969334
C  C336  1  0.79840000  0.33313000  0.66223000  1.0 0.058969334
C  C337  1  0.36450000  0.83350000  0.30270000  1.0 -0.1659808664
C  C338  1  0.63550000  0.16650000  0.30270000  1.0 -0.1659808664
C  C339  1  0.63550000  0.83350000  0.69730000  1.0 -0.1659808664
C  C340  1  0.36450000  0.16650000  0.69730000  1.0 -0.1659808664
C  C341  1  0.30270000  0.36450000  0.83350000  1.0 -0.1659808664
C  C342  1  0.30270000  0.63550000  0.16650000  1.0 -0.1659808664
C  C343  1  0.69730000  0.63550000  0.83350000  1.0 -0.1659808664
C  C344  1  0.69730000  0.36450000  0.16650000  1.0 -0.1659808664
C  C345  1  0.83350000  0.30270000  0.36450000  1.0 -0.1659808664
C  C346  1  0.16650000  0.30270000  0.63550000  1.0 -0.1659808664
C  C347  1  0.83350000  0.69730000  0.63550000  1.0 -0.1659808664
C  C348  1  0.16650000  0.69730000  0.36450000  1.0 -0.1659808664
C  C349  1  0.63550000  0.16650000  0.69730000  1.0 -0.1659808664
C  C350  1  0.36450000  0.83350000  0.69730000  1.0 -0.1659808664
C  C351  1  0.36450000  0.16650000  0.30270000  1.0 -0.1659808664
C  C352  1  0.63550000  0.83350000  0.30270000  1.0 -0.1659808664
C  C353  1  0.69730000  0.63550000  0.16650000  1.0 -0.1659808664
C  C354  1  0.69730000  0.36450000  0.83350000  1.0 -0.1659808664
C  C355  1  0.30270000  0.36450000  0.16650000  1.0 -0.1659808664
C  C356  1  0.30270000  0.63550000  0.83350000  1.0 -0.1659808664
C  C357  1  0.16650000  0.69730000  0.63550000  1.0 -0.1659808664
C  C358  1  0.83350000  0.69730000  0.36450000  1.0 -0.1659808664
C  C359  1  0.16650000  0.30270000  0.36450000  1.0 -0.1659808664
C  C360  1  0.83350000  0.30270000  0.63550000  1.0 -0.1659808664
C  C361  1  0.38830000  0.87330000  0.32260000  1.0 -0.0884475767
C  C362  1  0.61170000  0.12670000  0.32260000  1.0 -0.0884475767
C  C363  1  0.61170000  0.87330000  0.67740000  1.0 -0.0884475767
C  C364  1  0.38830000  0.12670000  0.67740000  1.0 -0.0884475767
C  C365  1  0.32260000  0.38830000  0.87330000  1.0 -0.0884475767
C  C366  1  0.32260000  0.61170000  0.12670000  1.0 -0.0884475767
C  C367  1  0.67740000  0.61170000  0.87330000  1.0 -0.0884475767
C  C368  1  0.67740000  0.38830000  0.12670000  1.0 -0.0884475767
C  C369  1  0.87330000  0.32260000  0.38830000  1.0 -0.0884475767
C  C370  1  0.12670000  0.32260000  0.61170000  1.0 -0.0884475767
C  C371  1  0.87330000  0.67740000  0.61170000  1.0 -0.0884475767
C  C372  1  0.12670000  0.67740000  0.38830000  1.0 -0.0884475767
C  C373  1  0.61170000  0.12670000  0.67740000  1.0 -0.0884475767
C  C374  1  0.38830000  0.87330000  0.67740000  1.0 -0.0884475767
C  C375  1  0.38830000  0.12670000  0.32260000  1.0 -0.0884475767
C  C376  1  0.61170000  0.87330000  0.32260000  1.0 -0.0884475767
C  C377  1  0.67740000  0.61170000  0.12670000  1.0 -0.0884475767
C  C378  1  0.67740000  0.38830000  0.87330000  1.0 -0.0884475767
C  C379  1  0.32260000  0.38830000  0.12670000  1.0 -0.0884475767
C  C380  1  0.32260000  0.61170000  0.87330000  1.0 -0.0884475767
C  C381  1  0.12670000  0.67740000  0.61170000  1.0 -0.0884475767
C  C382  1  0.87330000  0.67740000  0.38830000  1.0 -0.0884475767
C  C383  1  0.12670000  0.32260000  0.38830000  1.0 -0.0884475767
C  C384  1  0.87330000  0.32260000  0.61170000  1.0 -0.0884475767
C  C385  1  0.31348000  0.75317000  0.31110000  1.0 0.0725545446
C  C386  1  0.68652000  0.24683000  0.31110000  1.0 0.0725545446
C  C387  1  0.68652000  0.75317000  0.68890000  1.0 0.0725545446
C  C388  1  0.31348000  0.24683000  0.68890000  1.0 0.0725545446
C  C389  1  0.31110000  0.31348000  0.75317000  1.0 0.0725545446
C  C390  1  0.31110000  0.68652000  0.24683000  1.0 0.0725545446
C  C391  1  0.68890000  0.68652000  0.75317000  1.0 0.0725545446
C  C392  1  0.68890000  0.31348000  0.24683000  1.0 0.0725545446
C  C393  1  0.75317000  0.31110000  0.31348000  1.0 0.0725545446
C  C394  1  0.24683000  0.31110000  0.68652000  1.0 0.0725545446
C  C395  1  0.75317000  0.68890000  0.68652000  1.0 0.0725545446
C  C396  1  0.24683000  0.68890000  0.31348000  1.0 0.0725545446
C  C397  1  0.68652000  0.24683000  0.68890000  1.0 0.0725545446
C  C398  1  0.31348000  0.75317000  0.68890000  1.0 0.0725545446
C  C399  1  0.31348000  0.24683000  0.31110000  1.0 0.0725545446
C  C400  1  0.68652000  0.75317000  0.31110000  1.0 0.0725545446
C  C401  1  0.68890000  0.68652000  0.24683000  1.0 0.0725545446
C  C402  1  0.68890000  0.31348000  0.75317000  1.0 0.0725545446
C  C403  1  0.31110000  0.31348000  0.24683000  1.0 0.0725545446
C  C404  1  0.31110000  0.68652000  0.75317000  1.0 0.0725545446
C  C405  1  0.24683000  0.68890000  0.68652000  1.0 0.0725545446
C  C406  1  0.75317000  0.68890000  0.31348000  1.0 0.0725545446
C  C407  1  0.24683000  0.31110000  0.31348000  1.0 0.0725545446
C  C408  1  0.75317000  0.31110000  0.68652000  1.0 0.0725545446
C  C409  1  0.33305000  0.72985000  0.26766000  1.0 -0.2024860447
C  C410  1  0.66695000  0.27015000  0.26766000  1.0 -0.2024860447
C  C411  1  0.66695000  0.72985000  0.73234000  1.0 -0.2024860447
C  C412  1  0.33305000  0.27015000  0.73234000  1.0 -0.2024860447
C  C413  1  0.26766000  0.33305000  0.72985000  1.0 -0.2024860447
C  C414  1  0.26766000  0.66695000  0.27015000  1.0 -0.2024860447
C  C415  1  0.73234000  0.66695000  0.72985000  1.0 -0.2024860447
C  C416  1  0.73234000  0.33305000  0.27015000  1.0 -0.2024860447
C  C417  1  0.72985000  0.26766000  0.33305000  1.0 -0.2024860447
C  C418  1  0.27015000  0.26766000  0.66695000  1.0 -0.2024860447
C  C419  1  0.72985000  0.73234000  0.66695000  1.0 -0.2024860447
C  C420  1  0.27015000  0.73234000  0.33305000  1.0 -0.2024860447
C  C421  1  0.66695000  0.27015000  0.73234000  1.0 -0.2024860447
C  C422  1  0.33305000  0.72985000  0.73234000  1.0 -0.2024860447
C  C423  1  0.33305000  0.27015000  0.26766000  1.0 -0.2024860447
C  C424  1  0.66695000  0.72985000  0.26766000  1.0 -0.2024860447
C  C425  1  0.73234000  0.66695000  0.27015000  1.0 -0.2024860447
C  C426  1  0.73234000  0.33305000  0.72985000  1.0 -0.2024860447
C  C427  1  0.26766000  0.33305000  0.27015000  1.0 -0.2024860447
C  C428  1  0.26766000  0.66695000  0.72985000  1.0 -0.2024860447
C  C429  1  0.27015000  0.73234000  0.66695000  1.0 -0.2024860447
C  C430  1  0.72985000  0.73234000  0.33305000  1.0 -0.2024860447
C  C431  1  0.27015000  0.26766000  0.33305000  1.0 -0.2024860447
C  C432  1  0.72985000  0.26766000  0.66695000  1.0 -0.2024860447
O  O85  1  0.94758000  0.44723000  0.86868000  1.0 -0.548508956
O  O86  1  0.05242000  0.55277000  0.86868000  1.0 -0.548508956
O  O87  1  0.05242000  0.44723000  0.13132000  1.0 -0.548508956
O  O88  1  0.94758000  0.55277000  0.13132000  1.0 -0.548508956
O  O89  1  0.86868000  0.94758000  0.44723000  1.0 -0.548508956
O  O90  1  0.86868000  0.05242000  0.55277000  1.0 -0.548508956
O  O91  1  0.13132000  0.05242000  0.44723000  1.0 -0.548508956
O  O92  1  0.13132000  0.94758000  0.55277000  1.0 -0.548508956
O  O93  1  0.44723000  0.86868000  0.94758000  1.0 -0.548508956
O  O94  1  0.55277000  0.86868000  0.05242000  1.0 -0.548508956
O  O95  1  0.44723000  0.13132000  0.05242000  1.0 -0.548508956
O  O96  1  0.55277000  0.13132000  0.94758000  1.0 -0.548508956
O  O97  1  0.05242000  0.55277000  0.13132000  1.0 -0.548508956
O  O98  1  0.94758000  0.44723000  0.13132000  1.0 -0.548508956
O  O99  1  0.94758000  0.55277000  0.86868000  1.0 -0.548508956
O  O100  1  0.05242000  0.44723000  0.86868000  1.0 -0.548508956
O  O101  1  0.13132000  0.05242000  0.55277000  1.0 -0.548508956
O  O102  1  0.13132000  0.94758000  0.44723000  1.0 -0.548508956
O  O103  1  0.86868000  0.94758000  0.55277000  1.0 -0.548508956
O  O104  1  0.86868000  0.05242000  0.44723000  1.0 -0.548508956
O  O105  1  0.55277000  0.13132000  0.05242000  1.0 -0.548508956
O  O106  1  0.44723000  0.13132000  0.94758000  1.0 -0.548508956
O  O107  1  0.55277000  0.86868000  0.94758000  1.0 -0.548508956
O  O108  1  0.44723000  0.86868000  0.05242000  1.0 -0.548508956
O  O199  1  0.44758000  0.94723000  0.36868000  1.0 -0.548508956
O  O200  1  0.55242000  0.05277000  0.36868000  1.0 -0.548508956
O  O201  1  0.55242000  0.94723000  0.63132000  1.0 -0.548508956
O  O202  1  0.44758000  0.05277000  0.63132000  1.0 -0.548508956
O  O203  1  0.36868000  0.44758000  0.94723000  1.0 -0.548508956
O  O204  1  0.36868000  0.55242000  0.05277000  1.0 -0.548508956
O  O205  1  0.63132000  0.55242000  0.94723000  1.0 -0.548508956
O  O206  1  0.63132000  0.44758000  0.05277000  1.0 -0.548508956
O  O207  1  0.94723000  0.36868000  0.44758000  1.0 -0.548508956
O  O208  1  0.05277000  0.36868000  0.55242000  1.0 -0.548508956
O  O209  1  0.94723000  0.63132000  0.55242000  1.0 -0.548508956
O  O210  1  0.05277000  0.63132000  0.44758000  1.0 -0.548508956
O  O211  1  0.55242000  0.05277000  0.63132000  1.0 -0.548508956
O  O212  1  0.44758000  0.94723000  0.63132000  1.0 -0.548508956
O  O213  1  0.44758000  0.05277000  0.36868000  1.0 -0.548508956
O  O214  1  0.55242000  0.94723000  0.36868000  1.0 -0.548508956
O  O215  1  0.63132000  0.55242000  0.05277000  1.0 -0.548508956
O  O216  1  0.63132000  0.44758000  0.94723000  1.0 -0.548508956
O  O217  1  0.36868000  0.44758000  0.05277000  1.0 -0.548508956
O  O218  1  0.36868000  0.55242000  0.94723000  1.0 -0.548508956
O  O219  1  0.05277000  0.63132000  0.55242000  1.0 -0.548508956
O  O220  1  0.94723000  0.63132000  0.44758000  1.0 -0.548508956
O  O221  1  0.05277000  0.36868000  0.44758000  1.0 -0.548508956
O  O222  1  0.94723000  0.36868000  0.55242000  1.0 -0.548508956
O  O1  1  0.80440000  0.50000000  0.00000000  0.1 -0.2133457849
O  O2  1  0.19560000  0.50000000  0.00000000  0.1 -0.2133457849
O  O3  1  0.00000000  0.80440000  0.50000000  0.1 -0.2133457849
O  O4  1  0.00000000  0.19560000  0.50000000  0.1 -0.2133457849
O  O5  1  0.50000000  0.00000000  0.80440000  0.1 -0.2133457849
O  O6  1  0.50000000  0.00000000  0.19560000  0.1 -0.2133457849
O  O7  1  0.95100000  0.50000000  0.00000000  0.1 -0.1915216045
O  O8  1  0.04900000  0.50000000  0.00000000  0.1 -0.1915216045
O  O9  1  0.00000000  0.95100000  0.50000000  0.1 -0.1915216045
O  O10  1  0.00000000  0.04900000  0.50000000  0.1 -0.1915216045
O  O11  1  0.50000000  0.00000000  0.95100000  0.1 -0.1915216045
O  O12  1  0.50000000  0.00000000  0.04900000  0.1 -0.1915216045
O  O13  1  0.89900000  0.44100000  0.93900000  0.1 -0.3055291613
O  O14  1  0.10100000  0.55900000  0.93900000  0.1 -0.3055291613
O  O15  1  0.10100000  0.44100000  0.06100000  0.1 -0.3055291613
O  O16  1  0.89900000  0.55900000  0.06100000  0.1 -0.3055291613
O  O17  1  0.93900000  0.89900000  0.44100000  0.1 -0.3055291613
O  O18  1  0.93900000  0.10100000  0.55900000  0.1 -0.3055291613
O  O19  1  0.06100000  0.10100000  0.44100000  0.1 -0.3055291613
O  O20  1  0.06100000  0.89900000  0.55900000  0.1 -0.3055291613
O  O21  1  0.44100000  0.93900000  0.89900000  0.1 -0.3055291613
O  O22  1  0.55900000  0.93900000  0.10100000  0.1 -0.3055291613
O  O23  1  0.44100000  0.06100000  0.10100000  0.1 -0.3055291613
O  O24  1  0.55900000  0.06100000  0.89900000  0.1 -0.3055291613
O  O25  1  0.10100000  0.55900000  0.06100000  0.1 -0.3055291613
O  O26  1  0.89900000  0.44100000  0.06100000  0.1 -0.3055291613
O  O27  1  0.89900000  0.55900000  0.93900000  0.1 -0.3055291613
O  O28  1  0.10100000  0.44100000  0.93900000  0.1 -0.3055291613
O  O29  1  0.06100000  0.10100000  0.55900000  0.1 -0.3055291613
O  O30  1  0.06100000  0.89900000  0.44100000  0.1 -0.3055291613
O  O31  1  0.93900000  0.89900000  0.55900000  0.1 -0.3055291613
O  O32  1  0.93900000  0.10100000  0.44100000  0.1 -0.3055291613
O  O33  1  0.55900000  0.06100000  0.10100000  0.1 -0.3055291613
O  O34  1  0.44100000  0.06100000  0.89900000  0.1 -0.3055291613
O  O35  1  0.55900000  0.93900000  0.89900000  0.1 -0.3055291613
O  O36  1  0.44100000  0.93900000  0.10100000  0.1 -0.3055291613
O  O37  1  0.00000000  0.50000000  0.83960000  0.1 -0.0363005422
O  O38  1  0.00000000  0.50000000  0.16040000  0.1 -0.0363005422
O  O39  1  0.83960000  0.00000000  0.50000000  0.1 -0.0363005422
O  O40  1  0.16040000  0.00000000  0.50000000  0.1 -0.0363005422
O  O41  1  0.50000000  0.83960000  0.00000000  0.1 -0.0363005422
O  O42  1  0.50000000  0.16040000  0.00000000  0.1 -0.0363005422
O  O115  1  0.30440000  0.00000000  0.50000000  0.1 -0.2133457849
O  O116  1  0.69560000  0.00000000  0.50000000  0.1 -0.2133457849
O  O117  1  0.50000000  0.30440000  0.00000000  0.1 -0.2133457849
O  O118  1  0.50000000  0.69560000  0.00000000  0.1 -0.2133457849
O  O119  1  0.00000000  0.50000000  0.30440000  0.1 -0.2133457849
O  O120  1  0.00000000  0.50000000  0.69560000  0.1 -0.2133457849
O  O121  1  0.45100000  0.00000000  0.50000000  0.1 -0.1915216045
O  O122  1  0.54900000  0.00000000  0.50000000  0.1 -0.1915216045
O  O123  1  0.50000000  0.45100000  0.00000000  0.1 -0.1915216045
O  O124  1  0.50000000  0.54900000  0.00000000  0.1 -0.1915216045
O  O125  1  0.00000000  0.50000000  0.45100000  0.1 -0.1915216045
O  O126  1  0.00000000  0.50000000  0.54900000  0.1 -0.1915216045
O  O127  1  0.39900000  0.94100000  0.43900000  0.1 -0.3055291613
O  O128  1  0.60100000  0.05900000  0.43900000  0.1 -0.3055291613
O  O129  1  0.60100000  0.94100000  0.56100000  0.1 -0.3055291613
O  O130  1  0.39900000  0.05900000  0.56100000  0.1 -0.3055291613
O  O131  1  0.43900000  0.39900000  0.94100000  0.1 -0.3055291613
O  O132  1  0.43900000  0.60100000  0.05900000  0.1 -0.3055291613
O  O133  1  0.56100000  0.60100000  0.94100000  0.1 -0.3055291613
O  O134  1  0.56100000  0.39900000  0.05900000  0.1 -0.3055291613
O  O135  1  0.94100000  0.43900000  0.39900000  0.1 -0.3055291613
O  O136  1  0.05900000  0.43900000  0.60100000  0.1 -0.3055291613
O  O137  1  0.94100000  0.56100000  0.60100000  0.1 -0.3055291613
O  O138  1  0.05900000  0.56100000  0.39900000  0.1 -0.3055291613
O  O139  1  0.60100000  0.05900000  0.56100000  0.1 -0.3055291613
O  O140  1  0.39900000  0.94100000  0.56100000  0.1 -0.3055291613
O  O141  1  0.39900000  0.05900000  0.43900000  0.1 -0.3055291613
O  O142  1  0.60100000  0.94100000  0.43900000  0.1 -0.3055291613
O  O143  1  0.56100000  0.60100000  0.05900000  0.1 -0.3055291613
O  O144  1  0.56100000  0.39900000  0.94100000  0.1 -0.3055291613
O  O145  1  0.43900000  0.39900000  0.05900000  0.1 -0.3055291613
O  O146  1  0.43900000  0.60100000  0.94100000  0.1 -0.3055291613
O  O147  1  0.05900000  0.56100000  0.60100000  0.1 -0.3055291613
O  O148  1  0.94100000  0.56100000  0.39900000  0.1 -0.3055291613
O  O149  1  0.05900000  0.43900000  0.39900000  0.1 -0.3055291613
O  O150  1  0.94100000  0.43900000  0.60100000  0.1 -0.3055291613
O  O151  1  0.50000000  0.00000000  0.33960000  0.1 -0.0363005422
O  O152  1  0.50000000  0.00000000  0.66040000  0.1 -0.0363005422
O  O153  1  0.33960000  0.50000000  0.00000000  0.1 -0.0363005422
O  O154  1  0.66040000  0.50000000  0.00000000  0.1 -0.0363005422
O  O155  1  0.00000000  0.33960000  0.50000000  0.1 -0.0363005422
O  O156  1  0.00000000  0.66040000  0.50000000  0.1 -0.0363005422
O  O43  1  0.83240000  0.50000000  0.00000000  0.9 -0.1915216045
O  O44  1  0.16760000  0.50000000  0.00000000  0.9 -0.1915216045
O  O45  1  0.00000000  0.83240000  0.50000000  0.9 -0.1915216045
O  O46  1  0.00000000  0.16760000  0.50000000  0.9 -0.1915216045
O  O47  1  0.50000000  0.00000000  0.83240000  0.9 -0.1915216045
O  O48  1  0.50000000  0.00000000  0.16760000  0.9 -0.1915216045
O  O49  1  0.00000000  0.50000000  0.94897000  0.9 -0.2512261398
O  O50  1  0.00000000  0.50000000  0.05103000  0.9 -0.2512261398
O  O51  1  0.94897000  0.00000000  0.50000000  0.9 -0.2512261398
O  O52  1  0.05103000  0.00000000  0.50000000  0.9 -0.2512261398
O  O53  1  0.50000000  0.94897000  0.00000000  0.9 -0.2512261398
O  O54  1  0.50000000  0.05103000  0.00000000  0.9 -0.2512261398
O  O55  1  0.91220000  0.43220000  0.94430000  0.9 -0.2902799413
O  O56  1  0.08780000  0.56780000  0.94430000  0.9 -0.2902799413
O  O57  1  0.08780000  0.43220000  0.05570000  0.9 -0.2902799413
O  O58  1  0.91220000  0.56780000  0.05570000  0.9 -0.2902799413
O  O59  1  0.94430000  0.91220000  0.43220000  0.9 -0.2902799413
O  O60  1  0.94430000  0.08780000  0.56780000  0.9 -0.2902799413
O  O61  1  0.05570000  0.08780000  0.43220000  0.9 -0.2902799413
O  O62  1  0.05570000  0.91220000  0.56780000  0.9 -0.2902799413
O  O63  1  0.43220000  0.94430000  0.91220000  0.9 -0.2902799413
O  O64  1  0.56780000  0.94430000  0.08780000  0.9 -0.2902799413
O  O65  1  0.43220000  0.05570000  0.08780000  0.9 -0.2902799413
O  O66  1  0.56780000  0.05570000  0.91220000  0.9 -0.2902799413
O  O67  1  0.08780000  0.56780000  0.05570000  0.9 -0.2902799413
O  O68  1  0.91220000  0.43220000  0.05570000  0.9 -0.2902799413
O  O69  1  0.91220000  0.56780000  0.94430000  0.9 -0.2902799413
O  O70  1  0.08780000  0.43220000  0.94430000  0.9 -0.2902799413
O  O71  1  0.05570000  0.08780000  0.56780000  0.9 -0.2902799413
O  O72  1  0.05570000  0.91220000  0.43220000  0.9 -0.2902799413
O  O73  1  0.94430000  0.91220000  0.56780000  0.9 -0.2902799413
O  O74  1  0.94430000  0.08780000  0.43220000  0.9 -0.2902799413
O  O75  1  0.56780000  0.05570000  0.08780000  0.9 -0.2902799413
O  O76  1  0.43220000  0.05570000  0.91220000  0.9 -0.2902799413
O  O77  1  0.56780000  0.94430000  0.91220000  0.9 -0.2902799413
O  O78  1  0.43220000  0.94430000  0.08780000  0.9 -0.2902799413
O  O79  1  0.00000000  0.50000000  0.79700000  0.9 -0.2214895713
O  O80  1  0.00000000  0.50000000  0.20300000  0.9 -0.2214895713
O  O81  1  0.79700000  0.00000000  0.50000000  0.9 -0.2214895713
O  O82  1  0.20300000  0.00000000  0.50000000  0.9 -0.2214895713
O  O83  1  0.50000000  0.79700000  0.00000000  0.9 -0.2214895713
O  O84  1  0.50000000  0.20300000  0.00000000  0.9 -0.2214895713
O  O157  1  0.33240000  0.00000000  0.50000000  0.9 -0.1915216045
O  O158  1  0.66760000  0.00000000  0.50000000  0.9 -0.1915216045
O  O159  1  0.50000000  0.33240000  0.00000000  0.9 -0.1915216045
O  O160  1  0.50000000  0.66760000  0.00000000  0.9 -0.1915216045
O  O161  1  0.00000000  0.50000000  0.33240000  0.9 -0.1915216045
O  O162  1  0.00000000  0.50000000  0.66760000  0.9 -0.1915216045
O  O163  1  0.50000000  0.00000000  0.44897000  0.9 -0.2512261398
O  O164  1  0.50000000  0.00000000  0.55103000  0.9 -0.2512261398
O  O165  1  0.44897000  0.50000000  0.00000000  0.9 -0.2512261398
O  O166  1  0.55103000  0.50000000  0.00000000  0.9 -0.2512261398
O  O167  1  0.00000000  0.44897000  0.50000000  0.9 -0.2512261398
O  O168  1  0.00000000  0.55103000  0.50000000  0.9 -0.2512261398
O  O169  1  0.41220000  0.93220000  0.44430000  0.9 -0.2902799413
O  O170  1  0.58780000  0.06780000  0.44430000  0.9 -0.2902799413
O  O171  1  0.58780000  0.93220000  0.55570000  0.9 -0.2902799413
O  O172  1  0.41220000  0.06780000  0.55570000  0.9 -0.2902799413
O  O173  1  0.44430000  0.41220000  0.93220000  0.9 -0.2902799413
O  O174  1  0.44430000  0.58780000  0.06780000  0.9 -0.2902799413
O  O175  1  0.55570000  0.58780000  0.93220000  0.9 -0.2902799413
O  O176  1  0.55570000  0.41220000  0.06780000  0.9 -0.2902799413
O  O177  1  0.93220000  0.44430000  0.41220000  0.9 -0.2902799413
O  O178  1  0.06780000  0.44430000  0.58780000  0.9 -0.2902799413
O  O179  1  0.93220000  0.55570000  0.58780000  0.9 -0.2902799413
O  O180  1  0.06780000  0.55570000  0.41220000  0.9 -0.2902799413
O  O181  1  0.58780000  0.06780000  0.55570000  0.9 -0.2902799413
O  O182  1  0.41220000  0.93220000  0.55570000  0.9 -0.2902799413
O  O183  1  0.41220000  0.06780000  0.44430000  0.9 -0.2902799413
O  O184  1  0.58780000  0.93220000  0.44430000  0.9 -0.2902799413
O  O185  1  0.55570000  0.58780000  0.06780000  0.9 -0.2902799413
O  O186  1  0.55570000  0.41220000  0.93220000  0.9 -0.2902799413
O  O187  1  0.44430000  0.41220000  0.06780000  0.9 -0.2902799413
O  O188  1  0.44430000  0.58780000  0.93220000  0.9 -0.2902799413
O  O189  1  0.06780000  0.55570000  0.58780000  0.9 -0.2902799413
O  O190  1  0.93220000  0.55570000  0.41220000  0.9 -0.2902799413
O  O191  1  0.06780000  0.44430000  0.41220000  0.9 -0.2902799413
O  O192  1  0.93220000  0.44430000  0.58780000  0.9 -0.2902799413
O  O193  1  0.50000000  0.00000000  0.29700000  0.9 -0.2214895713
O  O194  1  0.50000000  0.00000000  0.70300000  0.9 -0.2214895713
O  O195  1  0.29700000  0.50000000  0.00000000  0.9 -0.2214895713
O  O196  1  0.70300000  0.50000000  0.00000000  0.9 -0.2214895713
O  O197  1  0.00000000  0.29700000  0.50000000  0.9 -0.2214895713
O  O198  1  0.00000000  0.70300000  0.50000000  0.9 -0.2214895713
O  O109  1  0.00000000  0.57380000  0.00000000  0.654 -0.5847157031
O  O110  1  0.00000000  0.42620000  0.00000000  0.654 -0.5847157031
O  O111  1  0.00000000  0.00000000  0.57380000  0.654 -0.5847157031
O  O112  1  0.00000000  0.00000000  0.42620000  0.654 -0.5847157031
O  O113  1  0.57380000  0.00000000  0.00000000  0.654 -0.5847157031
O  O114  1  0.42620000  0.00000000  0.00000000  0.654 -0.5847157031
O  O223  1  0.50000000  0.07380000  0.50000000  0.654 -0.5847157031
O  O224  1  0.50000000  0.92620000  0.50000000  0.654 -0.5847157031
O  O225  1  0.50000000  0.50000000  0.07380000  0.654 -0.5847157031
O  O226  1  0.50000000  0.50000000  0.92620000  0.654 -0.5847157031
O  O227  1  0.07380000  0.50000000  0.50000000  0.654 -0.5847157031
O  O228  1  0.92620000  0.50000000  0.50000000  0.654 -0.5847157031
