# DDEC6 charges by PACMAN v1.1 (https://github.com/mtap-research/PACMAN-charge/)
data_ja9b10501_si_020_ASR_pacman
_symmetry_space_group_name_H-M   'P 1'
_cell_length_a   19.07900000
_cell_length_b   19.07900000
_cell_length_c   36.68300000
_cell_angle_alpha   90.00000000
_cell_angle_beta   90.00000000
_cell_angle_gamma   90.00000000
_symmetry_Int_Tables_number   1
_chemical_formula_structural   Al16H181.44C269.76N14.56O77.92
_chemical_formula_sum   'Al16 H181.44 C269.76 N14.56 O77.92'
_cell_volume   13352.91430460
_cell_formula_units_Z   1
loop_
 _symmetry_equiv_pos_site_id
 _symmetry_equiv_pos_as_xyz
  1  'x, y, z'
loop_
 _atom_site_type_symbol
 _atom_site_label
 _atom_site_symmetry_multiplicity
 _atom_site_fract_x
 _atom_site_fract_y
 _atom_site_fract_z
 _atom_site_occupancy
 _atom_site_charge
Al  Al1  1  0.59830000  0.62705000  0.91898000  1.0 1.4256873395
Al  Al2  1  0.40170000  0.37295000  0.91898000  1.0 1.4256873395
Al  Al3  1  0.87295000  0.09830000  0.41898000  1.0 1.4256873395
Al  Al4  1  0.12705000  0.90170000  0.41898000  1.0 1.4256873395
Al  Al5  1  0.90170000  0.12705000  0.58102000  1.0 1.4256873395
Al  Al6  1  0.09830000  0.87295000  0.58102000  1.0 1.4256873395
Al  Al7  1  0.62705000  0.59830000  0.08102000  1.0 1.4256873395
Al  Al8  1  0.37295000  0.40170000  0.08102000  1.0 1.4256873395
Al  Al9  1  0.66284000  0.66284000  0.00000000  1.0 1.2296052095
Al  Al10  1  0.33716000  0.33716000  0.00000000  1.0 1.2296052095
Al  Al11  1  0.83716000  0.16284000  0.50000000  1.0 1.2296052095
Al  Al12  1  0.16284000  0.83716000  0.50000000  1.0 1.2296052095
Al  Al13  1  0.50000000  0.50000000  0.88476000  1.0 1.6492245015
Al  Al14  1  0.00000000  0.00000000  0.38476000  1.0 1.6492245015
Al  Al15  1  0.00000000  0.00000000  0.61524000  1.0 1.6492245015
Al  Al16  1  0.50000000  0.50000000  0.11524000  1.0 1.6492245015
H  H1  1  0.49379000  0.56804000  0.94075000  1.0 0.4020323869
H  H2  1  0.62649000  0.55392000  0.97129000  1.0 0.4020323869
H  H3  1  0.86328000  0.70593000  0.95554000  1.0 0.1199114181
H  H4  1  0.04356000  0.63782000  0.88329000  1.0 0.1108210751
H  H5  1  0.75041000  0.69648000  0.86206000  1.0 0.1199114181
H  H6  1  0.85293000  0.69398000  0.82821000  1.0 0.1108210751
H  H7  1  0.10227000  0.75329000  0.67421000  1.0 0.1199114181
H  H8  1  0.24106000  0.69011000  0.83474000  1.0 0.0792528713
H  H9  1  0.11459000  0.53415000  0.87119000  1.0 0.1108210751
H  H10  1  0.21325000  0.47026000  0.89024000  1.0 0.1108210751
H  H11  1  0.33926000  0.62722000  0.85359000  1.0 0.1199114181
H  H12  1  0.96669000  0.70823000  0.92163000  1.0 0.1108210751
H  H13  1  0.10252000  0.69540000  0.72993000  1.0 0.1108210751
H  H14  1  0.94935000  0.76239000  0.80826000  1.0 0.1108210751
H  H15  1  0.99316000  0.91410000  0.71827000  1.0 0.1199114181
H  H16  1  0.99396000  0.85631000  0.77476000  1.0 0.1108210751
H  H17  1  0.14693000  0.69329000  0.79113000  1.0 0.1108210751
H  H18  1  0.50621000  0.43196000  0.94075000  1.0 0.4020323869
H  H19  1  0.37351000  0.44608000  0.97129000  1.0 0.4020323869
H  H20  1  0.13672000  0.29407000  0.95554000  1.0 0.1199114181
H  H21  1  0.95644000  0.36218000  0.88329000  1.0 0.1108210751
H  H22  1  0.24959000  0.30352000  0.86206000  1.0 0.1199114181
H  H23  1  0.14707000  0.30602000  0.82821000  1.0 0.1108210751
H  H24  1  0.89773000  0.24671000  0.67421000  1.0 0.1199114181
H  H25  1  0.75894000  0.30989000  0.83474000  1.0 0.09025905
H  H26  1  0.88541000  0.46585000  0.87119000  1.0 0.1108210751
H  H27  1  0.78675000  0.52974000  0.89024000  1.0 0.1108210751
H  H28  1  0.66074000  0.37278000  0.85359000  1.0 0.1199114181
H  H29  1  0.03331000  0.29177000  0.92163000  1.0 0.1108210751
H  H30  1  0.89748000  0.30460000  0.72993000  1.0 0.1108210751
H  H31  1  0.05065000  0.23761000  0.80826000  1.0 0.1108210751
H  H32  1  0.00684000  0.08590000  0.71827000  1.0 0.1199114181
H  H33  1  0.00604000  0.14369000  0.77476000  1.0 0.1108210751
H  H34  1  0.85307000  0.30671000  0.79113000  1.0 0.1108210751
H  H35  1  0.93196000  0.99379000  0.44075000  1.0 0.4020323869
H  H36  1  0.94608000  0.12649000  0.47129000  1.0 0.4020323869
H  H37  1  0.79407000  0.36328000  0.45554000  1.0 0.1199114181
H  H38  1  0.86218000  0.54356000  0.38329000  1.0 0.1108210751
H  H39  1  0.80352000  0.25041000  0.36206000  1.0 0.1199114181
H  H40  1  0.80602000  0.35293000  0.32821000  1.0 0.1108210751
H  H41  1  0.74671000  0.60227000  0.17421000  1.0 0.1199114181
H  H42  1  0.80989000  0.74106000  0.33474000  1.0 0.09025905
H  H43  1  0.96585000  0.61459000  0.37119000  1.0 0.1108210751
H  H44  1  0.02974000  0.71325000  0.39024000  1.0 0.1108210751
H  H45  1  0.87278000  0.83926000  0.35359000  1.0 0.1199114181
H  H46  1  0.79177000  0.46669000  0.42163000  1.0 0.1108210751
H  H47  1  0.80460000  0.60252000  0.22993000  1.0 0.1108210751
H  H48  1  0.73761000  0.44935000  0.30826000  1.0 0.1108210751
H  H49  1  0.58590000  0.49316000  0.21827000  1.0 0.1199114181
H  H50  1  0.64369000  0.49396000  0.27476000  1.0 0.1108210751
H  H51  1  0.80671000  0.64693000  0.29113000  1.0 0.1108210751
H  H52  1  0.06804000  0.00621000  0.44075000  1.0 0.4020323869
H  H53  1  0.05392000  0.87351000  0.47129000  1.0 0.4020323869
H  H54  1  0.20593000  0.63672000  0.45554000  1.0 0.1199114181
H  H55  1  0.13782000  0.45644000  0.38329000  1.0 0.1108210751
H  H56  1  0.19648000  0.74959000  0.36206000  1.0 0.1199114181
H  H57  1  0.19398000  0.64707000  0.32821000  1.0 0.1108210751
H  H58  1  0.25329000  0.39773000  0.17421000  1.0 0.1199114181
H  H59  1  0.19011000  0.25894000  0.33474000  1.0 0.09025905
H  H60  1  0.03415000  0.38541000  0.37119000  1.0 0.1108210751
H  H61  1  0.97026000  0.28675000  0.39024000  1.0 0.1108210751
H  H62  1  0.12722000  0.16074000  0.35359000  1.0 0.1199114181
H  H63  1  0.20823000  0.53331000  0.42163000  1.0 0.1108210751
H  H64  1  0.19540000  0.39748000  0.22993000  1.0 0.1108210751
H  H65  1  0.26239000  0.55065000  0.30826000  1.0 0.1108210751
H  H66  1  0.41410000  0.50684000  0.21827000  1.0 0.1199114181
H  H67  1  0.35631000  0.50604000  0.27476000  1.0 0.1108210751
H  H68  1  0.19329000  0.35307000  0.29113000  1.0 0.1108210751
H  H69  1  0.00621000  0.06804000  0.55925000  1.0 0.4020323869
H  H70  1  0.87351000  0.05392000  0.52871000  1.0 0.4020323869
H  H71  1  0.63672000  0.20593000  0.54446000  1.0 0.1199114181
H  H72  1  0.45644000  0.13782000  0.61671000  1.0 0.1108210751
H  H73  1  0.74959000  0.19648000  0.63794000  1.0 0.1199114181
H  H74  1  0.64707000  0.19398000  0.67179000  1.0 0.1108210751
H  H75  1  0.39773000  0.25329000  0.82579000  1.0 0.1199114181
H  H76  1  0.25894000  0.19011000  0.66526000  1.0 0.09025905
H  H77  1  0.38541000  0.03415000  0.62881000  1.0 0.1108210751
H  H78  1  0.28675000  0.97026000  0.60976000  1.0 0.1108210751
H  H79  1  0.16074000  0.12722000  0.64641000  1.0 0.1199114181
H  H80  1  0.53331000  0.20823000  0.57837000  1.0 0.1108210751
H  H81  1  0.39748000  0.19540000  0.77007000  1.0 0.1108210751
H  H82  1  0.55065000  0.26239000  0.69174000  1.0 0.1108210751
H  H83  1  0.50684000  0.41410000  0.78173000  1.0 0.1199114181
H  H84  1  0.50604000  0.35631000  0.72524000  1.0 0.1108210751
H  H85  1  0.35307000  0.19329000  0.70887000  1.0 0.1108210751
H  H86  1  0.99379000  0.93196000  0.55925000  1.0 0.4020323869
H  H87  1  0.12649000  0.94608000  0.52871000  1.0 0.4020323869
H  H88  1  0.36328000  0.79407000  0.54446000  1.0 0.1199114181
H  H89  1  0.54356000  0.86218000  0.61671000  1.0 0.1108210751
H  H90  1  0.25041000  0.80352000  0.63794000  1.0 0.1199114181
H  H91  1  0.35293000  0.80602000  0.67179000  1.0 0.1108210751
H  H92  1  0.60227000  0.74671000  0.82579000  1.0 0.1199114181
H  H93  1  0.74106000  0.80989000  0.66526000  1.0 0.09025905
H  H94  1  0.61459000  0.96585000  0.62881000  1.0 0.1108210751
H  H95  1  0.71325000  0.02974000  0.60976000  1.0 0.1108210751
H  H96  1  0.83926000  0.87278000  0.64641000  1.0 0.1199114181
H  H97  1  0.46669000  0.79177000  0.57837000  1.0 0.1108210751
H  H98  1  0.60252000  0.80460000  0.77007000  1.0 0.1108210751
H  H99  1  0.44935000  0.73761000  0.69174000  1.0 0.1108210751
H  H100  1  0.49316000  0.58590000  0.78173000  1.0 0.1199114181
H  H101  1  0.49396000  0.64369000  0.72524000  1.0 0.1108210751
H  H102  1  0.64693000  0.80671000  0.70887000  1.0 0.1108210751
H  H103  1  0.56804000  0.49379000  0.05925000  1.0 0.4020323869
H  H104  1  0.55392000  0.62649000  0.02871000  1.0 0.4020323869
H  H105  1  0.70593000  0.86328000  0.04446000  1.0 0.1199114181
H  H106  1  0.63782000  0.04356000  0.11671000  1.0 0.1108210751
H  H107  1  0.69648000  0.75041000  0.13794000  1.0 0.1199114181
H  H108  1  0.69398000  0.85293000  0.17179000  1.0 0.1108210751
H  H109  1  0.75329000  0.10227000  0.32579000  1.0 0.1199114181
H  H110  1  0.69011000  0.24106000  0.16526000  1.0 0.09025905
H  H111  1  0.53415000  0.11459000  0.12881000  1.0 0.1108210751
H  H112  1  0.47026000  0.21325000  0.10976000  1.0 0.1108210751
H  H113  1  0.62722000  0.33926000  0.14641000  1.0 0.1199114181
H  H114  1  0.70823000  0.96669000  0.07837000  1.0 0.1108210751
H  H115  1  0.69540000  0.10252000  0.27007000  1.0 0.1108210751
H  H116  1  0.76239000  0.94935000  0.19174000  1.0 0.1108210751
H  H117  1  0.91410000  0.99316000  0.28173000  1.0 0.1199114181
H  H118  1  0.85631000  0.99396000  0.22524000  1.0 0.1108210751
H  H119  1  0.69329000  0.14693000  0.20887000  1.0 0.1108210751
H  H120  1  0.43196000  0.50621000  0.05925000  1.0 0.4020323869
H  H121  1  0.44608000  0.37351000  0.02871000  1.0 0.4020323869
H  H122  1  0.29407000  0.13672000  0.04446000  1.0 0.1199114181
H  H123  1  0.36218000  0.95644000  0.11671000  1.0 0.1108210751
H  H124  1  0.30352000  0.24959000  0.13794000  1.0 0.1199114181
H  H125  1  0.30602000  0.14707000  0.17179000  1.0 0.1108210751
H  H126  1  0.24671000  0.89773000  0.32579000  1.0 0.1199114181
H  H127  1  0.30989000  0.75894000  0.16526000  1.0 0.0792528713
H  H128  1  0.46585000  0.88541000  0.12881000  1.0 0.1108210751
H  H129  1  0.52974000  0.78675000  0.10976000  1.0 0.1108210751
H  H130  1  0.37278000  0.66074000  0.14641000  1.0 0.1199114181
H  H131  1  0.29177000  0.03331000  0.07837000  1.0 0.1108210751
H  H132  1  0.30460000  0.89748000  0.27007000  1.0 0.1108210751
H  H133  1  0.23761000  0.05065000  0.19174000  1.0 0.1108210751
H  H134  1  0.08590000  0.00684000  0.28173000  1.0 0.1199114181
H  H135  1  0.14369000  0.00604000  0.22524000  1.0 0.1108210751
H  H136  1  0.30671000  0.85307000  0.20887000  1.0 0.1108210751
H  H137  1  0.41600000  0.79585000  0.85185000  0.13 0.1108210751
H  H138  1  0.84534000  0.84228000  0.01861000  0.13 0.0432860823
H  H139  1  0.88212000  0.76627000  0.02166000  0.13 0.0792528713
H  H140  1  0.89770000  0.78141000  0.99699000  0.13 0.09025905
H  H141  1  0.93207000  0.85505000  0.98776000  0.13 0.0692967863
H  H142  1  0.02522000  0.81025000  0.09535000  0.13 0.0432860823
H  H143  1  0.99615000  0.88419000  0.08006000  0.13 -0.0082570457
H  H144  1  0.42173000  0.84725000  0.00461000  0.13 0.0603258036
H  H145  1  0.44498000  0.88232000  0.98931000  0.13 0.0792528713
H  H146  1  0.36306000  0.88316000  0.94285000  0.13 0.0792528713
H  H147  1  0.33941000  0.85968000  0.95634000  0.13 0.0521454129
H  H148  1  0.43010000  0.79429000  0.84036000  0.13 0.0792528713
H  H149  1  0.24693000  0.86030000  0.75124000  0.13 0.09025905
H  H150  1  0.36667000  0.82637000  0.77557000  0.13 0.0989936206
H  H151  1  0.38740000  0.79134000  0.76497000  0.13 0.0792528713
H  H152  1  0.25938000  0.81685000  0.74260000  0.13 0.0792528713
H  H153  1  0.20262000  0.77392000  0.92521000  0.13 0.0603258036
H  H154  1  0.05918000  0.90191000  0.87819000  0.13 0.0792528713
H  H155  1  0.98952000  0.89497000  0.93057000  0.13 0.0603258036
H  H156  1  0.13296000  0.76698000  0.97759000  0.13 0.09025905
H  H157  1  0.18490000  0.74970000  0.93587000  0.13 0.0792528713
H  H158  1  0.04216000  0.89060000  0.89946000  0.13 0.0989936206
H  H159  1  0.97532000  0.87324000  0.95218000  0.13 0.0792528713
H  H160  1  0.11806000  0.73234000  0.98859000  0.13 0.0521454129
H  H161  1  0.08218000  0.81676000  0.03600000  0.13 0.0603258036
H  H162  1  0.05194000  0.74591000  0.01965000  0.13 0.0692967863
H  H163  1  0.96711000  0.73896000  0.06259000  0.13 0.0989936206
H  H164  1  0.01257000  0.79623000  0.08437000  0.13 0.0989936206
H  H165  1  0.90658000  0.90055000  0.04568000  0.13 0.09025905
H  H166  1  0.84132000  0.84640000  0.04100000  0.13 0.0792528713
H  H167  1  0.93048000  0.81389000  0.96874000  0.13 0.0521454129
H  H168  1  0.93670000  0.88959000  0.98629000  0.13 0.0521454129
H  H169  1  0.05680000  0.86457000  0.02680000  0.13 0.0521454129
H  H170  1  0.08087000  0.78926000  0.04087000  0.13 0.0603258036
H  H171  1  0.58400000  0.20415000  0.85185000  0.13 0.1108210751
H  H172  1  0.15466000  0.15772000  0.01861000  0.13 0.0432860823
H  H173  1  0.11788000  0.23373000  0.02166000  0.13 0.0792528713
H  H174  1  0.10230000  0.21859000  0.99699000  0.13 0.0792528713
H  H175  1  0.06793000  0.14495000  0.98776000  0.13 0.0692967863
H  H176  1  0.97478000  0.18975000  0.09535000  0.13 0.0432860823
H  H177  1  0.00385000  0.11581000  0.08006000  0.13 -0.0082570457
H  H178  1  0.57827000  0.15275000  0.00461000  0.13 0.0603258036
H  H179  1  0.55502000  0.11768000  0.98931000  0.13 0.0792528713
H  H180  1  0.63694000  0.11684000  0.94285000  0.13 0.0792528713
H  H181  1  0.66059000  0.14032000  0.95634000  0.13 0.0521454129
H  H182  1  0.56990000  0.20571000  0.84036000  0.13 0.0792528713
H  H183  1  0.75307000  0.13970000  0.75124000  0.13 0.09025905
H  H184  1  0.63333000  0.17363000  0.77557000  0.13 0.0989936206
H  H185  1  0.61260000  0.20866000  0.76497000  0.13 0.0792528713
H  H186  1  0.74062000  0.18315000  0.74260000  0.13 0.0792528713
H  H187  1  0.79738000  0.22608000  0.92521000  0.13 0.0603258036
H  H188  1  0.94082000  0.09809000  0.87819000  0.13 0.0792528713
H  H189  1  0.01048000  0.10503000  0.93057000  0.13 0.0603258036
H  H190  1  0.86704000  0.23302000  0.97759000  0.13 0.09025905
H  H191  1  0.81510000  0.25030000  0.93587000  0.13 0.0792528713
H  H192  1  0.95784000  0.10940000  0.89946000  0.13 0.0989936206
H  H193  1  0.02468000  0.12676000  0.95218000  0.13 0.0792528713
H  H194  1  0.88194000  0.26766000  0.98859000  0.13 0.0521454129
H  H195  1  0.91782000  0.18324000  0.03600000  0.13 0.0603258036
H  H196  1  0.94806000  0.25409000  0.01965000  0.13 0.0692967863
H  H197  1  0.03289000  0.26104000  0.06259000  0.13 0.0989936206
H  H198  1  0.98743000  0.20377000  0.08437000  0.13 0.0989936206
H  H199  1  0.09342000  0.09945000  0.04568000  0.13 0.09025905
H  H200  1  0.15868000  0.15360000  0.04100000  0.13 0.0792528713
H  H201  1  0.06952000  0.18611000  0.96874000  0.13 0.0521454129
H  H202  1  0.06330000  0.11041000  0.98629000  0.13 0.0432860823
H  H203  1  0.94320000  0.13543000  0.02680000  0.13 0.0521454129
H  H204  1  0.91913000  0.21074000  0.04087000  0.13 0.0603258036
H  H205  1  0.70415000  0.91600000  0.35185000  0.13 0.1108210751
H  H206  1  0.65772000  0.34534000  0.51861000  0.13 0.0432860823
H  H207  1  0.73373000  0.38212000  0.52166000  0.13 0.0792528713
H  H208  1  0.71859000  0.39770000  0.49699000  0.13 0.09025905
H  H209  1  0.64495000  0.43207000  0.48776000  0.13 0.0692967863
H  H210  1  0.68975000  0.52522000  0.59535000  0.13 0.0432860823
H  H211  1  0.61581000  0.49615000  0.58006000  0.13 -0.0082570457
H  H212  1  0.65275000  0.92173000  0.50461000  0.13 0.0603258036
H  H213  1  0.61768000  0.94498000  0.48931000  0.13 0.0792528713
H  H214  1  0.61684000  0.86306000  0.44285000  0.13 0.0792528713
H  H215  1  0.64032000  0.83941000  0.45634000  0.13 0.0521454129
H  H216  1  0.70571000  0.93010000  0.34036000  0.13 0.0792528713
H  H217  1  0.63970000  0.74693000  0.25124000  0.13 0.09025905
H  H218  1  0.67363000  0.86667000  0.27557000  0.13 0.0989936206
H  H219  1  0.70866000  0.88740000  0.26497000  0.13 0.0792528713
H  H220  1  0.68315000  0.75938000  0.24260000  0.13 0.0792528713
H  H221  1  0.72608000  0.70262000  0.42521000  0.13 0.0603258036
H  H222  1  0.59809000  0.55918000  0.37819000  0.13 0.0792528713
H  H223  1  0.60503000  0.48952000  0.43057000  0.13 0.0603258036
H  H224  1  0.73302000  0.63296000  0.47759000  0.13 0.09025905
H  H225  1  0.75030000  0.68490000  0.43587000  0.13 0.0792528713
H  H226  1  0.60940000  0.54216000  0.39946000  0.13 0.0989936206
H  H227  1  0.62676000  0.47532000  0.45218000  0.13 0.0792528713
H  H228  1  0.76766000  0.61806000  0.48859000  0.13 0.0521454129
H  H229  1  0.68324000  0.58218000  0.53600000  0.13 0.0603258036
H  H230  1  0.75409000  0.55194000  0.51965000  0.13 0.0692967863
H  H231  1  0.76104000  0.46711000  0.56259000  0.13 0.0989936206
H  H232  1  0.70377000  0.51257000  0.58437000  0.13 0.0989936206
H  H233  1  0.59945000  0.40658000  0.54568000  0.13 0.09025905
H  H234  1  0.65360000  0.34132000  0.54100000  0.13 0.0792528713
H  H235  1  0.68611000  0.43048000  0.46874000  0.13 0.0521454129
H  H236  1  0.61041000  0.43670000  0.48629000  0.13 0.0432860823
H  H237  1  0.63543000  0.55680000  0.52680000  0.13 0.0603258036
H  H238  1  0.71074000  0.58087000  0.54087000  0.13 0.0603258036
H  H239  1  0.29585000  0.08400000  0.35185000  0.13 0.1108210751
H  H240  1  0.34228000  0.65466000  0.51861000  0.13 0.0432860823
H  H241  1  0.26627000  0.61788000  0.52166000  0.13 0.0792528713
H  H242  1  0.28141000  0.60230000  0.49699000  0.13 0.09025905
H  H243  1  0.35505000  0.56793000  0.48776000  0.13 0.0692967863
H  H244  1  0.31025000  0.47478000  0.59535000  0.13 0.0432860823
H  H245  1  0.38419000  0.50385000  0.58006000  0.13 -0.0082570457
H  H246  1  0.34725000  0.07827000  0.50461000  0.13 0.0603258036
H  H247  1  0.38232000  0.05502000  0.48931000  0.13 0.0792528713
H  H248  1  0.38316000  0.13694000  0.44285000  0.13 0.0792528713
H  H249  1  0.35968000  0.16059000  0.45634000  0.13 0.0521454129
H  H250  1  0.29429000  0.06990000  0.34036000  0.13 0.0792528713
H  H251  1  0.36030000  0.25307000  0.25124000  0.13 0.09025905
H  H252  1  0.32637000  0.13333000  0.27557000  0.13 0.0989936206
H  H253  1  0.29134000  0.11260000  0.26497000  0.13 0.0792528713
H  H254  1  0.31685000  0.24062000  0.24260000  0.13 0.0792528713
H  H255  1  0.27392000  0.29738000  0.42521000  0.13 0.0603258036
H  H256  1  0.40191000  0.44082000  0.37819000  0.13 0.0792528713
H  H257  1  0.39497000  0.51048000  0.43057000  0.13 0.0603258036
H  H258  1  0.26698000  0.36704000  0.47759000  0.13 0.09025905
H  H259  1  0.24970000  0.31510000  0.43587000  0.13 0.0792528713
H  H260  1  0.39060000  0.45784000  0.39946000  0.13 0.0989936206
H  H261  1  0.37324000  0.52468000  0.45218000  0.13 0.0792528713
H  H262  1  0.23234000  0.38194000  0.48859000  0.13 0.0521454129
H  H263  1  0.31676000  0.41782000  0.53600000  0.13 0.0603258036
H  H264  1  0.24591000  0.44806000  0.51965000  0.13 0.0692967863
H  H265  1  0.23896000  0.53289000  0.56259000  0.13 0.0989936206
H  H266  1  0.29623000  0.48743000  0.58437000  0.13 0.0989936206
H  H267  1  0.40055000  0.59342000  0.54568000  0.13 0.09025905
H  H268  1  0.34640000  0.65868000  0.54100000  0.13 0.0792528713
H  H269  1  0.31389000  0.56952000  0.46874000  0.13 0.0521454129
H  H270  1  0.38959000  0.56330000  0.48629000  0.13 0.0432860823
H  H271  1  0.36457000  0.44320000  0.52680000  0.13 0.0603258036
H  H272  1  0.28926000  0.41913000  0.54087000  0.13 0.0603258036
H  H273  1  0.08400000  0.29585000  0.64815000  0.13 0.1108210751
H  H274  1  0.65466000  0.34228000  0.48139000  0.13 0.0432860823
H  H275  1  0.61788000  0.26627000  0.47834000  0.13 0.0792528713
H  H276  1  0.60230000  0.28141000  0.50301000  0.13 0.09025905
H  H277  1  0.56793000  0.35505000  0.51224000  0.13 0.0692967863
H  H278  1  0.47478000  0.31025000  0.40465000  0.13 0.0432860823
H  H279  1  0.50385000  0.38419000  0.41994000  0.13 -0.0082570457
H  H280  1  0.07827000  0.34725000  0.49539000  0.13 0.0603258036
H  H281  1  0.05502000  0.38232000  0.51069000  0.13 0.0792528713
H  H282  1  0.13694000  0.38316000  0.55715000  0.13 0.0792528713
H  H283  1  0.16059000  0.35968000  0.54366000  0.13 0.0521454129
H  H284  1  0.06990000  0.29429000  0.65964000  0.13 0.0792528713
H  H285  1  0.25307000  0.36030000  0.74876000  0.13 0.09025905
H  H286  1  0.13333000  0.32637000  0.72443000  0.13 0.0989936206
H  H287  1  0.11260000  0.29134000  0.73503000  0.13 0.0792528713
H  H288  1  0.24062000  0.31685000  0.75740000  0.13 0.0792528713
H  H289  1  0.29738000  0.27392000  0.57479000  0.13 0.0603258036
H  H290  1  0.44082000  0.40191000  0.62181000  0.13 0.0792528713
H  H291  1  0.51048000  0.39497000  0.56943000  0.13 0.0603258036
H  H292  1  0.36704000  0.26698000  0.52241000  0.13 0.09025905
H  H293  1  0.31510000  0.24970000  0.56413000  0.13 0.0792528713
H  H294  1  0.45784000  0.39060000  0.60054000  0.13 0.0989936206
H  H295  1  0.52468000  0.37324000  0.54782000  0.13 0.0792528713
H  H296  1  0.38194000  0.23234000  0.51141000  0.13 0.0521454129
H  H297  1  0.41782000  0.31676000  0.46400000  0.13 0.0603258036
H  H298  1  0.44806000  0.24591000  0.48035000  0.13 0.0692967863
H  H299  1  0.53289000  0.23896000  0.43741000  0.13 0.0989936206
H  H300  1  0.48743000  0.29623000  0.41563000  0.13 0.0989936206
H  H301  1  0.59342000  0.40055000  0.45432000  0.13 0.09025905
H  H302  1  0.65868000  0.34640000  0.45900000  0.13 0.0792528713
H  H303  1  0.56952000  0.31389000  0.53126000  0.13 0.0521454129
H  H304  1  0.56330000  0.38959000  0.51371000  0.13 0.0432860823
H  H305  1  0.44320000  0.36457000  0.47320000  0.13 0.0603258036
H  H306  1  0.41913000  0.28926000  0.45913000  0.13 0.0603258036
H  H307  1  0.91600000  0.70415000  0.64815000  0.13 0.1108210751
H  H308  1  0.34534000  0.65772000  0.48139000  0.13 0.0432860823
H  H309  1  0.38212000  0.73373000  0.47834000  0.13 0.0792528713
H  H310  1  0.39770000  0.71859000  0.50301000  0.13 0.09025905
H  H311  1  0.43207000  0.64495000  0.51224000  0.13 0.0692967863
H  H312  1  0.52522000  0.68975000  0.40465000  0.13 0.0432860823
H  H313  1  0.49615000  0.61581000  0.41994000  0.13 -0.0082570457
H  H314  1  0.92173000  0.65275000  0.49539000  0.13 0.0603258036
H  H315  1  0.94498000  0.61768000  0.51069000  0.13 0.0792528713
H  H316  1  0.86306000  0.61684000  0.55715000  0.13 0.0792528713
H  H317  1  0.83941000  0.64032000  0.54366000  0.13 0.0521454129
H  H318  1  0.93010000  0.70571000  0.65964000  0.13 0.0792528713
H  H319  1  0.74693000  0.63970000  0.74876000  0.13 0.09025905
H  H320  1  0.86667000  0.67363000  0.72443000  0.13 0.0989936206
H  H321  1  0.88740000  0.70866000  0.73503000  0.13 0.0792528713
H  H322  1  0.75938000  0.68315000  0.75740000  0.13 0.0792528713
H  H323  1  0.70262000  0.72608000  0.57479000  0.13 0.0603258036
H  H324  1  0.55918000  0.59809000  0.62181000  0.13 0.0792528713
H  H325  1  0.48952000  0.60503000  0.56943000  0.13 0.0603258036
H  H326  1  0.63296000  0.73302000  0.52241000  0.13 0.09025905
H  H327  1  0.68490000  0.75030000  0.56413000  0.13 0.0792528713
H  H328  1  0.54216000  0.60940000  0.60054000  0.13 0.0989936206
H  H329  1  0.47532000  0.62676000  0.54782000  0.13 0.0792528713
H  H330  1  0.61806000  0.76766000  0.51141000  0.13 0.0521454129
H  H331  1  0.58218000  0.68324000  0.46400000  0.13 0.0603258036
H  H332  1  0.55194000  0.75409000  0.48035000  0.13 0.0692967863
H  H333  1  0.46711000  0.76104000  0.43741000  0.13 0.0989936206
H  H334  1  0.51257000  0.70377000  0.41563000  0.13 0.0989936206
H  H335  1  0.40658000  0.59945000  0.45432000  0.13 0.09025905
H  H336  1  0.34132000  0.65360000  0.45900000  0.13 0.0792528713
H  H337  1  0.43048000  0.68611000  0.53126000  0.13 0.0521454129
H  H338  1  0.43670000  0.61041000  0.51371000  0.13 0.0432860823
H  H339  1  0.55680000  0.63543000  0.47320000  0.13 0.0603258036
H  H340  1  0.58087000  0.71074000  0.45913000  0.13 0.0603258036
H  H341  1  0.79585000  0.41600000  0.14815000  0.13 0.1108210751
H  H342  1  0.84228000  0.84534000  0.98139000  0.13 0.0432860823
H  H343  1  0.76627000  0.88212000  0.97834000  0.13 0.0792528713
H  H344  1  0.78141000  0.89770000  0.00301000  0.13 0.09025905
H  H345  1  0.85505000  0.93207000  0.01224000  0.13 0.0692967863
H  H346  1  0.81025000  0.02522000  0.90465000  0.13 0.0432860823
H  H347  1  0.88419000  0.99615000  0.91994000  0.13 -0.0036235157
H  H348  1  0.84725000  0.42173000  0.99539000  0.13 0.0603258036
H  H349  1  0.88232000  0.44498000  0.01069000  0.13 0.0692967863
H  H350  1  0.88316000  0.36306000  0.05715000  0.13 0.0792528713
H  H351  1  0.85968000  0.33941000  0.04366000  0.13 0.0521454129
H  H352  1  0.79429000  0.43010000  0.15964000  0.13 0.0792528713
H  H353  1  0.86030000  0.24693000  0.24876000  0.13 0.09025905
H  H354  1  0.82637000  0.36667000  0.22443000  0.13 0.0989936206
H  H355  1  0.79134000  0.38740000  0.23503000  0.13 0.0792528713
H  H356  1  0.81685000  0.25938000  0.25740000  0.13 0.0792528713
H  H357  1  0.77392000  0.20262000  0.07479000  0.13 0.0603258036
H  H358  1  0.90191000  0.05918000  0.12181000  0.13 0.0792528713
H  H359  1  0.89497000  0.98952000  0.06943000  0.13 0.0603258036
H  H360  1  0.76698000  0.13296000  0.02241000  0.13 0.09025905
H  H361  1  0.74970000  0.18490000  0.06413000  0.13 0.0792528713
H  H362  1  0.89060000  0.04216000  0.10054000  0.13 0.0989936206
H  H363  1  0.87324000  0.97532000  0.04782000  0.13 0.0792528713
H  H364  1  0.73234000  0.11806000  0.01141000  0.13 0.0521454129
H  H365  1  0.81676000  0.08218000  0.96400000  0.13 0.0603258036
H  H366  1  0.74591000  0.05194000  0.98035000  0.13 0.0692967863
H  H367  1  0.73896000  0.96711000  0.93741000  0.13 0.0989936206
H  H368  1  0.79623000  0.01257000  0.91563000  0.13 0.0989936206
H  H369  1  0.90055000  0.90658000  0.95432000  0.13 0.09025905
H  H370  1  0.84640000  0.84132000  0.95900000  0.13 0.0792528713
H  H371  1  0.81389000  0.93048000  0.03126000  0.13 0.0521454129
H  H372  1  0.88959000  0.93670000  0.01371000  0.13 0.0432860823
H  H373  1  0.86457000  0.05680000  0.97320000  0.13 0.0521454129
H  H374  1  0.78926000  0.08087000  0.95913000  0.13 0.0603258036
H  H375  1  0.20415000  0.58400000  0.14815000  0.13 0.1108210751
H  H376  1  0.15772000  0.15466000  0.98139000  0.13 0.0432860823
H  H377  1  0.23373000  0.11788000  0.97834000  0.13 0.0792528713
H  H378  1  0.21859000  0.10230000  0.00301000  0.13 0.09025905
H  H379  1  0.14495000  0.06793000  0.01224000  0.13 0.0692967863
H  H380  1  0.18975000  0.97478000  0.90465000  0.13 0.0432860823
H  H381  1  0.11581000  0.00385000  0.91994000  0.13 -0.0082570457
H  H382  1  0.15275000  0.57827000  0.99539000  0.13 0.0603258036
H  H383  1  0.11768000  0.55502000  0.01069000  0.13 0.0692967863
H  H384  1  0.11684000  0.63694000  0.05715000  0.13 0.0792528713
H  H385  1  0.14032000  0.66059000  0.04366000  0.13 0.0521454129
H  H386  1  0.20571000  0.56990000  0.15964000  0.13 0.0792528713
H  H387  1  0.13970000  0.75307000  0.24876000  0.13 0.09025905
H  H388  1  0.17363000  0.63333000  0.22443000  0.13 0.0989936206
H  H389  1  0.20866000  0.61260000  0.23503000  0.13 0.0792528713
H  H390  1  0.18315000  0.74062000  0.25740000  0.13 0.0792528713
H  H391  1  0.22608000  0.79738000  0.07479000  0.13 0.0603258036
H  H392  1  0.09809000  0.94082000  0.12181000  0.13 0.0792528713
H  H393  1  0.10503000  0.01048000  0.06943000  0.13 0.0603258036
H  H394  1  0.23302000  0.86704000  0.02241000  0.13 0.09025905
H  H395  1  0.25030000  0.81510000  0.06413000  0.13 0.0792528713
H  H396  1  0.10940000  0.95784000  0.10054000  0.13 0.0989936206
H  H397  1  0.12676000  0.02468000  0.04782000  0.13 0.0792528713
H  H398  1  0.26766000  0.88194000  0.01141000  0.13 0.0521454129
H  H399  1  0.18324000  0.91782000  0.96400000  0.13 0.0603258036
H  H400  1  0.25409000  0.94806000  0.98035000  0.13 0.0692967863
H  H401  1  0.26104000  0.03289000  0.93741000  0.13 0.0989936206
H  H402  1  0.20377000  0.98743000  0.91563000  0.13 0.0989936206
H  H403  1  0.09945000  0.09342000  0.95432000  0.13 0.09025905
H  H404  1  0.15360000  0.15868000  0.95900000  0.13 0.0792528713
H  H405  1  0.18611000  0.06952000  0.03126000  0.13 0.0521454129
H  H406  1  0.11041000  0.06330000  0.01371000  0.13 0.0432860823
H  H407  1  0.13543000  0.94320000  0.97320000  0.13 0.0521454129
H  H408  1  0.21074000  0.91913000  0.95913000  0.13 0.0603258036
H  H409  1  0.55848000  0.78893000  0.01940000  0.26 0.1199114181
H  H410  1  0.45476000  0.71788000  0.89391000  0.26 0.1199114181
H  H411  1  0.44152000  0.21107000  0.01940000  0.26 0.1199114181
H  H412  1  0.54524000  0.28212000  0.89391000  0.26 0.1199114181
H  H413  1  0.71107000  0.05848000  0.51940000  0.26 0.1199114181
H  H414  1  0.78212000  0.95476000  0.39391000  0.26 0.1199114181
H  H415  1  0.28893000  0.94152000  0.51940000  0.26 0.1199114181
H  H416  1  0.21788000  0.04524000  0.39391000  0.26 0.1199114181
H  H417  1  0.94152000  0.28893000  0.48060000  0.26 0.1199114181
H  H418  1  0.04524000  0.21788000  0.60609000  0.26 0.1199114181
H  H419  1  0.05848000  0.71107000  0.48060000  0.26 0.1199114181
H  H420  1  0.95476000  0.78212000  0.60609000  0.26 0.1199114181
H  H421  1  0.78893000  0.55848000  0.98060000  0.26 0.1199114181
H  H422  1  0.71788000  0.45476000  0.10609000  0.26 0.1199114181
H  H423  1  0.21107000  0.44152000  0.98060000  0.26 0.1199114181
H  H424  1  0.28212000  0.54524000  0.10609000  0.26 0.1199114181
H  H425  1  0.52305000  0.78296000  0.96326000  0.74 0.0989936206
H  H426  1  0.47695000  0.21704000  0.96326000  0.74 0.0989936206
H  H427  1  0.71704000  0.02305000  0.46326000  0.74 0.0989936206
H  H428  1  0.28296000  0.97695000  0.46326000  0.74 0.0989936206
H  H429  1  0.97695000  0.28296000  0.53674000  0.74 0.0989936206
H  H430  1  0.02305000  0.71704000  0.53674000  0.74 0.0989936206
H  H431  1  0.78296000  0.52305000  0.03674000  0.74 0.0989936206
H  H432  1  0.21704000  0.47695000  0.03674000  0.74 0.0989936206
C  C1  1  0.79676000  0.70127000  0.91225000  1.0 -0.0395536249
C  C2  1  0.86125000  0.70433000  0.92968000  1.0 -0.319262914
C  C3  1  0.73013000  0.69519000  0.93299000  1.0 0.5537363928
C  C4  1  0.04766000  0.87526000  0.65469000  1.0 0.615229648
C  C5  1  0.34927000  0.50363000  0.88556000  1.0 0.6345289763
C  C6  1  0.92045000  0.70120000  0.87130000  1.0 0.09025905
C  C7  1  0.28569000  0.54392000  0.87421000  1.0 -0.0307035895
C  C8  1  0.04476000  0.66210000  0.86070000  1.0 -0.2078701068
C  C9  1  0.79443000  0.69808000  0.87413000  1.0 -0.0799905714
C  C10  1  0.85524000  0.69720000  0.85403000  1.0 -0.1313273543
C  C11  1  0.08029000  0.77430000  0.69471000  1.0 -0.13990146
C  C12  1  0.04961000  0.77140000  0.75860000  1.0 0.0792528713
C  C13  1  0.23525000  0.64590000  0.84628000  1.0 -0.2465197797
C  C14  1  0.16766000  0.61930000  0.85185000  1.0 0.09025905
C  C15  1  0.16013000  0.55330000  0.86793000  1.0 -0.1589599973
C  C16  1  0.04783000  0.83931000  0.69094000  1.0 -0.0395536249
C  C17  1  0.21868000  0.51500000  0.87928000  1.0 -0.1013460938
C  C18  1  0.29369000  0.60856000  0.85743000  1.0 -0.1473350956
C  C19  1  0.92278000  0.70510000  0.90952000  1.0 -0.319262914
C  C20  1  0.04884000  0.73340000  0.79414000  1.0 0.09025905
C  C21  1  0.10529000  0.65980000  0.83936000  1.0 0.09025905
C  C22  1  0.08093000  0.74010000  0.72785000  1.0 -0.1589599973
C  C23  1  0.98876000  0.73590000  0.81603000  1.0 -0.2307067756
C  C24  1  0.01569000  0.86990000  0.72066000  1.0 -0.1082556197
C  C25  1  0.01653000  0.83540000  0.75441000  1.0 -0.1681509978
C  C26  1  0.10615000  0.69540000  0.80596000  1.0 -0.2307067756
C  C27  1  0.98603000  0.69970000  0.84928000  1.0 0.09025905
C  C28  1  0.20324000  0.29873000  0.91225000  1.0 -0.0395536249
C  C29  1  0.13875000  0.29567000  0.92968000  1.0 -0.319262914
C  C30  1  0.26987000  0.30481000  0.93299000  1.0 0.5537363928
C  C31  1  0.95234000  0.12474000  0.65469000  1.0 0.615229648
C  C32  1  0.65073000  0.49637000  0.88556000  1.0 0.6345289763
C  C33  1  0.07955000  0.29880000  0.87130000  1.0 0.09025905
C  C34  1  0.71431000  0.45608000  0.87421000  1.0 -0.0307035895
C  C35  1  0.95524000  0.33790000  0.86070000  1.0 -0.2078701068
C  C36  1  0.20557000  0.30192000  0.87413000  1.0 -0.0799905714
C  C37  1  0.14476000  0.30280000  0.85403000  1.0 -0.1313273543
C  C38  1  0.91971000  0.22570000  0.69471000  1.0 -0.13990146
C  C39  1  0.95039000  0.22860000  0.75860000  1.0 0.0792528713
C  C40  1  0.76475000  0.35410000  0.84628000  1.0 -0.2465197797
C  C41  1  0.83234000  0.38070000  0.85185000  1.0 0.09025905
C  C42  1  0.83987000  0.44670000  0.86793000  1.0 -0.1589599973
C  C43  1  0.95217000  0.16069000  0.69094000  1.0 -0.0395536249
C  C44  1  0.78132000  0.48500000  0.87928000  1.0 -0.1013460938
C  C45  1  0.70631000  0.39144000  0.85743000  1.0 -0.1473350956
C  C46  1  0.07722000  0.29490000  0.90952000  1.0 -0.319262914
C  C47  1  0.95116000  0.26660000  0.79414000  1.0 0.09025905
C  C48  1  0.89471000  0.34020000  0.83936000  1.0 0.09025905
C  C49  1  0.91907000  0.25990000  0.72785000  1.0 -0.1589599973
C  C50  1  0.01124000  0.26410000  0.81603000  1.0 -0.2307067756
C  C51  1  0.98431000  0.13010000  0.72066000  1.0 -0.1082556197
C  C52  1  0.98347000  0.16460000  0.75441000  1.0 -0.1681509978
C  C53  1  0.89385000  0.30460000  0.80596000  1.0 -0.2307067756
C  C54  1  0.01397000  0.30030000  0.84928000  1.0 0.09025905
C  C55  1  0.79873000  0.29676000  0.41225000  1.0 -0.0395536249
C  C56  1  0.79567000  0.36125000  0.42968000  1.0 -0.319262914
C  C57  1  0.80481000  0.23013000  0.43299000  1.0 0.5537363928
C  C58  1  0.62474000  0.54766000  0.15469000  1.0 0.6148921069
C  C59  1  0.99637000  0.84927000  0.38556000  1.0 0.6351300892
C  C60  1  0.79880000  0.42045000  0.37130000  1.0 0.09025905
C  C61  1  0.95608000  0.78569000  0.37421000  1.0 -0.0307035895
C  C62  1  0.83790000  0.54476000  0.36070000  1.0 -0.2078701068
C  C63  1  0.80192000  0.29443000  0.37413000  1.0 -0.0799905714
C  C64  1  0.80280000  0.35524000  0.35403000  1.0 -0.1313273543
C  C65  1  0.72570000  0.58029000  0.19471000  1.0 -0.1313273543
C  C66  1  0.72860000  0.54961000  0.25860000  1.0 0.0792528713
C  C67  1  0.85410000  0.73525000  0.34628000  1.0 -0.2465197797
C  C68  1  0.88070000  0.66766000  0.35185000  1.0 0.09025905
C  C69  1  0.94670000  0.66013000  0.36793000  1.0 -0.1589599973
C  C70  1  0.66069000  0.54783000  0.19094000  1.0 -0.0395536249
C  C71  1  0.98500000  0.71868000  0.37928000  1.0 -0.1013460938
C  C72  1  0.89144000  0.79369000  0.35743000  1.0 -0.1473350956
C  C73  1  0.79490000  0.42278000  0.40952000  1.0 -0.319262914
C  C74  1  0.76660000  0.54884000  0.29414000  1.0 0.09025905
C  C75  1  0.84020000  0.60529000  0.33936000  1.0 0.09025905
C  C76  1  0.75990000  0.58093000  0.22785000  1.0 -0.1589599973
C  C77  1  0.76410000  0.48876000  0.31603000  1.0 -0.2380317717
C  C78  1  0.63010000  0.51569000  0.22066000  1.0 -0.1082556197
C  C79  1  0.66460000  0.51653000  0.25441000  1.0 -0.1681509978
C  C80  1  0.80460000  0.60615000  0.30596000  1.0 -0.2307067756
C  C81  1  0.80030000  0.48603000  0.34928000  1.0 0.09025905
C  C82  1  0.20127000  0.70324000  0.41225000  1.0 -0.0395536249
C  C83  1  0.20433000  0.63875000  0.42968000  1.0 -0.319262914
C  C84  1  0.19519000  0.76987000  0.43299000  1.0 0.5537363928
C  C85  1  0.37526000  0.45234000  0.15469000  1.0 0.6148921069
C  C86  1  0.00363000  0.15073000  0.38556000  1.0 0.6345289763
C  C87  1  0.20120000  0.57955000  0.37130000  1.0 0.09025905
C  C88  1  0.04392000  0.21431000  0.37421000  1.0 -0.0307035895
C  C89  1  0.16210000  0.45524000  0.36070000  1.0 -0.2078701068
C  C90  1  0.19808000  0.70557000  0.37413000  1.0 -0.0799905714
C  C91  1  0.19720000  0.64476000  0.35403000  1.0 -0.1313273543
C  C92  1  0.27430000  0.41971000  0.19471000  1.0 -0.13990146
C  C93  1  0.27140000  0.45039000  0.25860000  1.0 0.0792528713
C  C94  1  0.14590000  0.26475000  0.34628000  1.0 -0.2465197797
C  C95  1  0.11930000  0.33234000  0.35185000  1.0 0.09025905
C  C96  1  0.05330000  0.33987000  0.36793000  1.0 -0.1589599973
C  C97  1  0.33931000  0.45217000  0.19094000  1.0 -0.0395536249
C  C98  1  0.01500000  0.28132000  0.37928000  1.0 -0.1013460938
C  C99  1  0.10856000  0.20631000  0.35743000  1.0 -0.1473350956
C  C100  1  0.20510000  0.57722000  0.40952000  1.0 -0.319262914
C  C101  1  0.23340000  0.45116000  0.29414000  1.0 0.09025905
C  C102  1  0.15980000  0.39471000  0.33936000  1.0 0.09025905
C  C103  1  0.24010000  0.41907000  0.22785000  1.0 -0.1589599973
C  C104  1  0.23590000  0.51124000  0.31603000  1.0 -0.2380317717
C  C105  1  0.36990000  0.48431000  0.22066000  1.0 -0.1082556197
C  C106  1  0.33540000  0.48347000  0.25441000  1.0 -0.1681509978
C  C107  1  0.19540000  0.39385000  0.30596000  1.0 -0.2307067756
C  C108  1  0.19970000  0.51397000  0.34928000  1.0 0.09025905
C  C109  1  0.70324000  0.20127000  0.58775000  1.0 -0.0395536249
C  C110  1  0.63875000  0.20433000  0.57032000  1.0 -0.319262914
C  C111  1  0.76987000  0.19519000  0.56701000  1.0 0.5537363928
C  C112  1  0.45234000  0.37526000  0.84531000  1.0 0.6148921069
C  C113  1  0.15073000  0.00363000  0.61444000  1.0 0.6345289763
C  C114  1  0.57955000  0.20120000  0.62870000  1.0 0.09025905
C  C115  1  0.21431000  0.04392000  0.62579000  1.0 -0.0307035895
C  C116  1  0.45524000  0.16210000  0.63930000  1.0 -0.2078701068
C  C117  1  0.70557000  0.19808000  0.62587000  1.0 -0.0799905714
C  C118  1  0.64476000  0.19720000  0.64597000  1.0 -0.1313273543
C  C119  1  0.41971000  0.27430000  0.80529000  1.0 -0.13990146
C  C120  1  0.45039000  0.27140000  0.74140000  1.0 0.0792528713
C  C121  1  0.26475000  0.14590000  0.65372000  1.0 -0.2465197797
C  C122  1  0.33234000  0.11930000  0.64815000  1.0 0.09025905
C  C123  1  0.33987000  0.05330000  0.63207000  1.0 -0.1589599973
C  C124  1  0.45217000  0.33931000  0.80906000  1.0 -0.0395536249
C  C125  1  0.28132000  0.01500000  0.62072000  1.0 -0.1013460938
C  C126  1  0.20631000  0.10856000  0.64257000  1.0 -0.13990146
C  C127  1  0.57722000  0.20510000  0.59048000  1.0 -0.319262914
C  C128  1  0.45116000  0.23340000  0.70586000  1.0 0.09025905
C  C129  1  0.39471000  0.15980000  0.66064000  1.0 0.09025905
C  C130  1  0.41907000  0.24010000  0.77215000  1.0 -0.1589599973
C  C131  1  0.51124000  0.23590000  0.68397000  1.0 -0.2380317717
C  C132  1  0.48431000  0.36990000  0.77934000  1.0 -0.1082556197
C  C133  1  0.48347000  0.33540000  0.74559000  1.0 -0.1681509978
C  C134  1  0.39385000  0.19540000  0.69404000  1.0 -0.2307067756
C  C135  1  0.51397000  0.19970000  0.65072000  1.0 0.09025905
C  C136  1  0.29676000  0.79873000  0.58775000  1.0 -0.0395536249
C  C137  1  0.36125000  0.79567000  0.57032000  1.0 -0.319262914
C  C138  1  0.23013000  0.80481000  0.56701000  1.0 0.5537363928
C  C139  1  0.54766000  0.62474000  0.84531000  1.0 0.6148921069
C  C140  1  0.84927000  0.99637000  0.61444000  1.0 0.6345289763
C  C141  1  0.42045000  0.79880000  0.62870000  1.0 0.09025905
C  C142  1  0.78569000  0.95608000  0.62579000  1.0 -0.0307035895
C  C143  1  0.54476000  0.83790000  0.63930000  1.0 -0.2078701068
C  C144  1  0.29443000  0.80192000  0.62587000  1.0 -0.0799905714
C  C145  1  0.35524000  0.80280000  0.64597000  1.0 -0.1313273543
C  C146  1  0.58029000  0.72570000  0.80529000  1.0 -0.13990146
C  C147  1  0.54961000  0.72860000  0.74140000  1.0 0.0792528713
C  C148  1  0.73525000  0.85410000  0.65372000  1.0 -0.2465197797
C  C149  1  0.66766000  0.88070000  0.64815000  1.0 0.09025905
C  C150  1  0.66013000  0.94670000  0.63207000  1.0 -0.1589599973
C  C151  1  0.54783000  0.66069000  0.80906000  1.0 -0.0395536249
C  C152  1  0.71868000  0.98500000  0.62072000  1.0 -0.1013460938
C  C153  1  0.79369000  0.89144000  0.64257000  1.0 -0.13990146
C  C154  1  0.42278000  0.79490000  0.59048000  1.0 -0.319262914
C  C155  1  0.54884000  0.76660000  0.70586000  1.0 0.09025905
C  C156  1  0.60529000  0.84020000  0.66064000  1.0 0.09025905
C  C157  1  0.58093000  0.75990000  0.77215000  1.0 -0.1589599973
C  C158  1  0.48876000  0.76410000  0.68397000  1.0 -0.2380317717
C  C159  1  0.51569000  0.63010000  0.77934000  1.0 -0.1082556197
C  C160  1  0.51653000  0.66460000  0.74559000  1.0 -0.1681509978
C  C161  1  0.60615000  0.80460000  0.69404000  1.0 -0.2307067756
C  C162  1  0.48603000  0.80030000  0.65072000  1.0 0.09025905
C  C163  1  0.70127000  0.79676000  0.08775000  1.0 -0.0395536249
C  C164  1  0.70433000  0.86125000  0.07032000  1.0 -0.319262914
C  C165  1  0.69519000  0.73013000  0.06701000  1.0 0.5537363928
C  C166  1  0.87526000  0.04766000  0.34531000  1.0 0.6148921069
C  C167  1  0.50363000  0.34927000  0.11444000  1.0 0.6345289763
C  C168  1  0.70120000  0.92045000  0.12870000  1.0 0.09025905
C  C169  1  0.54392000  0.28569000  0.12579000  1.0 -0.0307035895
C  C170  1  0.66210000  0.04476000  0.13930000  1.0 -0.2078701068
C  C171  1  0.69808000  0.79443000  0.12587000  1.0 -0.0799905714
C  C172  1  0.69720000  0.85524000  0.14597000  1.0 -0.1313273543
C  C173  1  0.77430000  0.08029000  0.30529000  1.0 -0.13990146
C  C174  1  0.77140000  0.04961000  0.24140000  1.0 0.0792528713
C  C175  1  0.64590000  0.23525000  0.15372000  1.0 -0.2380317717
C  C176  1  0.61930000  0.16766000  0.14815000  1.0 0.09025905
C  C177  1  0.55330000  0.16013000  0.13207000  1.0 -0.1589599973
C  C178  1  0.83931000  0.04783000  0.30906000  1.0 -0.0395536249
C  C179  1  0.51500000  0.21868000  0.12072000  1.0 -0.1013460938
C  C180  1  0.60856000  0.29369000  0.14257000  1.0 -0.1473350956
C  C181  1  0.70510000  0.92278000  0.09048000  1.0 -0.319262914
C  C182  1  0.73340000  0.04884000  0.20586000  1.0 0.09025905
C  C183  1  0.65980000  0.10529000  0.16064000  1.0 0.09025905
C  C184  1  0.74010000  0.08093000  0.27215000  1.0 -0.1589599973
C  C185  1  0.73590000  0.98876000  0.18397000  1.0 -0.2380317717
C  C186  1  0.86990000  0.01569000  0.27934000  1.0 -0.1082556197
C  C187  1  0.83540000  0.01653000  0.24559000  1.0 -0.1681509978
C  C188  1  0.69540000  0.10615000  0.19404000  1.0 -0.2307067756
C  C189  1  0.69970000  0.98603000  0.15072000  1.0 0.09025905
C  C190  1  0.29873000  0.20324000  0.08775000  1.0 -0.0395536249
C  C191  1  0.29567000  0.13875000  0.07032000  1.0 -0.319262914
C  C192  1  0.30481000  0.26987000  0.06701000  1.0 0.5537363928
C  C193  1  0.12474000  0.95234000  0.34531000  1.0 0.6148921069
C  C194  1  0.49637000  0.65073000  0.11444000  1.0 0.6345289763
C  C195  1  0.29880000  0.07955000  0.12870000  1.0 0.09025905
C  C196  1  0.45608000  0.71431000  0.12579000  1.0 -0.0307035895
C  C197  1  0.33790000  0.95524000  0.13930000  1.0 -0.2078701068
C  C198  1  0.30192000  0.20557000  0.12587000  1.0 -0.0799905714
C  C199  1  0.30280000  0.14476000  0.14597000  1.0 -0.1313273543
C  C200  1  0.22570000  0.91971000  0.30529000  1.0 -0.13990146
C  C201  1  0.22860000  0.95039000  0.24140000  1.0 0.0792528713
C  C202  1  0.35410000  0.76475000  0.15372000  1.0 -0.2465197797
C  C203  1  0.38070000  0.83234000  0.14815000  1.0 0.09025905
C  C204  1  0.44670000  0.83987000  0.13207000  1.0 -0.1589599973
C  C205  1  0.16069000  0.95217000  0.30906000  1.0 -0.0395536249
C  C206  1  0.48500000  0.78132000  0.12072000  1.0 -0.1013460938
C  C207  1  0.39144000  0.70631000  0.14257000  1.0 -0.1473350956
C  C208  1  0.29490000  0.07722000  0.09048000  1.0 -0.319262914
C  C209  1  0.26660000  0.95116000  0.20586000  1.0 0.09025905
C  C210  1  0.34020000  0.89471000  0.16064000  1.0 0.09025905
C  C211  1  0.25990000  0.91907000  0.27215000  1.0 -0.1589599973
C  C212  1  0.26410000  0.01124000  0.18397000  1.0 -0.2380317717
C  C213  1  0.13010000  0.98431000  0.27934000  1.0 -0.1082556197
C  C214  1  0.16460000  0.98347000  0.24559000  1.0 -0.1681509978
C  C215  1  0.30460000  0.89385000  0.19404000  1.0 -0.2307067756
C  C216  1  0.30030000  0.01397000  0.15072000  1.0 0.09025905
C  C217  1  0.22240000  0.82560000  0.87720000  0.13 0.1624499377
C  C218  1  0.33820000  0.80600000  0.89030000  0.13 0.0989936206
C  C219  1  0.36800000  0.80600000  0.85620000  0.13 -0.0210076455
C  C220  1  0.89100000  0.81700000  0.02160000  0.13 -0.0618683996
C  C221  1  0.93000000  0.81800000  0.00650000  0.13 -0.0210076455
C  C222  1  0.00100000  0.83300000  0.07490000  0.13 -0.1082556197
C  C223  1  0.42970000  0.82650000  0.98140000  0.13 -0.0395536249
C  C224  1  0.44400000  0.84560000  0.97190000  0.13 -0.0500140592
C  C225  1  0.39700000  0.84600000  0.94380000  0.13 -0.0698013556
C  C226  1  0.38100000  0.83300000  0.95310000  0.13 -0.088321369
C  C227  1  0.35840000  0.81060000  0.88070000  0.13 0.0432860823
C  C228  1  0.38250000  0.80590000  0.84500000  0.13 -0.088321369
C  C229  1  0.26740000  0.83540000  0.82290000  0.13 0.1108210751
C  C230  1  0.24330000  0.84000000  0.85860000  0.13 0.0521454129
C  C231  1  0.25820000  0.85120000  0.77600000  0.13 0.0263997879
C  C232  1  0.24890000  0.83690000  0.83800000  0.13 0.0792528713
C  C233  1  0.32520000  0.83220000  0.78960000  0.13 0.0192103429
C  C234  1  0.34700000  0.80500000  0.77850000  0.13 -0.13990146
C  C235  1  0.27400000  0.81900000  0.76740000  0.13 -0.088321369
C  C236  1  0.15940000  0.79850000  0.92630000  0.13 -0.1160510942
C  C237  1  0.13750000  0.83860000  0.89680000  0.13 0.0792528713
C  C238  1  0.07420000  0.87450000  0.89840000  0.13 -0.13990146
C  C239  1  0.03280000  0.87040000  0.92950000  0.13 -0.088321369
C  C240  1  0.05470000  0.83000000  0.95900000  0.13 0.0432860823
C  C241  1  0.11800000  0.79400000  0.95740000  0.13 -0.0500140592
C  C242  1  0.14240000  0.77480000  0.93920000  0.13 -0.0698013556
C  C243  1  0.11980000  0.82180000  0.91270000  0.13 0.0521454129
C  C244  1  0.05760000  0.85850000  0.91760000  0.13 -0.0082570457
C  C245  1  0.01790000  0.84820000  0.94890000  0.13 -0.1082556197
C  C246  1  0.04040000  0.80120000  0.97530000  0.13 0.0792528713
C  C247  1  0.10270000  0.76450000  0.97050000  0.13 -0.1589599973
C  C248  1  0.03900000  0.79400000  0.02700000  0.13 -0.0307035895
C  C249  1  0.98700000  0.78700000  0.06140000  0.13 0.0603258036
C  C250  1  0.89300000  0.85100000  0.04140000  0.13 0.0056040729
C  C251  1  0.94500000  0.83900000  0.99100000  0.13 -0.13990146
C  C252  1  0.03900000  0.81900000  0.03620000  0.13 -0.0799905714
C  C253  1  0.77760000  0.17440000  0.87720000  0.13 0.1624499377
C  C254  1  0.66180000  0.19400000  0.89030000  0.13 0.0989936206
C  C255  1  0.63200000  0.19400000  0.85620000  0.13 -0.0210076455
C  C256  1  0.10900000  0.18300000  0.02160000  0.13 -0.0618683996
C  C257  1  0.07000000  0.18200000  0.00650000  0.13 -0.0210076455
C  C258  1  0.99900000  0.16700000  0.07490000  0.13 -0.1082556197
C  C259  1  0.57030000  0.17350000  0.98140000  0.13 -0.0395536249
C  C260  1  0.55600000  0.15440000  0.97190000  0.13 -0.0500140592
C  C261  1  0.60300000  0.15400000  0.94380000  0.13 -0.0698013556
C  C262  1  0.61900000  0.16700000  0.95310000  0.13 -0.088321369
C  C263  1  0.64160000  0.18940000  0.88070000  0.13 0.0432860823
C  C264  1  0.61750000  0.19410000  0.84500000  0.13 -0.088321369
C  C265  1  0.73260000  0.16460000  0.82290000  0.13 0.1108210751
C  C266  1  0.75670000  0.16000000  0.85860000  0.13 0.0521454129
C  C267  1  0.74180000  0.14880000  0.77600000  0.13 0.0263997879
C  C268  1  0.75110000  0.16310000  0.83800000  0.13 0.0792528713
C  C269  1  0.67480000  0.16780000  0.78960000  0.13 0.0192103429
C  C270  1  0.65300000  0.19500000  0.77850000  0.13 -0.13990146
C  C271  1  0.72600000  0.18100000  0.76740000  0.13 -0.088321369
C  C272  1  0.84060000  0.20150000  0.92630000  0.13 -0.1160510942
C  C273  1  0.86250000  0.16140000  0.89680000  0.13 0.0792528713
C  C274  1  0.92580000  0.12550000  0.89840000  0.13 -0.13990146
C  C275  1  0.96720000  0.12960000  0.92950000  0.13 -0.088321369
C  C276  1  0.94530000  0.17000000  0.95900000  0.13 0.0432860823
C  C277  1  0.88200000  0.20600000  0.95740000  0.13 -0.0500140592
C  C278  1  0.85760000  0.22520000  0.93920000  0.13 -0.0698013556
C  C279  1  0.88020000  0.17820000  0.91270000  0.13 0.0521454129
C  C280  1  0.94240000  0.14150000  0.91760000  0.13 -0.0082570457
C  C281  1  0.98210000  0.15180000  0.94890000  0.13 -0.1082556197
C  C282  1  0.95960000  0.19880000  0.97530000  0.13 0.0792528713
C  C283  1  0.89730000  0.23550000  0.97050000  0.13 -0.1589599973
C  C284  1  0.96100000  0.20600000  0.02700000  0.13 -0.0307035895
C  C285  1  0.01300000  0.21300000  0.06140000  0.13 0.0603258036
C  C286  1  0.10700000  0.14900000  0.04140000  0.13 0.0034476416
C  C287  1  0.05500000  0.16100000  0.99100000  0.13 -0.13990146
C  C288  1  0.96100000  0.18100000  0.03620000  0.13 -0.0799905714
C  C289  1  0.67440000  0.72240000  0.37720000  0.13 0.1624499377
C  C290  1  0.69400000  0.83820000  0.39030000  0.13 0.0989936206
C  C291  1  0.69400000  0.86800000  0.35620000  0.13 -0.0210076455
C  C292  1  0.68300000  0.39100000  0.52160000  0.13 -0.0618683996
C  C293  1  0.68200000  0.43000000  0.50650000  0.13 -0.0210076455
C  C294  1  0.66700000  0.50100000  0.57490000  0.13 -0.1082556197
C  C295  1  0.67350000  0.92970000  0.48140000  0.13 -0.0395536249
C  C296  1  0.65440000  0.94400000  0.47190000  0.13 -0.0395536249
C  C297  1  0.65400000  0.89700000  0.44380000  0.13 -0.0698013556
C  C298  1  0.66700000  0.88100000  0.45310000  0.13 -0.088321369
C  C299  1  0.68940000  0.85840000  0.38070000  0.13 0.0432860823
C  C300  1  0.69410000  0.88250000  0.34500000  0.13 -0.088321369
C  C301  1  0.66460000  0.76740000  0.32290000  0.13 0.1108210751
C  C302  1  0.66000000  0.74330000  0.35860000  0.13 0.0521454129
C  C303  1  0.64880000  0.75820000  0.27600000  0.13 0.0263997879
C  C304  1  0.66310000  0.74890000  0.33800000  0.13 0.0792528713
C  C305  1  0.66780000  0.82520000  0.28960000  0.13 0.0192103429
C  C306  1  0.69500000  0.84700000  0.27850000  0.13 -0.13990146
C  C307  1  0.68100000  0.77400000  0.26740000  0.13 -0.0799905714
C  C308  1  0.70150000  0.65940000  0.42630000  0.13 -0.1160510942
C  C309  1  0.66140000  0.63750000  0.39680000  0.13 0.0792528713
C  C310  1  0.62550000  0.57420000  0.39840000  0.13 -0.13990146
C  C311  1  0.62960000  0.53280000  0.42950000  0.13 -0.088321369
C  C312  1  0.67000000  0.55470000  0.45900000  0.13 0.0432860823
C  C313  1  0.70600000  0.61800000  0.45740000  0.13 -0.0500140592
C  C314  1  0.72520000  0.64240000  0.43920000  0.13 -0.0698013556
C  C315  1  0.67820000  0.61980000  0.41270000  0.13 0.0521454129
C  C316  1  0.64150000  0.55760000  0.41760000  0.13 -0.0082570457
C  C317  1  0.65180000  0.51790000  0.44890000  0.13 -0.1082556197
C  C318  1  0.69880000  0.54040000  0.47530000  0.13 0.0792528713
C  C319  1  0.73550000  0.60270000  0.47050000  0.13 -0.1589599973
C  C320  1  0.70600000  0.53900000  0.52700000  0.13 -0.0307035895
C  C321  1  0.71300000  0.48700000  0.56140000  0.13 0.0603258036
C  C322  1  0.64900000  0.39300000  0.54140000  0.13 0.0034476416
C  C323  1  0.66100000  0.44500000  0.49100000  0.13 -0.13990146
C  C324  1  0.68100000  0.53900000  0.53620000  0.13 -0.0799905714
C  C325  1  0.32560000  0.27760000  0.37720000  0.13 0.1624499377
C  C326  1  0.30600000  0.16180000  0.39030000  0.13 0.0989936206
C  C327  1  0.30600000  0.13200000  0.35620000  0.13 -0.0210076455
C  C328  1  0.31700000  0.60900000  0.52160000  0.13 -0.0618683996
C  C329  1  0.31800000  0.57000000  0.50650000  0.13 -0.0210076455
C  C330  1  0.33300000  0.49900000  0.57490000  0.13 -0.1082556197
C  C331  1  0.32650000  0.07030000  0.48140000  0.13 -0.0395536249
C  C332  1  0.34560000  0.05600000  0.47190000  0.13 -0.0395536249
C  C333  1  0.34600000  0.10300000  0.44380000  0.13 -0.0698013556
C  C334  1  0.33300000  0.11900000  0.45310000  0.13 -0.088321369
C  C335  1  0.31060000  0.14160000  0.38070000  0.13 0.0432860823
C  C336  1  0.30590000  0.11750000  0.34500000  0.13 -0.088321369
C  C337  1  0.33540000  0.23260000  0.32290000  0.13 0.1108210751
C  C338  1  0.34000000  0.25670000  0.35860000  0.13 0.0521454129
C  C339  1  0.35120000  0.24180000  0.27600000  0.13 0.0263997879
C  C340  1  0.33690000  0.25110000  0.33800000  0.13 0.0792528713
C  C341  1  0.33220000  0.17480000  0.28960000  0.13 0.0192103429
C  C342  1  0.30500000  0.15300000  0.27850000  0.13 -0.13990146
C  C343  1  0.31900000  0.22600000  0.26740000  0.13 -0.0799905714
C  C344  1  0.29850000  0.34060000  0.42630000  0.13 -0.1160510942
C  C345  1  0.33860000  0.36250000  0.39680000  0.13 0.0792528713
C  C346  1  0.37450000  0.42580000  0.39840000  0.13 -0.13990146
C  C347  1  0.37040000  0.46720000  0.42950000  0.13 -0.088321369
C  C348  1  0.33000000  0.44530000  0.45900000  0.13 0.0432860823
C  C349  1  0.29400000  0.38200000  0.45740000  0.13 -0.0500140592
C  C350  1  0.27480000  0.35760000  0.43920000  0.13 -0.0698013556
C  C351  1  0.32180000  0.38020000  0.41270000  0.13 0.0521454129
C  C352  1  0.35850000  0.44240000  0.41760000  0.13 -0.0082570457
C  C353  1  0.34820000  0.48210000  0.44890000  0.13 -0.1082556197
C  C354  1  0.30120000  0.45960000  0.47530000  0.13 0.0792528713
C  C355  1  0.26450000  0.39730000  0.47050000  0.13 -0.1589599973
C  C356  1  0.29400000  0.46100000  0.52700000  0.13 -0.0307035895
C  C357  1  0.28700000  0.51300000  0.56140000  0.13 0.0603258036
C  C358  1  0.35100000  0.60700000  0.54140000  0.13 0.0034476416
C  C359  1  0.33900000  0.55500000  0.49100000  0.13 -0.13990146
C  C360  1  0.31900000  0.46100000  0.53620000  0.13 -0.0799905714
C  C361  1  0.27760000  0.32560000  0.62280000  0.13 0.1624499377
C  C362  1  0.16180000  0.30600000  0.60970000  0.13 0.0989936206
C  C363  1  0.13200000  0.30600000  0.64380000  0.13 -0.0210076455
C  C364  1  0.60900000  0.31700000  0.47840000  0.13 -0.0618683996
C  C365  1  0.57000000  0.31800000  0.49350000  0.13 -0.0210076455
C  C366  1  0.49900000  0.33300000  0.42510000  0.13 -0.1082556197
C  C367  1  0.07030000  0.32650000  0.51860000  0.13 -0.0395536249
C  C368  1  0.05600000  0.34560000  0.52810000  0.13 -0.0500140592
C  C369  1  0.10300000  0.34600000  0.55620000  0.13 -0.0698013556
C  C370  1  0.11900000  0.33300000  0.54690000  0.13 -0.088321369
C  C371  1  0.14160000  0.31060000  0.61930000  0.13 0.0432860823
C  C372  1  0.11750000  0.30590000  0.65500000  0.13 -0.088321369
C  C373  1  0.23260000  0.33540000  0.67710000  0.13 0.1108210751
C  C374  1  0.25670000  0.34000000  0.64140000  0.13 0.0521454129
C  C375  1  0.24180000  0.35120000  0.72400000  0.13 0.0263997879
C  C376  1  0.25110000  0.33690000  0.66200000  0.13 0.0792528713
C  C377  1  0.17480000  0.33220000  0.71040000  0.13 0.0192103429
C  C378  1  0.15300000  0.30500000  0.72150000  0.13 -0.13990146
C  C379  1  0.22600000  0.31900000  0.73260000  0.13 -0.088321369
C  C380  1  0.34060000  0.29850000  0.57370000  0.13 -0.1160510942
C  C381  1  0.36250000  0.33860000  0.60320000  0.13 0.0792528713
C  C382  1  0.42580000  0.37450000  0.60160000  0.13 -0.13990146
C  C383  1  0.46720000  0.37040000  0.57050000  0.13 -0.088321369
C  C384  1  0.44530000  0.33000000  0.54100000  0.13 0.0432860823
C  C385  1  0.38200000  0.29400000  0.54260000  0.13 -0.0500140592
C  C386  1  0.35760000  0.27480000  0.56080000  0.13 -0.0698013556
C  C387  1  0.38020000  0.32180000  0.58730000  0.13 0.0521454129
C  C388  1  0.44240000  0.35850000  0.58240000  0.13 -0.0082570457
C  C389  1  0.48210000  0.34820000  0.55110000  0.13 -0.1082556197
C  C390  1  0.45960000  0.30120000  0.52470000  0.13 0.0792528713
C  C391  1  0.39730000  0.26450000  0.52950000  0.13 -0.1589599973
C  C392  1  0.46100000  0.29400000  0.47300000  0.13 -0.0307035895
C  C393  1  0.51300000  0.28700000  0.43860000  0.13 0.0603258036
C  C394  1  0.60700000  0.35100000  0.45860000  0.13 0.0034476416
C  C395  1  0.55500000  0.33900000  0.50900000  0.13 -0.13990146
C  C396  1  0.46100000  0.31900000  0.46380000  0.13 -0.0799905714
C  C397  1  0.72240000  0.67440000  0.62280000  0.13 0.1624499377
C  C398  1  0.83820000  0.69400000  0.60970000  0.13 0.0989936206
C  C399  1  0.86800000  0.69400000  0.64380000  0.13 -0.0210076455
C  C400  1  0.39100000  0.68300000  0.47840000  0.13 -0.0618683996
C  C401  1  0.43000000  0.68200000  0.49350000  0.13 -0.0210076455
C  C402  1  0.50100000  0.66700000  0.42510000  0.13 -0.1082556197
C  C403  1  0.92970000  0.67350000  0.51860000  0.13 -0.0395536249
C  C404  1  0.94400000  0.65440000  0.52810000  0.13 -0.0395536249
C  C405  1  0.89700000  0.65400000  0.55620000  0.13 -0.0698013556
C  C406  1  0.88100000  0.66700000  0.54690000  0.13 -0.088321369
C  C407  1  0.85840000  0.68940000  0.61930000  0.13 0.0432860823
C  C408  1  0.88250000  0.69410000  0.65500000  0.13 -0.088321369
C  C409  1  0.76740000  0.66460000  0.67710000  0.13 0.1108210751
C  C410  1  0.74330000  0.66000000  0.64140000  0.13 0.0521454129
C  C411  1  0.75820000  0.64880000  0.72400000  0.13 0.0263997879
C  C412  1  0.74890000  0.66310000  0.66200000  0.13 0.0792528713
C  C413  1  0.82520000  0.66780000  0.71040000  0.13 0.0263997879
C  C414  1  0.84700000  0.69500000  0.72150000  0.13 -0.13990146
C  C415  1  0.77400000  0.68100000  0.73260000  0.13 -0.088321369
C  C416  1  0.65940000  0.70150000  0.57370000  0.13 -0.1160510942
C  C417  1  0.63750000  0.66140000  0.60320000  0.13 0.0792528713
C  C418  1  0.57420000  0.62550000  0.60160000  0.13 -0.13990146
C  C419  1  0.53280000  0.62960000  0.57050000  0.13 -0.088321369
C  C420  1  0.55470000  0.67000000  0.54100000  0.13 0.0432860823
C  C421  1  0.61800000  0.70600000  0.54260000  0.13 -0.0500140592
C  C422  1  0.64240000  0.72520000  0.56080000  0.13 -0.0698013556
C  C423  1  0.61980000  0.67820000  0.58730000  0.13 0.0521454129
C  C424  1  0.55760000  0.64150000  0.58240000  0.13 -0.0082570457
C  C425  1  0.51790000  0.65180000  0.55110000  0.13 -0.1082556197
C  C426  1  0.54040000  0.69880000  0.52470000  0.13 0.0792528713
C  C427  1  0.60270000  0.73550000  0.52950000  0.13 -0.1589599973
C  C428  1  0.53900000  0.70600000  0.47300000  0.13 -0.0307035895
C  C429  1  0.48700000  0.71300000  0.43860000  0.13 0.0603258036
C  C430  1  0.39300000  0.64900000  0.45860000  0.13 0.0034476416
C  C431  1  0.44500000  0.66100000  0.50900000  0.13 -0.13990146
C  C432  1  0.53900000  0.68100000  0.46380000  0.13 -0.0799905714
C  C433  1  0.82560000  0.22240000  0.12280000  0.13 0.1624499377
C  C434  1  0.80600000  0.33820000  0.10970000  0.13 0.0989936206
C  C435  1  0.80600000  0.36800000  0.14380000  0.13 -0.0210076455
C  C436  1  0.81700000  0.89100000  0.97840000  0.13 -0.0618683996
C  C437  1  0.81800000  0.93000000  0.99350000  0.13 -0.0210076455
C  C438  1  0.83300000  0.00100000  0.92510000  0.13 -0.1082556197
C  C439  1  0.82650000  0.42970000  0.01860000  0.13 -0.0307035895
C  C440  1  0.84560000  0.44400000  0.02810000  0.13 -0.0395536249
C  C441  1  0.84600000  0.39700000  0.05620000  0.13 -0.0698013556
C  C442  1  0.83300000  0.38100000  0.04690000  0.13 -0.088321369
C  C443  1  0.81060000  0.35840000  0.11930000  0.13 0.0432860823
C  C444  1  0.80590000  0.38250000  0.15500000  0.13 -0.088321369
C  C445  1  0.83540000  0.26740000  0.17710000  0.13 0.1108210751
C  C446  1  0.84000000  0.24330000  0.14140000  0.13 0.0521454129
C  C447  1  0.85120000  0.25820000  0.22400000  0.13 0.0263997879
C  C448  1  0.83690000  0.24890000  0.16200000  0.13 0.0792528713
C  C449  1  0.83220000  0.32520000  0.21040000  0.13 0.0192103429
C  C450  1  0.80500000  0.34700000  0.22150000  0.13 -0.13990146
C  C451  1  0.81900000  0.27400000  0.23260000  0.13 -0.088321369
C  C452  1  0.79850000  0.15940000  0.07370000  0.13 -0.1160510942
C  C453  1  0.83860000  0.13750000  0.10320000  0.13 0.0792528713
C  C454  1  0.87450000  0.07420000  0.10160000  0.13 -0.13990146
C  C455  1  0.87040000  0.03280000  0.07050000  0.13 -0.088321369
C  C456  1  0.83000000  0.05470000  0.04100000  0.13 0.0432860823
C  C457  1  0.79400000  0.11800000  0.04260000  0.13 -0.0500140592
C  C458  1  0.77480000  0.14240000  0.06080000  0.13 -0.0698013556
C  C459  1  0.82180000  0.11980000  0.08730000  0.13 0.0521454129
C  C460  1  0.85850000  0.05760000  0.08240000  0.13 -0.0082570457
C  C461  1  0.84820000  0.01790000  0.05110000  0.13 -0.1082556197
C  C462  1  0.80120000  0.04040000  0.02470000  0.13 0.0792528713
C  C463  1  0.76450000  0.10270000  0.02950000  0.13 -0.1589599973
C  C464  1  0.79400000  0.03900000  0.97300000  0.13 -0.0307035895
C  C465  1  0.78700000  0.98700000  0.93860000  0.13 0.0603258036
C  C466  1  0.85100000  0.89300000  0.95860000  0.13 0.0034476416
C  C467  1  0.83900000  0.94500000  0.00900000  0.13 -0.13990146
C  C468  1  0.81900000  0.03900000  0.96380000  0.13 -0.0799905714
C  C469  1  0.17440000  0.77760000  0.12280000  0.13 0.1624499377
C  C470  1  0.19400000  0.66180000  0.10970000  0.13 0.0989936206
C  C471  1  0.19400000  0.63200000  0.14380000  0.13 -0.0210076455
C  C472  1  0.18300000  0.10900000  0.97840000  0.13 -0.0618683996
C  C473  1  0.18200000  0.07000000  0.99350000  0.13 -0.0210076455
C  C474  1  0.16700000  0.99900000  0.92510000  0.13 -0.1082556197
C  C475  1  0.17350000  0.57030000  0.01860000  0.13 -0.0395536249
C  C476  1  0.15440000  0.55600000  0.02810000  0.13 -0.0395536249
C  C477  1  0.15400000  0.60300000  0.05620000  0.13 -0.0698013556
C  C478  1  0.16700000  0.61900000  0.04690000  0.13 -0.088321369
C  C479  1  0.18940000  0.64160000  0.11930000  0.13 0.0432860823
C  C480  1  0.19410000  0.61750000  0.15500000  0.13 -0.088321369
C  C481  1  0.16460000  0.73260000  0.17710000  0.13 0.1108210751
C  C482  1  0.16000000  0.75670000  0.14140000  0.13 0.0521454129
C  C483  1  0.14880000  0.74180000  0.22400000  0.13 0.0263997879
C  C484  1  0.16310000  0.75110000  0.16200000  0.13 0.0792528713
C  C485  1  0.16780000  0.67480000  0.21040000  0.13 0.0192103429
C  C486  1  0.19500000  0.65300000  0.22150000  0.13 -0.13990146
C  C487  1  0.18100000  0.72600000  0.23260000  0.13 -0.088321369
C  C488  1  0.20150000  0.84060000  0.07370000  0.13 -0.1160510942
C  C489  1  0.16140000  0.86250000  0.10320000  0.13 0.0792528713
C  C490  1  0.12550000  0.92580000  0.10160000  0.13 -0.13990146
C  C491  1  0.12960000  0.96720000  0.07050000  0.13 -0.088321369
C  C492  1  0.17000000  0.94530000  0.04100000  0.13 0.0432860823
C  C493  1  0.20600000  0.88200000  0.04260000  0.13 -0.0500140592
C  C494  1  0.22520000  0.85760000  0.06080000  0.13 -0.0698013556
C  C495  1  0.17820000  0.88020000  0.08730000  0.13 0.0521454129
C  C496  1  0.14150000  0.94240000  0.08240000  0.13 -0.0082570457
C  C497  1  0.15180000  0.98210000  0.05110000  0.13 -0.1082556197
C  C498  1  0.19880000  0.95960000  0.02470000  0.13 0.0792528713
C  C499  1  0.23550000  0.89730000  0.02950000  0.13 -0.1589599973
C  C500  1  0.20600000  0.96100000  0.97300000  0.13 -0.0307035895
C  C501  1  0.21300000  0.01300000  0.93860000  0.13 0.0603258036
C  C502  1  0.14900000  0.10700000  0.95860000  0.13 0.0034476416
C  C503  1  0.16100000  0.05500000  0.00900000  0.13 -0.13990146
C  C504  1  0.18100000  0.96100000  0.96380000  0.13 -0.0799905714
C  C505  1  0.49840000  0.74400000  0.94395000  0.26 0.0792528713
C  C506  1  0.49070000  0.78820000  0.97420000  0.26 -0.088321369
C  C507  1  0.54760000  0.76910000  0.99630000  0.26 -0.0500140592
C  C508  1  0.45010000  0.74770000  0.91450000  0.26 -0.3930485282
C  C509  1  0.39620000  0.79600000  0.91680000  0.26 0.0192103429
C  C510  1  0.50160000  0.25600000  0.94395000  0.26 0.0792528713
C  C511  1  0.50930000  0.21180000  0.97420000  0.26 -0.088321369
C  C512  1  0.45240000  0.23090000  0.99630000  0.26 -0.0500140592
C  C513  1  0.54990000  0.25230000  0.91450000  0.26 -0.3930485282
C  C514  1  0.60380000  0.20400000  0.91680000  0.26 0.0192103429
C  C515  1  0.75600000  0.99840000  0.44395000  0.26 0.0792528713
C  C516  1  0.71180000  0.99070000  0.47420000  0.26 -0.088321369
C  C517  1  0.73090000  0.04760000  0.49630000  0.26 -0.0500140592
C  C518  1  0.75230000  0.95010000  0.41450000  0.26 -0.3930485282
C  C519  1  0.70400000  0.89620000  0.41680000  0.26 0.0192103429
C  C520  1  0.24400000  0.00160000  0.44395000  0.26 0.0792528713
C  C521  1  0.28820000  0.00930000  0.47420000  0.26 -0.088321369
C  C522  1  0.26910000  0.95240000  0.49630000  0.26 -0.0500140592
C  C523  1  0.24770000  0.04990000  0.41450000  0.26 -0.3930485282
C  C524  1  0.29600000  0.10380000  0.41680000  0.26 0.0192103429
C  C525  1  0.00160000  0.24400000  0.55605000  0.26 0.0792528713
C  C526  1  0.00930000  0.28820000  0.52580000  0.26 -0.088321369
C  C527  1  0.95240000  0.26910000  0.50370000  0.26 -0.0500140592
C  C528  1  0.04990000  0.24770000  0.58550000  0.26 -0.3930485282
C  C529  1  0.10380000  0.29600000  0.58320000  0.26 0.0192103429
C  C530  1  0.99840000  0.75600000  0.55605000  0.26 0.0792528713
C  C531  1  0.99070000  0.71180000  0.52580000  0.26 -0.088321369
C  C532  1  0.04760000  0.73090000  0.50370000  0.26 -0.0500140592
C  C533  1  0.95010000  0.75230000  0.58550000  0.26 -0.3930485282
C  C534  1  0.89620000  0.70400000  0.58320000  0.26 0.0192103429
C  C535  1  0.74400000  0.49840000  0.05605000  0.26 0.0792528713
C  C536  1  0.78820000  0.49070000  0.02580000  0.26 -0.088321369
C  C537  1  0.76910000  0.54760000  0.00370000  0.26 -0.0500140592
C  C538  1  0.74770000  0.45010000  0.08550000  0.26 -0.3930485282
C  C539  1  0.79600000  0.39620000  0.08320000  0.26 0.0192103429
C  C540  1  0.25600000  0.50160000  0.05605000  0.26 0.0792528713
C  C541  1  0.21180000  0.50930000  0.02580000  0.26 -0.088321369
C  C542  1  0.23090000  0.45240000  0.00370000  0.26 -0.0500140592
C  C543  1  0.25230000  0.54990000  0.08550000  0.26 -0.3930485282
C  C544  1  0.20400000  0.60380000  0.08320000  0.26 0.0192103429
C  C545  1  0.55220000  0.74270000  0.96146000  0.74 0.1876837429
C  C546  1  0.44780000  0.25730000  0.96146000  0.74 0.1876837429
C  C547  1  0.75730000  0.05220000  0.46146000  0.74 0.1876837429
C  C548  1  0.24270000  0.94780000  0.46146000  0.74 0.1876837429
C  C549  1  0.94780000  0.24270000  0.53854000  0.74 0.1876837429
C  C550  1  0.05220000  0.75730000  0.53854000  0.74 0.1876837429
C  C551  1  0.74270000  0.55220000  0.03854000  0.74 0.1876837429
C  C552  1  0.25730000  0.44780000  0.03854000  0.74 0.1876837429
N  N1  1  0.27000000  0.81130000  0.90130000  0.13 -0.181627642
N  N2  1  0.33700000  0.81830000  0.81610000  0.13 -0.0618683996
N  N3  1  0.28880000  0.82760000  0.88750000  0.13 -0.0698013556
N  N4  1  0.21100000  0.85410000  0.80590000  0.13 -0.1589599973
N  N5  1  0.31950000  0.82330000  0.82790000  0.13 -0.0082570457
N  N6  1  0.23100000  0.83350000  0.79300000  0.13 -0.1082556197
N  N7  1  0.17670000  0.85500000  0.86420000  0.13 -0.13990146
N  N8  1  0.16100000  0.84080000  0.87820000  0.13 -0.0618683996
N  N9  1  0.99840000  0.78600000  0.00770000  0.13 0.0521454129
N  N10  1  0.01900000  0.83000000  0.99420000  0.13 0.0192103429
N  N11  1  0.73000000  0.18870000  0.90130000  0.13 -0.181627642
N  N12  1  0.66300000  0.18170000  0.81610000  0.13 -0.0618683996
N  N13  1  0.71120000  0.17240000  0.88750000  0.13 -0.0698013556
N  N14  1  0.78900000  0.14590000  0.80590000  0.13 -0.1589599973
N  N15  1  0.68050000  0.17670000  0.82790000  0.13 -0.0082570457
N  N16  1  0.76900000  0.16650000  0.79300000  0.13 -0.1082556197
N  N17  1  0.82330000  0.14500000  0.86420000  0.13 -0.13990146
N  N18  1  0.83900000  0.15920000  0.87820000  0.13 -0.0618683996
N  N19  1  0.00160000  0.21400000  0.00770000  0.13 0.0521454129
N  N20  1  0.98100000  0.17000000  0.99420000  0.13 0.0192103429
N  N21  1  0.68870000  0.77000000  0.40130000  0.13 -0.181627642
N  N22  1  0.68170000  0.83700000  0.31610000  0.13 -0.0618683996
N  N23  1  0.67240000  0.78880000  0.38750000  0.13 -0.0698013556
N  N24  1  0.64590000  0.71100000  0.30590000  0.13 -0.1589599973
N  N25  1  0.67670000  0.81950000  0.32790000  0.13 -0.0082570457
N  N26  1  0.66650000  0.73100000  0.29300000  0.13 -0.1082556197
N  N27  1  0.64500000  0.67670000  0.36420000  0.13 -0.13990146
N  N28  1  0.65920000  0.66100000  0.37820000  0.13 -0.0618683996
N  N29  1  0.71400000  0.49840000  0.50770000  0.13 0.0521454129
N  N30  1  0.67000000  0.51900000  0.49420000  0.13 0.0192103429
N  N31  1  0.31130000  0.23000000  0.40130000  0.13 -0.181627642
N  N32  1  0.31830000  0.16300000  0.31610000  0.13 -0.0618683996
N  N33  1  0.32760000  0.21120000  0.38750000  0.13 -0.0698013556
N  N34  1  0.35410000  0.28900000  0.30590000  0.13 -0.1589599973
N  N35  1  0.32330000  0.18050000  0.32790000  0.13 -0.0082570457
N  N36  1  0.33350000  0.26900000  0.29300000  0.13 -0.1082556197
N  N37  1  0.35500000  0.32330000  0.36420000  0.13 -0.13990146
N  N38  1  0.34080000  0.33900000  0.37820000  0.13 -0.0618683996
N  N39  1  0.28600000  0.50160000  0.50770000  0.13 0.0521454129
N  N40  1  0.33000000  0.48100000  0.49420000  0.13 0.0192103429
N  N41  1  0.23000000  0.31130000  0.59870000  0.13 -0.181627642
N  N42  1  0.16300000  0.31830000  0.68390000  0.13 -0.0618683996
N  N43  1  0.21120000  0.32760000  0.61250000  0.13 -0.0698013556
N  N44  1  0.28900000  0.35410000  0.69410000  0.13 -0.1589599973
N  N45  1  0.18050000  0.32330000  0.67210000  0.13 -0.0082570457
N  N46  1  0.26900000  0.33350000  0.70700000  0.13 -0.1082556197
N  N47  1  0.32330000  0.35500000  0.63580000  0.13 -0.13990146
N  N48  1  0.33900000  0.34080000  0.62180000  0.13 -0.0618683996
N  N49  1  0.50160000  0.28600000  0.49230000  0.13 0.0521454129
N  N50  1  0.48100000  0.33000000  0.50580000  0.13 0.0192103429
N  N51  1  0.77000000  0.68870000  0.59870000  0.13 -0.181627642
N  N52  1  0.83700000  0.68170000  0.68390000  0.13 -0.0618683996
N  N53  1  0.78880000  0.67240000  0.61250000  0.13 -0.0698013556
N  N54  1  0.71100000  0.64590000  0.69410000  0.13 -0.1589599973
N  N55  1  0.81950000  0.67670000  0.67210000  0.13 -0.0082570457
N  N56  1  0.73100000  0.66650000  0.70700000  0.13 -0.1082556197
N  N57  1  0.67670000  0.64500000  0.63580000  0.13 -0.13990146
N  N58  1  0.66100000  0.65920000  0.62180000  0.13 -0.0618683996
N  N59  1  0.49840000  0.71400000  0.49230000  0.13 0.0521454129
N  N60  1  0.51900000  0.67000000  0.50580000  0.13 0.0192103429
N  N61  1  0.81130000  0.27000000  0.09870000  0.13 -0.181627642
N  N62  1  0.81830000  0.33700000  0.18390000  0.13 -0.0618683996
N  N63  1  0.82760000  0.28880000  0.11250000  0.13 -0.0698013556
N  N64  1  0.85410000  0.21100000  0.19410000  0.13 -0.1589599973
N  N65  1  0.82330000  0.31950000  0.17210000  0.13 -0.0082570457
N  N66  1  0.83350000  0.23100000  0.20700000  0.13 -0.1082556197
N  N67  1  0.85500000  0.17670000  0.13580000  0.13 -0.13990146
N  N68  1  0.84080000  0.16100000  0.12180000  0.13 -0.0618683996
N  N69  1  0.78600000  0.99840000  0.99230000  0.13 0.0521454129
N  N70  1  0.83000000  0.01900000  0.00580000  0.13 0.0192103429
N  N71  1  0.18870000  0.73000000  0.09870000  0.13 -0.181627642
N  N72  1  0.18170000  0.66300000  0.18390000  0.13 -0.0618683996
N  N73  1  0.17240000  0.71120000  0.11250000  0.13 -0.0698013556
N  N74  1  0.14590000  0.78900000  0.19410000  0.13 -0.1681509978
N  N75  1  0.17670000  0.68050000  0.17210000  0.13 -0.0036235157
N  N76  1  0.16650000  0.76900000  0.20700000  0.13 -0.1082556197
N  N77  1  0.14500000  0.82330000  0.13580000  0.13 -0.13990146
N  N78  1  0.15920000  0.83900000  0.12180000  0.13 -0.0618683996
N  N79  1  0.21400000  0.00160000  0.99230000  0.13 0.0521454129
N  N80  1  0.17000000  0.98100000  0.00580000  0.13 0.0192103429
N  N81  1  0.58410000  0.71840000  0.97980000  0.26 -0.0799905714
N  N82  1  0.55500000  0.70030000  0.94850000  0.26 -0.0395536249
N  N83  1  0.41590000  0.28160000  0.97980000  0.26 -0.0799905714
N  N84  1  0.44500000  0.29970000  0.94850000  0.26 -0.0395536249
N  N85  1  0.78160000  0.08410000  0.47980000  0.26 -0.0799905714
N  N86  1  0.79970000  0.05500000  0.44850000  0.26 -0.0395536249
N  N87  1  0.21840000  0.91590000  0.47980000  0.26 -0.0799905714
N  N88  1  0.20030000  0.94500000  0.44850000  0.26 -0.0395536249
N  N89  1  0.91590000  0.21840000  0.52020000  0.26 -0.0799905714
N  N90  1  0.94500000  0.20030000  0.55150000  0.26 -0.0395536249
N  N91  1  0.08410000  0.78160000  0.52020000  0.26 -0.0799905714
N  N92  1  0.05500000  0.79970000  0.55150000  0.26 -0.0395536249
N  N93  1  0.71840000  0.58410000  0.02020000  0.26 -0.0799905714
N  N94  1  0.70030000  0.55500000  0.05150000  0.26 -0.0395536249
N  N95  1  0.28160000  0.41590000  0.02020000  0.26 -0.0799905714
N  N96  1  0.29970000  0.44500000  0.05150000  0.26 -0.0395536249
O  O1  1  0.52345000  0.56570000  0.91998000  1.0 -0.9386048127
O  O2  1  0.62866000  0.60219000  0.96504000  1.0 -0.892637204
O  O3  1  0.67461000  0.68950000  0.91443000  1.0 -0.5897150147
O  O4  1  0.73318000  0.69496000  0.96737000  1.0 -0.6076614205
O  O5  1  0.34089000  0.44208000  0.89723000  1.0 -0.6076614205
O  O6  1  0.40720000  0.53513000  0.88235000  1.0 -0.6076614205
O  O7  1  0.02219000  0.93590000  0.65358000  1.0 -0.5810111049
O  O8  1  0.07349000  0.84156000  0.62816000  1.0 -0.6076614205
O  O9  1  0.47655000  0.43430000  0.91998000  1.0 -0.9386048127
O  O10  1  0.37134000  0.39781000  0.96504000  1.0 -0.892637204
O  O11  1  0.32539000  0.31050000  0.91443000  1.0 -0.5897150147
O  O12  1  0.26682000  0.30504000  0.96737000  1.0 -0.6076614205
O  O13  1  0.65911000  0.55792000  0.89723000  1.0 -0.6076614205
O  O14  1  0.59280000  0.46487000  0.88235000  1.0 -0.6076614205
O  O15  1  0.97781000  0.06410000  0.65358000  1.0 -0.5810111049
O  O16  1  0.92651000  0.15844000  0.62816000  1.0 -0.6045347039
O  O17  1  0.93430000  0.02345000  0.41998000  1.0 -0.9386048127
O  O18  1  0.89781000  0.12866000  0.46504000  1.0 -0.892637204
O  O19  1  0.81050000  0.17461000  0.41443000  1.0 -0.5897150147
O  O20  1  0.80504000  0.23318000  0.46737000  1.0 -0.6076614205
O  O21  1  0.05792000  0.84089000  0.39723000  1.0 -0.6076614205
O  O22  1  0.96487000  0.90720000  0.38235000  1.0 -0.6076614205
O  O23  1  0.56410000  0.52219000  0.15358000  1.0 -0.5810111049
O  O24  1  0.65844000  0.57349000  0.12816000  1.0 -0.6076614205
O  O25  1  0.06570000  0.97655000  0.41998000  1.0 -0.9386048127
O  O26  1  0.10219000  0.87134000  0.46504000  1.0 -0.892637204
O  O27  1  0.18950000  0.82539000  0.41443000  1.0 -0.5897150147
O  O28  1  0.19496000  0.76682000  0.46737000  1.0 -0.6076614205
O  O29  1  0.94208000  0.15911000  0.39723000  1.0 -0.6076614205
O  O30  1  0.03513000  0.09280000  0.38235000  1.0 -0.6076614205
O  O31  1  0.43590000  0.47781000  0.15358000  1.0 -0.5810111049
O  O32  1  0.34156000  0.42651000  0.12816000  1.0 -0.6076614205
O  O33  1  0.97655000  0.06570000  0.58002000  1.0 -0.9386048127
O  O34  1  0.87134000  0.10219000  0.53496000  1.0 -0.892637204
O  O35  1  0.82539000  0.18950000  0.58557000  1.0 -0.5897150147
O  O36  1  0.76682000  0.19496000  0.53263000  1.0 -0.6076614205
O  O37  1  0.15911000  0.94208000  0.60277000  1.0 -0.6076614205
O  O38  1  0.09280000  0.03513000  0.61765000  1.0 -0.6076614205
O  O39  1  0.47781000  0.43590000  0.84642000  1.0 -0.5810111049
O  O40  1  0.42651000  0.34156000  0.87184000  1.0 -0.6045347039
O  O41  1  0.02345000  0.93430000  0.58002000  1.0 -0.9386048127
O  O42  1  0.12866000  0.89781000  0.53496000  1.0 -0.892637204
O  O43  1  0.17461000  0.81050000  0.58557000  1.0 -0.5897150147
O  O44  1  0.23318000  0.80504000  0.53263000  1.0 -0.6076614205
O  O45  1  0.84089000  0.05792000  0.60277000  1.0 -0.6076614205
O  O46  1  0.90720000  0.96487000  0.61765000  1.0 -0.6076614205
O  O47  1  0.52219000  0.56410000  0.84642000  1.0 -0.5810111049
O  O48  1  0.57349000  0.65844000  0.87184000  1.0 -0.6076614205
O  O49  1  0.56570000  0.52345000  0.08002000  1.0 -0.9386048127
O  O50  1  0.60219000  0.62866000  0.03496000  1.0 -0.892637204
O  O51  1  0.68950000  0.67461000  0.08557000  1.0 -0.5897150147
O  O52  1  0.69496000  0.73318000  0.03263000  1.0 -0.6076614205
O  O53  1  0.44208000  0.34089000  0.10277000  1.0 -0.6076614205
O  O54  1  0.53513000  0.40720000  0.11765000  1.0 -0.6076614205
O  O55  1  0.93590000  0.02219000  0.34642000  1.0 -0.5810111049
O  O56  1  0.84156000  0.07349000  0.37184000  1.0 -0.6076614205
O  O57  1  0.43430000  0.47655000  0.08002000  1.0 -0.9386048127
O  O58  1  0.39781000  0.37134000  0.03496000  1.0 -0.892637204
O  O59  1  0.31050000  0.32539000  0.08557000  1.0 -0.5897150147
O  O60  1  0.30504000  0.26682000  0.03263000  1.0 -0.6076614205
O  O61  1  0.55792000  0.65911000  0.10277000  1.0 -0.6076614205
O  O62  1  0.46487000  0.59280000  0.11765000  1.0 -0.6076614205
O  O63  1  0.06410000  0.97781000  0.34642000  1.0 -0.5810111049
O  O64  1  0.15844000  0.92651000  0.37184000  1.0 -0.6076614205
O  O65  1  0.92800000  0.84100000  0.05610000  0.13 -0.0395536249
O  O66  1  0.92900000  0.80000000  0.06750000  0.13 -0.0395536249
O  O67  1  0.07200000  0.15900000  0.05610000  0.13 -0.0395536249
O  O68  1  0.07100000  0.20000000  0.06750000  0.13 -0.0395536249
O  O69  1  0.65900000  0.42800000  0.55610000  0.13 -0.0395536249
O  O70  1  0.70000000  0.42900000  0.56750000  0.13 -0.0395536249
O  O71  1  0.34100000  0.57200000  0.55610000  0.13 -0.0395536249
O  O72  1  0.30000000  0.57100000  0.56750000  0.13 -0.0395536249
O  O73  1  0.57200000  0.34100000  0.44390000  0.13 -0.0395536249
O  O74  1  0.57100000  0.30000000  0.43250000  0.13 -0.0395536249
O  O75  1  0.42800000  0.65900000  0.44390000  0.13 -0.0395536249
O  O76  1  0.42900000  0.70000000  0.43250000  0.13 -0.0395536249
O  O77  1  0.84100000  0.92800000  0.94390000  0.13 -0.0395536249
O  O78  1  0.80000000  0.92900000  0.93250000  0.13 -0.0395536249
O  O79  1  0.15900000  0.07200000  0.94390000  0.13 -0.0395536249
O  O80  1  0.20000000  0.07100000  0.93250000  0.13 -0.0395536249
O  O81  1  0.53831000  0.70237000  0.93581000  0.74 -0.0500140592
O  O82  1  0.59930000  0.73800000  0.98535000  0.74 -0.1082556197
O  O83  1  0.46169000  0.29763000  0.93581000  0.74 -0.0500140592
O  O84  1  0.40070000  0.26200000  0.98535000  0.74 -0.1082556197
O  O85  1  0.79763000  0.03831000  0.43581000  0.74 -0.0500140592
O  O86  1  0.76200000  0.09930000  0.48535000  0.74 -0.1082556197
O  O87  1  0.20237000  0.96169000  0.43581000  0.74 -0.0500140592
O  O88  1  0.23800000  0.90070000  0.48535000  0.74 -0.1082556197
O  O89  1  0.96169000  0.20237000  0.56419000  0.74 -0.0500140592
O  O90  1  0.90070000  0.23800000  0.51465000  0.74 -0.1082556197
O  O91  1  0.03831000  0.79763000  0.56419000  0.74 -0.0500140592
O  O92  1  0.09930000  0.76200000  0.51465000  0.74 -0.1082556197
O  O93  1  0.70237000  0.53831000  0.06419000  0.74 -0.0500140592
O  O94  1  0.73800000  0.59930000  0.01465000  0.74 -0.1082556197
O  O95  1  0.29763000  0.46169000  0.06419000  0.74 -0.0500140592
O  O96  1  0.26200000  0.40070000  0.01465000  0.74 -0.1082556197
