# DDEC6 charges by PACMAN v1.1 (https://github.com/mtap-research/PACMAN-charge/)
data_2024[Zn][crb]3[ASR]7
_chemical_formula_sum              "Zn16 H96 C96 N64"
_cell_length_a       9.63356
_cell_length_b       24.0923
_cell_length_c       24.4097
_cell_angle_alpha    90
_cell_angle_beta     90
_cell_angle_gamma    90

_symmetry_space_group_name_H-M    "P 1"
_symmetry_Int_Tables_number       1

loop_
  _symmetry_equiv_pos_as_xyz
  'x, y, z'

loop_
  _atom_site_type_symbol
  _atom_site_label
  _atom_site_symmetry_multiplicity
  _atom_site_fract_x
  _atom_site_fract_y
  _atom_site_fract_z
  _atom_site_occupancy
  _atom_site_charge
Zn  Zn1       1.0  0.01229  0.17442  0.50141  1.0000 0.6178659754
Zn  Zn2       1.0  0.51229  0.32558  0.49859  1.0000 0.6178659754
Zn  Zn3       1.0  0.98771  0.67442  0.99859  1.0000 0.6178659754
Zn  Zn4       1.0  0.48771  0.82558  0.00141  1.0000 0.6178659754
Zn  Zn5       1.0  0.98771  0.82558  0.49859  1.0000 0.6178659754
Zn  Zn6       1.0  0.48771  0.67442  0.50141  1.0000 0.6178659754
Zn  Zn7       1.0  0.01229  0.32558  0.00141  1.0000 0.6178659754
Zn  Zn8       1.0  0.51229  0.17442  0.99859  1.0000 0.6178659754
Zn  Zn9       1.0  0.00268  0.00175  0.32394  1.0000 0.6178659754
Zn  Zn10      1.0  0.50268  0.49825  0.67606  1.0000 0.6178659754
Zn  Zn11      1.0  0.99732  0.50175  0.17606  1.0000 0.6178659754
Zn  Zn12      1.0  0.49732  0.99825  0.82394  1.0000 0.6178659754
Zn  Zn13      1.0  0.99732  0.99825  0.67606  1.0000 0.6178659754
Zn  Zn14      1.0  0.49732  0.50175  0.32394  1.0000 0.6178659754
Zn  Zn15      1.0  0.00268  0.49825  0.82394  1.0000 0.6178659754
Zn  Zn16      1.0  0.50268  0.00175  0.17606  1.0000 0.6178659754
H   H1        1.0  0.75470  0.33730  0.40870  1.0000 0.1019879663
H   H2        1.0  0.25470  0.16270  0.59130  1.0000 0.1019879663
H   H3        1.0  0.24530  0.83730  0.09130  1.0000 0.1019879663
H   H4        1.0  0.74530  0.66270  0.90870  1.0000 0.1019879663
H   H5        1.0  0.24530  0.66270  0.59130  1.0000 0.1019879663
H   H6        1.0  0.74530  0.83730  0.40870  1.0000 0.1019879663
H   H7        1.0  0.75470  0.16270  0.90870  1.0000 0.1019879663
H   H8        1.0  0.25470  0.33730  0.09130  1.0000 0.1019879663
H   H9        1.0  0.48970  0.94570  0.29320  1.0000 0.1019879663
H   H10       1.0  0.98970  0.55430  0.70680  1.0000 0.1019879663
H   H11       1.0  0.51030  0.44570  0.20680  1.0000 0.1019879663
H   H12       1.0  0.01030  0.05430  0.79320  1.0000 0.1019879663
H   H13       1.0  0.51030  0.05430  0.70680  1.0000 0.1019879663
H   H14       1.0  0.01030  0.44570  0.29320  1.0000 0.1019879663
H   H15       1.0  0.48970  0.55430  0.79320  1.0000 0.1019879663
H   H16       1.0  0.98970  0.94570  0.20680  1.0000 0.1019879663
H   H17       1.0  0.96240  0.05180  0.44460  1.0000 0.0739376651
H   H18       1.0  0.46240  0.44820  0.55540  1.0000 0.0739376651
H   H19       1.0  0.03760  0.55180  0.05540  1.0000 0.0739376651
H   H20       1.0  0.53760  0.94820  0.94460  1.0000 0.0739376651
H   H21       1.0  0.03760  0.94820  0.55540  1.0000 0.0739376651
H   H22       1.0  0.53760  0.55180  0.44460  1.0000 0.0739376651
H   H23       1.0  0.96240  0.44820  0.94460  1.0000 0.0739376651
H   H24       1.0  0.46240  0.05180  0.05540  1.0000 0.0739376651
H   H25       1.0  0.20500  0.81930  0.39850  1.0000 0.1019879663
H   H26       1.0  0.70500  0.68070  0.60150  1.0000 0.1019879663
H   H27       1.0  0.79500  0.31930  0.10150  1.0000 0.1019879663
H   H28       1.0  0.29500  0.18070  0.89850  1.0000 0.1019879663
H   H29       1.0  0.79500  0.18070  0.60150  1.0000 0.1019879663
H   H30       1.0  0.29500  0.31930  0.39850  1.0000 0.1019879663
H   H31       1.0  0.20500  0.68070  0.89850  1.0000 0.1019879663
H   H32       1.0  0.70500  0.81930  0.10150  1.0000 0.1019879663
H   H33       1.0  0.14100  0.12110  0.30450  1.0000 0.1019879663
H   H34       1.0  0.64100  0.37890  0.69550  1.0000 0.1019879663
H   H35       1.0  0.85900  0.62110  0.19550  1.0000 0.1019879663
H   H36       1.0  0.35900  0.87890  0.80450  1.0000 0.1019879663
H   H37       1.0  0.85900  0.87890  0.69550  1.0000 0.1019879663
H   H38       1.0  0.35900  0.62110  0.30450  1.0000 0.1019879663
H   H39       1.0  0.14100  0.37890  0.80450  1.0000 0.1019879663
H   H40       1.0  0.64100  0.12110  0.19550  1.0000 0.1019879663
H   H41       1.0  0.14700  0.19750  0.38970  1.0000 0.0920689436
H   H42       1.0  0.64700  0.30250  0.61030  1.0000 0.0920689436
H   H43       1.0  0.85300  0.69750  0.11030  1.0000 0.0920689436
H   H44       1.0  0.35300  0.80250  0.88970  1.0000 0.0920689436
H   H45       1.0  0.85300  0.80250  0.61030  1.0000 0.0920689436
H   H46       1.0  0.35300  0.69750  0.38970  1.0000 0.0920689436
H   H47       1.0  0.14700  0.30250  0.88970  1.0000 0.0920689436
H   H48       1.0  0.64700  0.19750  0.11030  1.0000 0.0920689436
H   H49       1.0  0.91920  0.94190  0.43980  1.0000 0.0739376651
H   H50       1.0  0.41920  0.55810  0.56020  1.0000 0.0739376651
H   H51       1.0  0.08080  0.44190  0.06020  1.0000 0.0739376651
H   H52       1.0  0.58080  0.05810  0.93980  1.0000 0.0739376651
H   H53       1.0  0.08080  0.05810  0.56020  1.0000 0.0739376651
H   H54       1.0  0.58080  0.44190  0.43980  1.0000 0.0739376651
H   H55       1.0  0.91920  0.55810  0.93980  1.0000 0.0739376651
H   H56       1.0  0.41920  0.94190  0.06020  1.0000 0.0739376651
H   H57       1.0  0.19800  0.89710  0.31790  1.0000 0.1066445256
H   H58       1.0  0.69800  0.60290  0.68210  1.0000 0.1066445256
H   H59       1.0  0.80200  0.39710  0.18210  1.0000 0.1066445256
H   H60       1.0  0.30200  0.10290  0.81790  1.0000 0.1066445256
H   H61       1.0  0.80200  0.10290  0.68210  1.0000 0.1066445256
H   H62       1.0  0.30200  0.39710  0.31790  1.0000 0.1066445256
H   H63       1.0  0.19800  0.60290  0.81790  1.0000 0.1066445256
H   H64       1.0  0.69800  0.89710  0.18210  1.0000 0.1066445256
H   H65       1.0  0.71350  0.22570  0.53840  1.0000 0.049616936
H   H66       1.0  0.21350  0.27430  0.46160  1.0000 0.049616936
H   H67       1.0  0.28650  0.72570  0.96160  1.0000 0.049616936
H   H68       1.0  0.78650  0.77430  0.03840  1.0000 0.049616936
H   H69       1.0  0.28650  0.77430  0.46160  1.0000 0.049616936
H   H70       1.0  0.78650  0.72570  0.53840  1.0000 0.049616936
H   H71       1.0  0.71350  0.27430  0.03840  1.0000 0.049616936
H   H72       1.0  0.21350  0.22570  0.96160  1.0000 0.049616936
H   H73       1.0  0.98550  0.27040  0.41150  1.0000 0.0920689436
H   H74       1.0  0.48550  0.22960  0.58850  1.0000 0.0920689436
H   H75       1.0  0.01450  0.77040  0.08850  1.0000 0.0920689436
H   H76       1.0  0.51450  0.72960  0.91150  1.0000 0.0920689436
H   H77       1.0  0.01450  0.72960  0.58850  1.0000 0.0920689436
H   H78       1.0  0.51450  0.77040  0.41150  1.0000 0.0920689436
H   H79       1.0  0.98550  0.22960  0.91150  1.0000 0.0920689436
H   H80       1.0  0.48550  0.27040  0.08850  1.0000 0.0920689436
H   H81       1.0  0.71590  0.94890  0.36350  1.0000 0.1019879663
H   H82       1.0  0.21590  0.55110  0.63650  1.0000 0.1019879663
H   H83       1.0  0.28410  0.44890  0.13650  1.0000 0.1019879663
H   H84       1.0  0.78410  0.05110  0.86350  1.0000 0.1019879663
H   H85       1.0  0.28410  0.05110  0.63650  1.0000 0.1019879663
H   H86       1.0  0.78410  0.44890  0.36350  1.0000 0.1019879663
H   H87       1.0  0.71590  0.55110  0.86350  1.0000 0.1019879663
H   H88       1.0  0.21590  0.94890  0.13650  1.0000 0.1019879663
H   H89       1.0  0.80720  0.03770  0.22140  1.0000 0.0791005859
H   H90       1.0  0.30720  0.46230  0.77860  1.0000 0.0791005859
H   H91       1.0  0.19280  0.53770  0.27860  1.0000 0.0791005859
H   H92       1.0  0.69280  0.96230  0.72140  1.0000 0.0791005859
H   H93       1.0  0.19280  0.96230  0.77860  1.0000 0.0791005859
H   H94       1.0  0.69280  0.53770  0.22140  1.0000 0.0791005859
H   H95       1.0  0.80720  0.46230  0.72140  1.0000 0.0791005859
H   H96       1.0  0.30720  0.03770  0.27860  1.0000 0.0791005859
C   C1        1.0  0.78049  0.30481  0.43655  1.0000 -0.0616005348
C   C2        1.0  0.28049  0.19519  0.56345  1.0000 -0.0616005348
C   C3        1.0  0.21951  0.80481  0.06345  1.0000 -0.0616005348
C   C4        1.0  0.71951  0.69519  0.93655  1.0000 -0.0616005348
C   C5        1.0  0.21951  0.69519  0.56345  1.0000 -0.0616005348
C   C6        1.0  0.71951  0.80481  0.43655  1.0000 -0.0616005348
C   C7        1.0  0.78049  0.19519  0.93655  1.0000 -0.0616005348
C   C8        1.0  0.28049  0.30481  0.06345  1.0000 -0.0616005348
C   C9        1.0  0.58856  0.96600  0.28956  1.0000 -0.0699977377
C   C10       1.0  0.08856  0.53400  0.71044  1.0000 -0.0699977377
C   C11       1.0  0.41144  0.46600  0.21044  1.0000 -0.0699977377
C   C12       1.0  0.91144  0.03400  0.78956  1.0000 -0.0699977377
C   C13       1.0  0.41144  0.03400  0.71044  1.0000 -0.0699977377
C   C14       1.0  0.91144  0.46600  0.28956  1.0000 -0.0699977377
C   C15       1.0  0.58856  0.53400  0.78956  1.0000 -0.0699977377
C   C16       1.0  0.08856  0.96600  0.21044  1.0000 -0.0699977377
C   C17       1.0  0.01492  0.08043  0.41800  1.0000 0.131542779
C   C18       1.0  0.51492  0.41957  0.58200  1.0000 0.131542779
C   C19       1.0  0.98508  0.58043  0.08200  1.0000 0.131542779
C   C20       1.0  0.48508  0.91957  0.91800  1.0000 0.131542779
C   C21       1.0  0.98508  0.91957  0.58200  1.0000 0.131542779
C   C22       1.0  0.48508  0.58043  0.41800  1.0000 0.131542779
C   C23       1.0  0.01492  0.41957  0.91800  1.0000 0.131542779
C   C24       1.0  0.51492  0.08043  0.08200  1.0000 0.131542779
C   C25       1.0  0.14332  0.85561  0.39557  1.0000 -0.0699977377
C   C26       1.0  0.64332  0.64439  0.60443  1.0000 -0.0699977377
C   C27       1.0  0.85668  0.35561  0.10443  1.0000 -0.0699977377
C   C28       1.0  0.35668  0.14439  0.89557  1.0000 -0.0699977377
C   C29       1.0  0.85668  0.14439  0.60443  1.0000 -0.0699977377
C   C30       1.0  0.35668  0.35561  0.39557  1.0000 -0.0699977377
C   C31       1.0  0.14332  0.64439  0.89557  1.0000 -0.0699977377
C   C32       1.0  0.64332  0.85561  0.10443  1.0000 -0.0699977377
C   C33       1.0  0.10544  0.11765  0.34610  1.0000 -0.0699977377
C   C34       1.0  0.60544  0.38235  0.65390  1.0000 -0.0699977377
C   C35       1.0  0.89456  0.61765  0.15390  1.0000 -0.0699977377
C   C36       1.0  0.39456  0.88235  0.84610  1.0000 -0.0699977377
C   C37       1.0  0.89456  0.88235  0.65390  1.0000 -0.0699977377
C   C38       1.0  0.39456  0.61765  0.34610  1.0000 -0.0699977377
C   C39       1.0  0.10544  0.38235  0.84610  1.0000 -0.0699977377
C   C40       1.0  0.60544  0.11765  0.15390  1.0000 -0.0699977377
C   C41       1.0  0.10922  0.15531  0.38792  1.0000 -0.0616005348
C   C42       1.0  0.60922  0.34469  0.61208  1.0000 -0.0616005348
C   C43       1.0  0.89078  0.65531  0.11208  1.0000 -0.0616005348
C   C44       1.0  0.39078  0.84469  0.88792  1.0000 -0.0616005348
C   C45       1.0  0.89078  0.84469  0.61208  1.0000 -0.0616005348
C   C46       1.0  0.39078  0.65531  0.38792  1.0000 -0.0616005348
C   C47       1.0  0.10922  0.34469  0.88792  1.0000 -0.0616005348
C   C48       1.0  0.60922  0.15531  0.11208  1.0000 -0.0616005348
C   C49       1.0  0.99545  0.91857  0.41783  1.0000 0.1183585817
C   C50       1.0  0.49545  0.58143  0.58217  1.0000 0.1183585817
C   C51       1.0  0.00455  0.41857  0.08217  1.0000 0.1183585817
C   C52       1.0  0.50455  0.08143  0.91783  1.0000 0.1183585817
C   C53       1.0  0.00455  0.08143  0.58217  1.0000 0.1183585817
C   C54       1.0  0.50455  0.41857  0.41783  1.0000 0.1183585817
C   C55       1.0  0.99545  0.58143  0.91783  1.0000 0.1183585817
C   C56       1.0  0.49545  0.91857  0.08217  1.0000 0.1183585817
C   C57       1.0  0.14190  0.89520  0.35535  1.0000 -0.0616005348
C   C58       1.0  0.64190  0.60480  0.64465  1.0000 -0.0616005348
C   C59       1.0  0.85810  0.39520  0.14465  1.0000 -0.0616005348
C   C60       1.0  0.35810  0.10480  0.85535  1.0000 -0.0616005348
C   C61       1.0  0.85810  0.10480  0.64465  1.0000 -0.0616005348
C   C62       1.0  0.35810  0.39520  0.35535  1.0000 -0.0616005348
C   C63       1.0  0.14190  0.60480  0.85535  1.0000 -0.0616005348
C   C64       1.0  0.64190  0.89520  0.14465  1.0000 -0.0616005348
C   C65       1.0  0.75587  0.24740  0.50264  1.0000 0.1456355671
C   C66       1.0  0.25587  0.25260  0.49736  1.0000 0.1456355671
C   C67       1.0  0.24413  0.74740  0.99736  1.0000 0.1456355671
C   C68       1.0  0.74413  0.75260  0.00264  1.0000 0.1456355671
C   C69       1.0  0.24413  0.75260  0.49736  1.0000 0.1456355671
C   C70       1.0  0.74413  0.74740  0.50264  1.0000 0.1456355671
C   C71       1.0  0.75587  0.25260  0.00264  1.0000 0.1456355671
C   C72       1.0  0.25587  0.24740  0.99736  1.0000 0.1456355671
C   C73       1.0  0.89493  0.27102  0.43823  1.0000 -0.0616005348
C   C74       1.0  0.39493  0.22898  0.56177  1.0000 -0.0616005348
C   C75       1.0  0.10507  0.77102  0.06177  1.0000 -0.0616005348
C   C76       1.0  0.60507  0.72898  0.93823  1.0000 -0.0616005348
C   C77       1.0  0.10507  0.72898  0.56177  1.0000 -0.0616005348
C   C78       1.0  0.60507  0.77102  0.43823  1.0000 -0.0616005348
C   C79       1.0  0.89493  0.22898  0.93823  1.0000 -0.0616005348
C   C80       1.0  0.39493  0.27102  0.06177  1.0000 -0.0616005348
C   C81       1.0  0.70157  0.96610  0.32350  1.0000 -0.0699977377
C   C82       1.0  0.20157  0.53390  0.67650  1.0000 -0.0699977377
C   C83       1.0  0.29843  0.46610  0.17650  1.0000 -0.0699977377
C   C84       1.0  0.79843  0.03390  0.82350  1.0000 -0.0699977377
C   C85       1.0  0.29843  0.03390  0.67650  1.0000 -0.0699977377
C   C86       1.0  0.79843  0.46610  0.32350  1.0000 -0.0699977377
C   C87       1.0  0.70157  0.53390  0.82350  1.0000 -0.0699977377
C   C88       1.0  0.20157  0.96610  0.17650  1.0000 -0.0699977377
C   C89       1.0  0.75241  0.01236  0.25078  1.0000 0.131542779
C   C90       1.0  0.25241  0.48764  0.74922  1.0000 0.131542779
C   C91       1.0  0.24759  0.51236  0.24922  1.0000 0.131542779
C   C92       1.0  0.74759  0.98764  0.75078  1.0000 0.131542779
C   C93       1.0  0.24759  0.98764  0.74922  1.0000 0.131542779
C   C94       1.0  0.74759  0.51236  0.25078  1.0000 0.131542779
C   C95       1.0  0.75241  0.48764  0.75078  1.0000 0.131542779
C   C96       1.0  0.25241  0.01236  0.24922  1.0000 0.131542779
N   N1        1.0  0.04544  0.06988  0.36559  1.0000 -0.2986957213
N   N2        1.0  0.54544  0.43012  0.63441  1.0000 -0.2986957213
N   N3        1.0  0.95456  0.56988  0.13441  1.0000 -0.2986957213
N   N4        1.0  0.45456  0.93012  0.86559  1.0000 -0.2986957213
N   N5        1.0  0.95456  0.93012  0.63441  1.0000 -0.2986957213
N   N6        1.0  0.45456  0.56988  0.36559  1.0000 -0.2986957213
N   N7        1.0  0.04544  0.43012  0.86559  1.0000 -0.2986957213
N   N8        1.0  0.54544  0.06988  0.13441  1.0000 -0.2986957213
N   N9        1.0  0.87856  0.23458  0.48073  1.0000 -0.2878625632
N   N10       1.0  0.37856  0.26542  0.51927  1.0000 -0.2878625632
N   N11       1.0  0.12144  0.73458  0.01927  1.0000 -0.2878625632
N   N12       1.0  0.62144  0.76542  0.98073  1.0000 -0.2878625632
N   N13       1.0  0.12144  0.76542  0.51927  1.0000 -0.2878625632
N   N14       1.0  0.62144  0.73458  0.48073  1.0000 -0.2878625632
N   N15       1.0  0.87856  0.26542  0.98073  1.0000 -0.2878625632
N   N16       1.0  0.37856  0.23458  0.01927  1.0000 -0.2878625632
N   N17       1.0  0.69240  0.28967  0.47778  1.0000 -0.2878625632
N   N18       1.0  0.19240  0.21033  0.52222  1.0000 -0.2878625632
N   N19       1.0  0.30760  0.78967  0.02222  1.0000 -0.2878625632
N   N20       1.0  0.80760  0.71033  0.97778  1.0000 -0.2878625632
N   N21       1.0  0.30760  0.71033  0.52222  1.0000 -0.2878625632
N   N22       1.0  0.80760  0.78967  0.47778  1.0000 -0.2878625632
N   N23       1.0  0.69240  0.21033  0.97778  1.0000 -0.2878625632
N   N24       1.0  0.19240  0.28967  0.02222  1.0000 -0.2878625632
N   N25       1.0  0.04721  0.93513  0.36967  1.0000 -0.2878625632
N   N26       1.0  0.54721  0.56487  0.63033  1.0000 -0.2878625632
N   N27       1.0  0.95279  0.43513  0.13033  1.0000 -0.2878625632
N   N28       1.0  0.45279  0.06487  0.86967  1.0000 -0.2878625632
N   N29       1.0  0.95279  0.06487  0.63033  1.0000 -0.2878625632
N   N30       1.0  0.45279  0.43513  0.36967  1.0000 -0.2878625632
N   N31       1.0  0.04721  0.56487  0.86967  1.0000 -0.2878625632
N   N32       1.0  0.54721  0.93513  0.13033  1.0000 -0.2878625632
N   N33       1.0  0.05134  0.13151  0.43336  1.0000 -0.2878625632
N   N34       1.0  0.55134  0.36849  0.56664  1.0000 -0.2878625632
N   N35       1.0  0.94866  0.63151  0.06664  1.0000 -0.2878625632
N   N36       1.0  0.44866  0.86849  0.93336  1.0000 -0.2878625632
N   N37       1.0  0.94866  0.86849  0.56664  1.0000 -0.2878625632
N   N38       1.0  0.44866  0.63151  0.43336  1.0000 -0.2878625632
N   N39       1.0  0.05134  0.36849  0.93336  1.0000 -0.2878625632
N   N40       1.0  0.55134  0.13151  0.06664  1.0000 -0.2878625632
N   N41       1.0  0.04936  0.87054  0.43519  1.0000 -0.2878625632
N   N42       1.0  0.54936  0.62946  0.56481  1.0000 -0.2878625632
N   N43       1.0  0.95064  0.37054  0.06481  1.0000 -0.2878625632
N   N44       1.0  0.45064  0.12946  0.93519  1.0000 -0.2878625632
N   N45       1.0  0.95064  0.12946  0.56481  1.0000 -0.2878625632
N   N46       1.0  0.45064  0.37054  0.43519  1.0000 -0.2878625632
N   N47       1.0  0.04936  0.62946  0.93519  1.0000 -0.2878625632
N   N48       1.0  0.54936  0.87054  0.06481  1.0000 -0.2878625632
N   N49       1.0  0.12161  0.99573  0.25682  1.0000 -0.2878625632
N   N50       1.0  0.62161  0.50427  0.74318  1.0000 -0.2878625632
N   N51       1.0  0.87839  0.49573  0.24318  1.0000 -0.2878625632
N   N52       1.0  0.37839  0.00427  0.75682  1.0000 -0.2878625632
N   N53       1.0  0.87839  0.00427  0.74318  1.0000 -0.2878625632
N   N54       1.0  0.37839  0.49573  0.25682  1.0000 -0.2878625632
N   N55       1.0  0.12161  0.50427  0.75682  1.0000 -0.2878625632
N   N56       1.0  0.62161  0.99573  0.24318  1.0000 -0.2878625632
N   N57       1.0  0.80583  0.99557  0.29854  1.0000 -0.2878625632
N   N58       1.0  0.30583  0.50443  0.70146  1.0000 -0.2878625632
N   N59       1.0  0.19417  0.49557  0.20146  1.0000 -0.2878625632
N   N60       1.0  0.69417  0.00443  0.79854  1.0000 -0.2878625632
N   N61       1.0  0.19417  0.00443  0.70146  1.0000 -0.2878625632
N   N62       1.0  0.69417  0.49557  0.29854  1.0000 -0.2878625632
N   N63       1.0  0.80583  0.50443  0.79854  1.0000 -0.2878625632
N   N64       1.0  0.30583  0.99557  0.20146  1.0000 -0.2878625632
