# DDEC6 charges by PACMAN v1.1 (https://github.com/mtap-research/PACMAN-charge/)
data_cg100226u_si_004_ion_pacman
_symmetry_space_group_name_H-M   'P 1'
_cell_length_a   31.51080000
_cell_length_b   31.51080000
_cell_length_c   31.51080000
_cell_angle_alpha   90.00000000
_cell_angle_beta   90.00000000
_cell_angle_gamma   90.00000000
_symmetry_Int_Tables_number   1
_chemical_formula_structural   ZnH30C38N16(ClO4)2
_chemical_formula_sum   'Zn24 H720 C912 N384 Cl48 O192'
_cell_volume   31288.03492374
_cell_formula_units_Z   24
loop_
 _symmetry_equiv_pos_site_id
 _symmetry_equiv_pos_as_xyz
  1  'x, y, z'
loop_
 _atom_site_type_symbol
 _atom_site_label
 _atom_site_symmetry_multiplicity
 _atom_site_fract_x
 _atom_site_fract_y
 _atom_site_fract_z
 _atom_site_occupancy
 _atom_site_charge
Zn  Zn1  1  0.00000000  0.75000000  0.12500000  1.0 0.6745364808
Zn  Zn2  1  0.50000000  0.25000000  0.62500000  1.0 0.6745364808
Zn  Zn3  1  0.00000000  0.25000000  0.37500000  1.0 0.6745364808
Zn  Zn4  1  0.50000000  0.75000000  0.87500000  1.0 0.6745364808
Zn  Zn5  1  0.12500000  0.00000000  0.75000000  1.0 0.6745364808
Zn  Zn6  1  0.62500000  0.50000000  0.25000000  1.0 0.6745364808
Zn  Zn7  1  0.37500000  0.00000000  0.25000000  1.0 0.6745364808
Zn  Zn8  1  0.87500000  0.50000000  0.75000000  1.0 0.6745364808
Zn  Zn9  1  0.75000000  0.12500000  0.00000000  1.0 0.6745364808
Zn  Zn10  1  0.25000000  0.62500000  0.50000000  1.0 0.6745364808
Zn  Zn11  1  0.25000000  0.37500000  0.00000000  1.0 0.6745364808
Zn  Zn12  1  0.75000000  0.87500000  0.50000000  1.0 0.6745364808
Zn  Zn13  1  0.50000000  0.25000000  0.12500000  1.0 0.6745364808
Zn  Zn14  1  0.00000000  0.75000000  0.62500000  1.0 0.6745364808
Zn  Zn15  1  0.00000000  0.25000000  0.87500000  1.0 0.6745364808
Zn  Zn16  1  0.50000000  0.75000000  0.37500000  1.0 0.6753233921
Zn  Zn17  1  0.75000000  0.37500000  0.50000000  1.0 0.6753233921
Zn  Zn18  1  0.25000000  0.87500000  0.00000000  1.0 0.6745364808
Zn  Zn19  1  0.75000000  0.62500000  0.00000000  1.0 0.6745364808
Zn  Zn20  1  0.25000000  0.12500000  0.50000000  1.0 0.6745364808
Zn  Zn21  1  0.87500000  0.00000000  0.25000000  1.0 0.6745364808
Zn  Zn22  1  0.37500000  0.50000000  0.75000000  1.0 0.6745364808
Zn  Zn23  1  0.12500000  0.50000000  0.25000000  1.0 0.6745364808
Zn  Zn24  1  0.62500000  0.00000000  0.75000000  1.0 0.6745364808
H  H1  1  0.14930000  0.71510000  0.08100000  1.0 0.1303306335
H  H2  1  0.35070000  0.28490000  0.58100000  1.0 0.1303306335
H  H3  1  0.85070000  0.21510000  0.41900000  1.0 0.1303306335
H  H4  1  0.64930000  0.78490000  0.91900000  1.0 0.1303306335
H  H5  1  0.08100000  0.14930000  0.71510000  1.0 0.1303306335
H  H6  1  0.58100000  0.35070000  0.28490000  1.0 0.1303306335
H  H7  1  0.41900000  0.85070000  0.21510000  1.0 0.1303306335
H  H8  1  0.91900000  0.64930000  0.78490000  1.0 0.1303306335
H  H9  1  0.71510000  0.08100000  0.14930000  1.0 0.1303306335
H  H10  1  0.28490000  0.58100000  0.35070000  1.0 0.1303306335
H  H11  1  0.21510000  0.41900000  0.85070000  1.0 0.1303306335
H  H12  1  0.78490000  0.91900000  0.64930000  1.0 0.1303306335
H  H13  1  0.46510000  0.39930000  0.16900000  1.0 0.1303306335
H  H14  1  0.03490000  0.60070000  0.66900000  1.0 0.1303306335
H  H15  1  0.96510000  0.10070000  0.83100000  1.0 0.1303306335
H  H16  1  0.53490000  0.89930000  0.33100000  1.0 0.1303306335
H  H17  1  0.89930000  0.33100000  0.53490000  1.0 0.1303306335
H  H18  1  0.10070000  0.83100000  0.96510000  1.0 0.1303306335
H  H19  1  0.60070000  0.66900000  0.03490000  1.0 0.1303306335
H  H20  1  0.39930000  0.16900000  0.46510000  1.0 0.1303306335
H  H21  1  0.83100000  0.96510000  0.10070000  1.0 0.1303306335
H  H22  1  0.33100000  0.53490000  0.89930000  1.0 0.1303306335
H  H23  1  0.16900000  0.46510000  0.39930000  1.0 0.1303306335
H  H24  1  0.66900000  0.03490000  0.60070000  1.0 0.1303306335
H  H25  1  0.64930000  0.21510000  0.58100000  1.0 0.1303306335
H  H26  1  0.85070000  0.78490000  0.08100000  1.0 0.1303306335
H  H27  1  0.35070000  0.71510000  0.91900000  1.0 0.1303306335
H  H28  1  0.14930000  0.28490000  0.41900000  1.0 0.1303306335
H  H29  1  0.58100000  0.64930000  0.21510000  1.0 0.1303306335
H  H30  1  0.08100000  0.85070000  0.78490000  1.0 0.1303306335
H  H31  1  0.91900000  0.35070000  0.71510000  1.0 0.1303306335
H  H32  1  0.41900000  0.14930000  0.28490000  1.0 0.1303306335
H  H33  1  0.21510000  0.58100000  0.64930000  1.0 0.1303306335
H  H34  1  0.78490000  0.08100000  0.85070000  1.0 0.1303306335
H  H35  1  0.71510000  0.91900000  0.35070000  1.0 0.1303306335
H  H36  1  0.28490000  0.41900000  0.14930000  1.0 0.1303306335
H  H37  1  0.96510000  0.89930000  0.66900000  1.0 0.1303306335
H  H38  1  0.53490000  0.10070000  0.16900000  1.0 0.1303306335
H  H39  1  0.46510000  0.60070000  0.33100000  1.0 0.1303306335
H  H40  1  0.03490000  0.39930000  0.83100000  1.0 0.1303306335
H  H41  1  0.39930000  0.83100000  0.03490000  1.0 0.1303306335
H  H42  1  0.60070000  0.33100000  0.46510000  1.0 0.1303306335
H  H43  1  0.10070000  0.16900000  0.53490000  1.0 0.1303306335
H  H44  1  0.89930000  0.66900000  0.96510000  1.0 0.1303306335
H  H45  1  0.33100000  0.46510000  0.60070000  1.0 0.1303306335
H  H46  1  0.83100000  0.03490000  0.39930000  1.0 0.1303306335
H  H47  1  0.66900000  0.96510000  0.89930000  1.0 0.1303306335
H  H48  1  0.16900000  0.53490000  0.10070000  1.0 0.1303306335
H  H49  1  0.85070000  0.28490000  0.91900000  1.0 0.1303306335
H  H50  1  0.64930000  0.71510000  0.41900000  1.0 0.1303306335
H  H51  1  0.14930000  0.78490000  0.58100000  1.0 0.1303306335
H  H52  1  0.35070000  0.21510000  0.08100000  1.0 0.1303306335
H  H53  1  0.91900000  0.85070000  0.28490000  1.0 0.1303306335
H  H54  1  0.41900000  0.64930000  0.71510000  1.0 0.1303306335
H  H55  1  0.58100000  0.14930000  0.78490000  1.0 0.1303306335
H  H56  1  0.08100000  0.35070000  0.21510000  1.0 0.1303306335
H  H57  1  0.28490000  0.91900000  0.85070000  1.0 0.1303306335
H  H58  1  0.71510000  0.41900000  0.64930000  1.0 0.1303306335
H  H59  1  0.78490000  0.58100000  0.14930000  1.0 0.1303306335
H  H60  1  0.21510000  0.08100000  0.35070000  1.0 0.1303306335
H  H61  1  0.53490000  0.60070000  0.83100000  1.0 0.1303306335
H  H62  1  0.96510000  0.39930000  0.33100000  1.0 0.1303306335
H  H63  1  0.03490000  0.89930000  0.16900000  1.0 0.1303306335
H  H64  1  0.46510000  0.10070000  0.66900000  1.0 0.1303306335
H  H65  1  0.10070000  0.66900000  0.46510000  1.0 0.1303306335
H  H66  1  0.89930000  0.16900000  0.03490000  1.0 0.1303306335
H  H67  1  0.39930000  0.33100000  0.96510000  1.0 0.1303306335
H  H68  1  0.60070000  0.83100000  0.53490000  1.0 0.1303306335
H  H69  1  0.16900000  0.03490000  0.89930000  1.0 0.1303306335
H  H70  1  0.66900000  0.46510000  0.10070000  1.0 0.1303306335
H  H71  1  0.83100000  0.53490000  0.60070000  1.0 0.1303306335
H  H72  1  0.33100000  0.96510000  0.39930000  1.0 0.1303306335
H  H73  1  0.35070000  0.78490000  0.41900000  1.0 0.1303306335
H  H74  1  0.14930000  0.21510000  0.91900000  1.0 0.1303306335
H  H75  1  0.64930000  0.28490000  0.08100000  1.0 0.1303306335
H  H76  1  0.85070000  0.71510000  0.58100000  1.0 0.1303306335
H  H77  1  0.41900000  0.35070000  0.78490000  1.0 0.1303306335
H  H78  1  0.91900000  0.14930000  0.21510000  1.0 0.1303306335
H  H79  1  0.08100000  0.64930000  0.28490000  1.0 0.1303306335
H  H80  1  0.58100000  0.85070000  0.71510000  1.0 0.1303306335
H  H81  1  0.78490000  0.41900000  0.35070000  1.0 0.1303306335
H  H82  1  0.21510000  0.91900000  0.14930000  1.0 0.1303306335
H  H83  1  0.28490000  0.08100000  0.64930000  1.0 0.1303306335
H  H84  1  0.71510000  0.58100000  0.85070000  1.0 0.1303306335
H  H85  1  0.03490000  0.10070000  0.33100000  1.0 0.1303306335
H  H86  1  0.46510000  0.89930000  0.83100000  1.0 0.1303306335
H  H87  1  0.53490000  0.39930000  0.66900000  1.0 0.1303306335
H  H88  1  0.96510000  0.60070000  0.16900000  1.0 0.1303306335
H  H89  1  0.60070000  0.16900000  0.96510000  1.0 0.1303306335
H  H90  1  0.39930000  0.66900000  0.53490000  1.0 0.1303306335
H  H91  1  0.89930000  0.83100000  0.46510000  1.0 0.1303306335
H  H92  1  0.10070000  0.33100000  0.03490000  1.0 0.1303306335
H  H93  1  0.66900000  0.53490000  0.39930000  1.0 0.1303306335
H  H94  1  0.16900000  0.96510000  0.60070000  1.0 0.1303306335
H  H95  1  0.33100000  0.03490000  0.10070000  1.0 0.1303306335
H  H96  1  0.83100000  0.46510000  0.89930000  1.0 0.1303306335
H  H97  1  0.09500000  0.71870000  0.13750000  1.0 0.1303306335
H  H98  1  0.40500000  0.28130000  0.63750000  1.0 0.1303306335
H  H99  1  0.90500000  0.21870000  0.36250000  1.0 0.1303306335
H  H100  1  0.59500000  0.78130000  0.86250000  1.0 0.1303306335
H  H101  1  0.13750000  0.09500000  0.71870000  1.0 0.1303306335
H  H102  1  0.63750000  0.40500000  0.28130000  1.0 0.1303306335
H  H103  1  0.36250000  0.90500000  0.21870000  1.0 0.1303306335
H  H104  1  0.86250000  0.59500000  0.78130000  1.0 0.1303306335
H  H105  1  0.71870000  0.13750000  0.09500000  1.0 0.1303306335
H  H106  1  0.28130000  0.63750000  0.40500000  1.0 0.1303306335
H  H107  1  0.21870000  0.36250000  0.90500000  1.0 0.1303306335
H  H108  1  0.78130000  0.86250000  0.59500000  1.0 0.1303306335
H  H109  1  0.46870000  0.34500000  0.11250000  1.0 0.1303306335
H  H110  1  0.03130000  0.65500000  0.61250000  1.0 0.1303306335
H  H111  1  0.96870000  0.15500000  0.88750000  1.0 0.1303306335
H  H112  1  0.53130000  0.84500000  0.38750000  1.0 0.1303306335
H  H113  1  0.84500000  0.38750000  0.53130000  1.0 0.1303306335
H  H114  1  0.15500000  0.88750000  0.96870000  1.0 0.1303306335
H  H115  1  0.65500000  0.61250000  0.03130000  1.0 0.1303306335
H  H116  1  0.34500000  0.11250000  0.46870000  1.0 0.1303306335
H  H117  1  0.88750000  0.96870000  0.15500000  1.0 0.1303306335
H  H118  1  0.38750000  0.53130000  0.84500000  1.0 0.1303306335
H  H119  1  0.11250000  0.46870000  0.34500000  1.0 0.1303306335
H  H120  1  0.61250000  0.03130000  0.65500000  1.0 0.1303306335
H  H121  1  0.59500000  0.21870000  0.63750000  1.0 0.1303306335
H  H122  1  0.90500000  0.78130000  0.13750000  1.0 0.1303306335
H  H123  1  0.40500000  0.71870000  0.86250000  1.0 0.1303306335
H  H124  1  0.09500000  0.28130000  0.36250000  1.0 0.1303306335
H  H125  1  0.63750000  0.59500000  0.21870000  1.0 0.1303306335
H  H126  1  0.13750000  0.90500000  0.78130000  1.0 0.1303306335
H  H127  1  0.86250000  0.40500000  0.71870000  1.0 0.1303306335
H  H128  1  0.36250000  0.09500000  0.28130000  1.0 0.1303306335
H  H129  1  0.21870000  0.63750000  0.59500000  1.0 0.1303306335
H  H130  1  0.78130000  0.13750000  0.90500000  1.0 0.1303306335
H  H131  1  0.71870000  0.86250000  0.40500000  1.0 0.1303306335
H  H132  1  0.28130000  0.36250000  0.09500000  1.0 0.1303306335
H  H133  1  0.96870000  0.84500000  0.61250000  1.0 0.1303306335
H  H134  1  0.53130000  0.15500000  0.11250000  1.0 0.1303306335
H  H135  1  0.46870000  0.65500000  0.38750000  1.0 0.1303306335
H  H136  1  0.03130000  0.34500000  0.88750000  1.0 0.1303306335
H  H137  1  0.34500000  0.88750000  0.03130000  1.0 0.1303306335
H  H138  1  0.65500000  0.38750000  0.46870000  1.0 0.1303306335
H  H139  1  0.15500000  0.11250000  0.53130000  1.0 0.1303306335
H  H140  1  0.84500000  0.61250000  0.96870000  1.0 0.1303306335
H  H141  1  0.38750000  0.46870000  0.65500000  1.0 0.1303306335
H  H142  1  0.88750000  0.03130000  0.34500000  1.0 0.1303306335
H  H143  1  0.61250000  0.96870000  0.84500000  1.0 0.1303306335
H  H144  1  0.11250000  0.53130000  0.15500000  1.0 0.1303306335
H  H145  1  0.90500000  0.28130000  0.86250000  1.0 0.1303306335
H  H146  1  0.59500000  0.71870000  0.36250000  1.0 0.1303306335
H  H147  1  0.09500000  0.78130000  0.63750000  1.0 0.1303306335
H  H148  1  0.40500000  0.21870000  0.13750000  1.0 0.1303306335
H  H149  1  0.86250000  0.90500000  0.28130000  1.0 0.1303306335
H  H150  1  0.36250000  0.59500000  0.71870000  1.0 0.1303306335
H  H151  1  0.63750000  0.09500000  0.78130000  1.0 0.1303306335
H  H152  1  0.13750000  0.40500000  0.21870000  1.0 0.1303306335
H  H153  1  0.28130000  0.86250000  0.90500000  1.0 0.1303306335
H  H154  1  0.71870000  0.36250000  0.59500000  1.0 0.1303306335
H  H155  1  0.78130000  0.63750000  0.09500000  1.0 0.1303306335
H  H156  1  0.21870000  0.13750000  0.40500000  1.0 0.1303306335
H  H157  1  0.53130000  0.65500000  0.88750000  1.0 0.1303306335
H  H158  1  0.96870000  0.34500000  0.38750000  1.0 0.1303306335
H  H159  1  0.03130000  0.84500000  0.11250000  1.0 0.1303306335
H  H160  1  0.46870000  0.15500000  0.61250000  1.0 0.1303306335
H  H161  1  0.15500000  0.61250000  0.46870000  1.0 0.1303306335
H  H162  1  0.84500000  0.11250000  0.03130000  1.0 0.1303306335
H  H163  1  0.34500000  0.38750000  0.96870000  1.0 0.1303306335
H  H164  1  0.65500000  0.88750000  0.53130000  1.0 0.1303306335
H  H165  1  0.11250000  0.03130000  0.84500000  1.0 0.1303306335
H  H166  1  0.61250000  0.46870000  0.15500000  1.0 0.1303306335
H  H167  1  0.88750000  0.53130000  0.65500000  1.0 0.1303306335
H  H168  1  0.38750000  0.96870000  0.34500000  1.0 0.1303306335
H  H169  1  0.40500000  0.78130000  0.36250000  1.0 0.1303306335
H  H170  1  0.09500000  0.21870000  0.86250000  1.0 0.1303306335
H  H171  1  0.59500000  0.28130000  0.13750000  1.0 0.1303306335
H  H172  1  0.90500000  0.71870000  0.63750000  1.0 0.1303306335
H  H173  1  0.36250000  0.40500000  0.78130000  1.0 0.1303306335
H  H174  1  0.86250000  0.09500000  0.21870000  1.0 0.1303306335
H  H175  1  0.13750000  0.59500000  0.28130000  1.0 0.1303306335
H  H176  1  0.63750000  0.90500000  0.71870000  1.0 0.1303306335
H  H177  1  0.78130000  0.36250000  0.40500000  1.0 0.1303306335
H  H178  1  0.21870000  0.86250000  0.09500000  1.0 0.1303306335
H  H179  1  0.28130000  0.13750000  0.59500000  1.0 0.1303306335
H  H180  1  0.71870000  0.63750000  0.90500000  1.0 0.1303306335
H  H181  1  0.03130000  0.15500000  0.38750000  1.0 0.1303306335
H  H182  1  0.46870000  0.84500000  0.88750000  1.0 0.1303306335
H  H183  1  0.53130000  0.34500000  0.61250000  1.0 0.1303306335
H  H184  1  0.96870000  0.65500000  0.11250000  1.0 0.1303306335
H  H185  1  0.65500000  0.11250000  0.96870000  1.0 0.1303306335
H  H186  1  0.34500000  0.61250000  0.53130000  1.0 0.1303306335
H  H187  1  0.84500000  0.88750000  0.46870000  1.0 0.1303306335
H  H188  1  0.15500000  0.38750000  0.03130000  1.0 0.1303306335
H  H189  1  0.61250000  0.53130000  0.34500000  1.0 0.1303306335
H  H190  1  0.11250000  0.96870000  0.65500000  1.0 0.1303306335
H  H191  1  0.38750000  0.03130000  0.15500000  1.0 0.1303306335
H  H192  1  0.88750000  0.46870000  0.84500000  1.0 0.1303306335
H  H193  1  0.00730000  0.79220000  0.95590000  1.0 0.1200538518
H  H194  1  0.49270000  0.20780000  0.45590000  1.0 0.1200538518
H  H195  1  0.99270000  0.29220000  0.54410000  1.0 0.1200538518
H  H196  1  0.50730000  0.70780000  0.04410000  1.0 0.1200538518
H  H197  1  0.95590000  0.00730000  0.79220000  1.0 0.1200538518
H  H198  1  0.45590000  0.49270000  0.20780000  1.0 0.1200538518
H  H199  1  0.54410000  0.99270000  0.29220000  1.0 0.1200538518
H  H200  1  0.04410000  0.50730000  0.70780000  1.0 0.1200538518
H  H201  1  0.79220000  0.95590000  0.00730000  1.0 0.1200538518
H  H202  1  0.20780000  0.45590000  0.49270000  1.0 0.1200538518
H  H203  1  0.29220000  0.54410000  0.99270000  1.0 0.1200538518
H  H204  1  0.70780000  0.04410000  0.50730000  1.0 0.1200538518
H  H205  1  0.54220000  0.25730000  0.29410000  1.0 0.1200538518
H  H206  1  0.95780000  0.74270000  0.79410000  1.0 0.1200538518
H  H207  1  0.04220000  0.24270000  0.70590000  1.0 0.1200538518
H  H208  1  0.45780000  0.75730000  0.20590000  1.0 0.1200538518
H  H209  1  0.75730000  0.20590000  0.45780000  1.0 0.1200538518
H  H210  1  0.24270000  0.70590000  0.04220000  1.0 0.1200538518
H  H211  1  0.74270000  0.79410000  0.95780000  1.0 0.1200538518
H  H212  1  0.25730000  0.29410000  0.54220000  1.0 0.1200538518
H  H213  1  0.70590000  0.04220000  0.24270000  1.0 0.1200538518
H  H214  1  0.20590000  0.45780000  0.75730000  1.0 0.1200538518
H  H215  1  0.29410000  0.54220000  0.25730000  1.0 0.1200538518
H  H216  1  0.79410000  0.95780000  0.74270000  1.0 0.1200538518
H  H217  1  0.50730000  0.29220000  0.45590000  1.0 0.1200538518
H  H218  1  0.99270000  0.70780000  0.95590000  1.0 0.1200538518
H  H219  1  0.49270000  0.79220000  0.04410000  1.0 0.1200538518
H  H220  1  0.00730000  0.20780000  0.54410000  1.0 0.1200538518
H  H221  1  0.45590000  0.50730000  0.29220000  1.0 0.1200538518
H  H222  1  0.95590000  0.99270000  0.70780000  1.0 0.1200538518
H  H223  1  0.04410000  0.49270000  0.79220000  1.0 0.1200538518
H  H224  1  0.54410000  0.00730000  0.20780000  1.0 0.1200538518
H  H225  1  0.29220000  0.45590000  0.50730000  1.0 0.1200538518
H  H226  1  0.70780000  0.95590000  0.99270000  1.0 0.1200538518
H  H227  1  0.79220000  0.04410000  0.49270000  1.0 0.1200538518
H  H228  1  0.20780000  0.54410000  0.00730000  1.0 0.1200538518
H  H229  1  0.04220000  0.75730000  0.79410000  1.0 0.1200538518
H  H230  1  0.45780000  0.24270000  0.29410000  1.0 0.1200538518
H  H231  1  0.54220000  0.74270000  0.20590000  1.0 0.1200538518
H  H232  1  0.95780000  0.25730000  0.70590000  1.0 0.1200538518
H  H233  1  0.25730000  0.70590000  0.95780000  1.0 0.1200538518
H  H234  1  0.74270000  0.20590000  0.54220000  1.0 0.1200538518
H  H235  1  0.24270000  0.29410000  0.45780000  1.0 0.1200538518
H  H236  1  0.75730000  0.79410000  0.04220000  1.0 0.1200538518
H  H237  1  0.20590000  0.54220000  0.74270000  1.0 0.1200538518
H  H238  1  0.70590000  0.95780000  0.25730000  1.0 0.1200538518
H  H239  1  0.79410000  0.04220000  0.75730000  1.0 0.1200538518
H  H240  1  0.29410000  0.45780000  0.24270000  1.0 0.1200538518
H  H241  1  0.99270000  0.20780000  0.04410000  1.0 0.1200538518
H  H242  1  0.50730000  0.79220000  0.54410000  1.0 0.1200538518
H  H243  1  0.00730000  0.70780000  0.45590000  1.0 0.1200538518
H  H244  1  0.49270000  0.29220000  0.95590000  1.0 0.1200538518
H  H245  1  0.04410000  0.99270000  0.20780000  1.0 0.1200538518
H  H246  1  0.54410000  0.50730000  0.79220000  1.0 0.1200538518
H  H247  1  0.45590000  0.00730000  0.70780000  1.0 0.1200538518
H  H248  1  0.95590000  0.49270000  0.29220000  1.0 0.1200538518
H  H249  1  0.20780000  0.04410000  0.99270000  1.0 0.1200538518
H  H250  1  0.79220000  0.54410000  0.50730000  1.0 0.1200538518
H  H251  1  0.70780000  0.45590000  0.00730000  1.0 0.1200538518
H  H252  1  0.29220000  0.95590000  0.49270000  1.0 0.1200538518
H  H253  1  0.45780000  0.74270000  0.70590000  1.0 0.1200538518
H  H254  1  0.04220000  0.25730000  0.20590000  1.0 0.1200538518
H  H255  1  0.95780000  0.75730000  0.29410000  1.0 0.1200538518
H  H256  1  0.54220000  0.24270000  0.79410000  1.0 0.1200538518
H  H257  1  0.24270000  0.79410000  0.54220000  1.0 0.1200538518
H  H258  1  0.75730000  0.29410000  0.95780000  1.0 0.1200538518
H  H259  1  0.25730000  0.20590000  0.04220000  1.0 0.1200538518
H  H260  1  0.74270000  0.70590000  0.45780000  1.0 0.1200538518
H  H261  1  0.29410000  0.95780000  0.75730000  1.0 0.1200538518
H  H262  1  0.79410000  0.54220000  0.24270000  1.0 0.1200538518
H  H263  1  0.70590000  0.45780000  0.74270000  1.0 0.1200538518
H  H264  1  0.20590000  0.04220000  0.25730000  1.0 0.1200538518
H  H265  1  0.49270000  0.70780000  0.54410000  1.0 0.1200538518
H  H266  1  0.00730000  0.29220000  0.04410000  1.0 0.1200538518
H  H267  1  0.50730000  0.20780000  0.95590000  1.0 0.1200538518
H  H268  1  0.99270000  0.79220000  0.45590000  1.0 0.1200538518
H  H269  1  0.54410000  0.49270000  0.70780000  1.0 0.1200538518
H  H270  1  0.04410000  0.00730000  0.29220000  1.0 0.1200538518
H  H271  1  0.95590000  0.50730000  0.20780000  1.0 0.1200538518
H  H272  1  0.45590000  0.99270000  0.79220000  1.0 0.1200538518
H  H273  1  0.70780000  0.54410000  0.49270000  1.0 0.1200538518
H  H274  1  0.29220000  0.04410000  0.00730000  1.0 0.1200538518
H  H275  1  0.20780000  0.95590000  0.50730000  1.0 0.1200538518
H  H276  1  0.79220000  0.45590000  0.99270000  1.0 0.1200538518
H  H277  1  0.95780000  0.24270000  0.20590000  1.0 0.1200538518
H  H278  1  0.54220000  0.75730000  0.70590000  1.0 0.1200538518
H  H279  1  0.45780000  0.25730000  0.79410000  1.0 0.1200538518
H  H280  1  0.04220000  0.74270000  0.29410000  1.0 0.1200538518
H  H281  1  0.74270000  0.29410000  0.04220000  1.0 0.1200538518
H  H282  1  0.25730000  0.79410000  0.45780000  1.0 0.1200538518
H  H283  1  0.75730000  0.70590000  0.54220000  1.0 0.1200538518
H  H284  1  0.24270000  0.20590000  0.95780000  1.0 0.1200538518
H  H285  1  0.79410000  0.45780000  0.25730000  1.0 0.1200538518
H  H286  1  0.29410000  0.04220000  0.74270000  1.0 0.1200538518
H  H287  1  0.20590000  0.95780000  0.24270000  1.0 0.1200538518
H  H288  1  0.70590000  0.54220000  0.75730000  1.0 0.1200538518
H  H289  1  0.95800000  0.82170000  0.90940000  1.0 0.1200538518
H  H290  1  0.54200000  0.17830000  0.40940000  1.0 0.1200538518
H  H291  1  0.04200000  0.32170000  0.59060000  1.0 0.1200538518
H  H292  1  0.45800000  0.67830000  0.09060000  1.0 0.1200538518
H  H293  1  0.90940000  0.95800000  0.82170000  1.0 0.1200538518
H  H294  1  0.40940000  0.54200000  0.17830000  1.0 0.1200538518
H  H295  1  0.59060000  0.04200000  0.32170000  1.0 0.1200538518
H  H296  1  0.09060000  0.45800000  0.67830000  1.0 0.1200538518
H  H297  1  0.82170000  0.90940000  0.95800000  1.0 0.1200538518
H  H298  1  0.17830000  0.40940000  0.54200000  1.0 0.1200538518
H  H299  1  0.32170000  0.59060000  0.04200000  1.0 0.1200538518
H  H300  1  0.67830000  0.09060000  0.45800000  1.0 0.1200538518
H  H301  1  0.57170000  0.20800000  0.34060000  1.0 0.1200538518
H  H302  1  0.92830000  0.79200000  0.84060000  1.0 0.1200538518
H  H303  1  0.07170000  0.29200000  0.65940000  1.0 0.1200538518
H  H304  1  0.42830000  0.70800000  0.15940000  1.0 0.1200538518
H  H305  1  0.70800000  0.15940000  0.42830000  1.0 0.1200538518
H  H306  1  0.29200000  0.65940000  0.07170000  1.0 0.1200538518
H  H307  1  0.79200000  0.84060000  0.92830000  1.0 0.1200538518
H  H308  1  0.20800000  0.34060000  0.57170000  1.0 0.1200538518
H  H309  1  0.65940000  0.07170000  0.29200000  1.0 0.1200538518
H  H310  1  0.15940000  0.42830000  0.70800000  1.0 0.1200538518
H  H311  1  0.34060000  0.57170000  0.20800000  1.0 0.1200538518
H  H312  1  0.84060000  0.92830000  0.79200000  1.0 0.1200538518
H  H313  1  0.45800000  0.32170000  0.40940000  1.0 0.1200538518
H  H314  1  0.04200000  0.67830000  0.90940000  1.0 0.1200538518
H  H315  1  0.54200000  0.82170000  0.09060000  1.0 0.1200538518
H  H316  1  0.95800000  0.17830000  0.59060000  1.0 0.1200538518
H  H317  1  0.40940000  0.45800000  0.32170000  1.0 0.1200538518
H  H318  1  0.90940000  0.04200000  0.67830000  1.0 0.1200538518
H  H319  1  0.09060000  0.54200000  0.82170000  1.0 0.1200538518
H  H320  1  0.59060000  0.95800000  0.17830000  1.0 0.1200538518
H  H321  1  0.32170000  0.40940000  0.45800000  1.0 0.1200538518
H  H322  1  0.67830000  0.90940000  0.04200000  1.0 0.1200538518
H  H323  1  0.82170000  0.09060000  0.54200000  1.0 0.1200538518
H  H324  1  0.17830000  0.59060000  0.95800000  1.0 0.1200538518
H  H325  1  0.07170000  0.70800000  0.84060000  1.0 0.1200538518
H  H326  1  0.42830000  0.29200000  0.34060000  1.0 0.1200538518
H  H327  1  0.57170000  0.79200000  0.15940000  1.0 0.1200538518
H  H328  1  0.92830000  0.20800000  0.65940000  1.0 0.1200538518
H  H329  1  0.20800000  0.65940000  0.92830000  1.0 0.1200538518
H  H330  1  0.79200000  0.15940000  0.57170000  1.0 0.1200538518
H  H331  1  0.29200000  0.34060000  0.42830000  1.0 0.1200538518
H  H332  1  0.70800000  0.84060000  0.07170000  1.0 0.1200538518
H  H333  1  0.15940000  0.57170000  0.79200000  1.0 0.1200538518
H  H334  1  0.65940000  0.92830000  0.20800000  1.0 0.1200538518
H  H335  1  0.84060000  0.07170000  0.70800000  1.0 0.1200538518
H  H336  1  0.34060000  0.42830000  0.29200000  1.0 0.1200538518
H  H337  1  0.04200000  0.17830000  0.09060000  1.0 0.1200538518
H  H338  1  0.45800000  0.82170000  0.59060000  1.0 0.1200538518
H  H339  1  0.95800000  0.67830000  0.40940000  1.0 0.1200538518
H  H340  1  0.54200000  0.32170000  0.90940000  1.0 0.1200538518
H  H341  1  0.09060000  0.04200000  0.17830000  1.0 0.1200538518
H  H342  1  0.59060000  0.45800000  0.82170000  1.0 0.1200538518
H  H343  1  0.40940000  0.95800000  0.67830000  1.0 0.1200538518
H  H344  1  0.90940000  0.54200000  0.32170000  1.0 0.1200538518
H  H345  1  0.17830000  0.09060000  0.04200000  1.0 0.1200538518
H  H346  1  0.82170000  0.59060000  0.45800000  1.0 0.1200538518
H  H347  1  0.67830000  0.40940000  0.95800000  1.0 0.1200538518
H  H348  1  0.32170000  0.90940000  0.54200000  1.0 0.1200538518
H  H349  1  0.42830000  0.79200000  0.65940000  1.0 0.1200538518
H  H350  1  0.07170000  0.20800000  0.15940000  1.0 0.1200538518
H  H351  1  0.92830000  0.70800000  0.34060000  1.0 0.1200538518
H  H352  1  0.57170000  0.29200000  0.84060000  1.0 0.1200538518
H  H353  1  0.29200000  0.84060000  0.57170000  1.0 0.1200538518
H  H354  1  0.70800000  0.34060000  0.92830000  1.0 0.1200538518
H  H355  1  0.20800000  0.15940000  0.07170000  1.0 0.1200538518
H  H356  1  0.79200000  0.65940000  0.42830000  1.0 0.1200538518
H  H357  1  0.34060000  0.92830000  0.70800000  1.0 0.1200538518
H  H358  1  0.84060000  0.57170000  0.29200000  1.0 0.1200538518
H  H359  1  0.65940000  0.42830000  0.79200000  1.0 0.1200538518
H  H360  1  0.15940000  0.07170000  0.20800000  1.0 0.1200538518
H  H361  1  0.54200000  0.67830000  0.59060000  1.0 0.1200538518
H  H362  1  0.95800000  0.32170000  0.09060000  1.0 0.1200538518
H  H363  1  0.45800000  0.17830000  0.90940000  1.0 0.1200538518
H  H364  1  0.04200000  0.82170000  0.40940000  1.0 0.1200538518
H  H365  1  0.59060000  0.54200000  0.67830000  1.0 0.1200538518
H  H366  1  0.09060000  0.95800000  0.32170000  1.0 0.1200538518
H  H367  1  0.90940000  0.45800000  0.17830000  1.0 0.1200538518
H  H368  1  0.40940000  0.04200000  0.82170000  1.0 0.1200538518
H  H369  1  0.67830000  0.59060000  0.54200000  1.0 0.1200538518
H  H370  1  0.32170000  0.09060000  0.95800000  1.0 0.1200538518
H  H371  1  0.17830000  0.90940000  0.45800000  1.0 0.1200538518
H  H372  1  0.82170000  0.40940000  0.04200000  1.0 0.1200538518
H  H373  1  0.92830000  0.29200000  0.15940000  1.0 0.1200538518
H  H374  1  0.57170000  0.70800000  0.65940000  1.0 0.1200538518
H  H375  1  0.42830000  0.20800000  0.84060000  1.0 0.1200538518
H  H376  1  0.07170000  0.79200000  0.34060000  1.0 0.1200538518
H  H377  1  0.79200000  0.34060000  0.07170000  1.0 0.1200538518
H  H378  1  0.20800000  0.84060000  0.42830000  1.0 0.1200538518
H  H379  1  0.70800000  0.65940000  0.57170000  1.0 0.1200538518
H  H380  1  0.29200000  0.15940000  0.92830000  1.0 0.1200538518
H  H381  1  0.84060000  0.42830000  0.20800000  1.0 0.1200538518
H  H382  1  0.34060000  0.07170000  0.79200000  1.0 0.1200538518
H  H383  1  0.15940000  0.92830000  0.29200000  1.0 0.1200538518
H  H384  1  0.65940000  0.57170000  0.70800000  1.0 0.1200538518
H  H385  1  0.90370000  0.86530000  0.93530000  1.0 0.1044609599
H  H386  1  0.59630000  0.13470000  0.43530000  1.0 0.1044609599
H  H387  1  0.09630000  0.36530000  0.56470000  1.0 0.1044609599
H  H388  1  0.40370000  0.63470000  0.06470000  1.0 0.1044609599
H  H389  1  0.93530000  0.90370000  0.86530000  1.0 0.1044609599
H  H390  1  0.43530000  0.59630000  0.13470000  1.0 0.1044609599
H  H391  1  0.56470000  0.09630000  0.36530000  1.0 0.1044609599
H  H392  1  0.06470000  0.40370000  0.63470000  1.0 0.1044609599
H  H393  1  0.86530000  0.93530000  0.90370000  1.0 0.1044609599
H  H394  1  0.13470000  0.43530000  0.59630000  1.0 0.1044609599
H  H395  1  0.36530000  0.56470000  0.09630000  1.0 0.1044609599
H  H396  1  0.63470000  0.06470000  0.40370000  1.0 0.1044609599
H  H397  1  0.61530000  0.15370000  0.31470000  1.0 0.1044609599
H  H398  1  0.88470000  0.84630000  0.81470000  1.0 0.1044609599
H  H399  1  0.11530000  0.34630000  0.68530000  1.0 0.1044609599
H  H400  1  0.38470000  0.65370000  0.18530000  1.0 0.1044609599
H  H401  1  0.65370000  0.18530000  0.38470000  1.0 0.1044609599
H  H402  1  0.34630000  0.68530000  0.11530000  1.0 0.1044609599
H  H403  1  0.84630000  0.81470000  0.88470000  1.0 0.1044609599
H  H404  1  0.15370000  0.31470000  0.61530000  1.0 0.1044609599
H  H405  1  0.68530000  0.11530000  0.34630000  1.0 0.1044609599
H  H406  1  0.18530000  0.38470000  0.65370000  1.0 0.1044609599
H  H407  1  0.31470000  0.61530000  0.15370000  1.0 0.1044609599
H  H408  1  0.81470000  0.88470000  0.84630000  1.0 0.1044609599
H  H409  1  0.40370000  0.36530000  0.43530000  1.0 0.1044609599
H  H410  1  0.09630000  0.63470000  0.93530000  1.0 0.1044609599
H  H411  1  0.59630000  0.86530000  0.06470000  1.0 0.1044609599
H  H412  1  0.90370000  0.13470000  0.56470000  1.0 0.1044609599
H  H413  1  0.43530000  0.40370000  0.36530000  1.0 0.1044609599
H  H414  1  0.93530000  0.09630000  0.63470000  1.0 0.1044609599
H  H415  1  0.06470000  0.59630000  0.86530000  1.0 0.1044609599
H  H416  1  0.56470000  0.90370000  0.13470000  1.0 0.1044609599
H  H417  1  0.36530000  0.43530000  0.40370000  1.0 0.1044609599
H  H418  1  0.63470000  0.93530000  0.09630000  1.0 0.1044609599
H  H419  1  0.86530000  0.06470000  0.59630000  1.0 0.1044609599
H  H420  1  0.13470000  0.56470000  0.90370000  1.0 0.1044609599
H  H421  1  0.11530000  0.65370000  0.81470000  1.0 0.1044609599
H  H422  1  0.38470000  0.34630000  0.31470000  1.0 0.1044609599
H  H423  1  0.61530000  0.84630000  0.18530000  1.0 0.1044609599
H  H424  1  0.88470000  0.15370000  0.68530000  1.0 0.1044609599
H  H425  1  0.15370000  0.68530000  0.88470000  1.0 0.1044609599
H  H426  1  0.84630000  0.18530000  0.61530000  1.0 0.1044609599
H  H427  1  0.34630000  0.31470000  0.38470000  1.0 0.1044609599
H  H428  1  0.65370000  0.81470000  0.11530000  1.0 0.1044609599
H  H429  1  0.18530000  0.61530000  0.84630000  1.0 0.1044609599
H  H430  1  0.68530000  0.88470000  0.15370000  1.0 0.1044609599
H  H431  1  0.81470000  0.11530000  0.65370000  1.0 0.1044609599
H  H432  1  0.31470000  0.38470000  0.34630000  1.0 0.1044609599
H  H433  1  0.09630000  0.13470000  0.06470000  1.0 0.1044609599
H  H434  1  0.40370000  0.86530000  0.56470000  1.0 0.1044609599
H  H435  1  0.90370000  0.63470000  0.43530000  1.0 0.1044609599
H  H436  1  0.59630000  0.36530000  0.93530000  1.0 0.1044609599
H  H437  1  0.06470000  0.09630000  0.13470000  1.0 0.1044609599
H  H438  1  0.56470000  0.40370000  0.86530000  1.0 0.1044609599
H  H439  1  0.43530000  0.90370000  0.63470000  1.0 0.1044609599
H  H440  1  0.93530000  0.59630000  0.36530000  1.0 0.1044609599
H  H441  1  0.13470000  0.06470000  0.09630000  1.0 0.1044609599
H  H442  1  0.86530000  0.56470000  0.40370000  1.0 0.1044609599
H  H443  1  0.63470000  0.43530000  0.90370000  1.0 0.1044609599
H  H444  1  0.36530000  0.93530000  0.59630000  1.0 0.1044609599
H  H445  1  0.38470000  0.84630000  0.68530000  1.0 0.1044609599
H  H446  1  0.11530000  0.15370000  0.18530000  1.0 0.1044609599
H  H447  1  0.88470000  0.65370000  0.31470000  1.0 0.1044609599
H  H448  1  0.61530000  0.34630000  0.81470000  1.0 0.1044609599
H  H449  1  0.34630000  0.81470000  0.61530000  1.0 0.1044609599
H  H450  1  0.65370000  0.31470000  0.88470000  1.0 0.1044609599
H  H451  1  0.15370000  0.18530000  0.11530000  1.0 0.1044609599
H  H452  1  0.84630000  0.68530000  0.38470000  1.0 0.1044609599
H  H453  1  0.31470000  0.88470000  0.65370000  1.0 0.1044609599
H  H454  1  0.81470000  0.61530000  0.34630000  1.0 0.1044609599
H  H455  1  0.68530000  0.38470000  0.84630000  1.0 0.1044609599
H  H456  1  0.18530000  0.11530000  0.15370000  1.0 0.1044609599
H  H457  1  0.59630000  0.63470000  0.56470000  1.0 0.1044609599
H  H458  1  0.90370000  0.36530000  0.06470000  1.0 0.1044609599
H  H459  1  0.40370000  0.13470000  0.93530000  1.0 0.1044609599
H  H460  1  0.09630000  0.86530000  0.43530000  1.0 0.1044609599
H  H461  1  0.56470000  0.59630000  0.63470000  1.0 0.1044609599
H  H462  1  0.06470000  0.90370000  0.36530000  1.0 0.1044609599
H  H463  1  0.93530000  0.40370000  0.13470000  1.0 0.1044609599
H  H464  1  0.43530000  0.09630000  0.86530000  1.0 0.1044609599
H  H465  1  0.63470000  0.56470000  0.59630000  1.0 0.1044609599
H  H466  1  0.36530000  0.06470000  0.90370000  1.0 0.1044609599
H  H467  1  0.13470000  0.93530000  0.40370000  1.0 0.1044609599
H  H468  1  0.86530000  0.43530000  0.09630000  1.0 0.1044609599
H  H469  1  0.88470000  0.34630000  0.18530000  1.0 0.1044609599
H  H470  1  0.61530000  0.65370000  0.68530000  1.0 0.1044609599
H  H471  1  0.38470000  0.15370000  0.81470000  1.0 0.1044609599
H  H472  1  0.11530000  0.84630000  0.31470000  1.0 0.1044609599
H  H473  1  0.84630000  0.31470000  0.11530000  1.0 0.1044609599
H  H474  1  0.15370000  0.81470000  0.38470000  1.0 0.1044609599
H  H475  1  0.65370000  0.68530000  0.61530000  1.0 0.1044609599
H  H476  1  0.34630000  0.18530000  0.88470000  1.0 0.1044609599
H  H477  1  0.81470000  0.38470000  0.15370000  1.0 0.1044609599
H  H478  1  0.31470000  0.11530000  0.84630000  1.0 0.1044609599
H  H479  1  0.18530000  0.88470000  0.34630000  1.0 0.1044609599
H  H480  1  0.68530000  0.61530000  0.65370000  1.0 0.1044609599
H  H481  1  0.89750000  0.87800000  0.00760000  1.0 0.1200538518
H  H482  1  0.60250000  0.12200000  0.50760000  1.0 0.1200538518
H  H483  1  0.10250000  0.37800000  0.49240000  1.0 0.1200538518
H  H484  1  0.39750000  0.62200000  0.99240000  1.0 0.1200538518
H  H485  1  0.00760000  0.89750000  0.87800000  1.0 0.1200538518
H  H486  1  0.50760000  0.60250000  0.12200000  1.0 0.1200538518
H  H487  1  0.49240000  0.10250000  0.37800000  1.0 0.1200538518
H  H488  1  0.99240000  0.39750000  0.62200000  1.0 0.1200538518
H  H489  1  0.87800000  0.00760000  0.89750000  1.0 0.1200538518
H  H490  1  0.12200000  0.50760000  0.60250000  1.0 0.1200538518
H  H491  1  0.37800000  0.49240000  0.10250000  1.0 0.1200538518
H  H492  1  0.62200000  0.99240000  0.39750000  1.0 0.1200538518
H  H493  1  0.62800000  0.14750000  0.24240000  1.0 0.1200538518
H  H494  1  0.87200000  0.85250000  0.74240000  1.0 0.1200538518
H  H495  1  0.12800000  0.35250000  0.75760000  1.0 0.1200538518
H  H496  1  0.37200000  0.64750000  0.25760000  1.0 0.1200538518
H  H497  1  0.64750000  0.25760000  0.37200000  1.0 0.1200538518
H  H498  1  0.35250000  0.75760000  0.12800000  1.0 0.1200538518
H  H499  1  0.85250000  0.74240000  0.87200000  1.0 0.1200538518
H  H500  1  0.14750000  0.24240000  0.62800000  1.0 0.1200538518
H  H501  1  0.75760000  0.12800000  0.35250000  1.0 0.1200538518
H  H502  1  0.25760000  0.37200000  0.64750000  1.0 0.1200538518
H  H503  1  0.24240000  0.62800000  0.14750000  1.0 0.1200538518
H  H504  1  0.74240000  0.87200000  0.85250000  1.0 0.1200538518
H  H505  1  0.39750000  0.37800000  0.50760000  1.0 0.1200538518
H  H506  1  0.10250000  0.62200000  0.00760000  1.0 0.1200538518
H  H507  1  0.60250000  0.87800000  0.99240000  1.0 0.1200538518
H  H508  1  0.89750000  0.12200000  0.49240000  1.0 0.1200538518
H  H509  1  0.50760000  0.39750000  0.37800000  1.0 0.1200538518
H  H510  1  0.00760000  0.10250000  0.62200000  1.0 0.1200538518
H  H511  1  0.99240000  0.60250000  0.87800000  1.0 0.1200538518
H  H512  1  0.49240000  0.89750000  0.12200000  1.0 0.1200538518
H  H513  1  0.37800000  0.50760000  0.39750000  1.0 0.1200538518
H  H514  1  0.62200000  0.00760000  0.10250000  1.0 0.1200538518
H  H515  1  0.87800000  0.99240000  0.60250000  1.0 0.1200538518
H  H516  1  0.12200000  0.49240000  0.89750000  1.0 0.1200538518
H  H517  1  0.12800000  0.64750000  0.74240000  1.0 0.1200538518
H  H518  1  0.37200000  0.35250000  0.24240000  1.0 0.1200538518
H  H519  1  0.62800000  0.85250000  0.25760000  1.0 0.1200538518
H  H520  1  0.87200000  0.14750000  0.75760000  1.0 0.1200538518
H  H521  1  0.14750000  0.75760000  0.87200000  1.0 0.1200538518
H  H522  1  0.85250000  0.25760000  0.62800000  1.0 0.1200538518
H  H523  1  0.35250000  0.24240000  0.37200000  1.0 0.1200538518
H  H524  1  0.64750000  0.74240000  0.12800000  1.0 0.1200538518
H  H525  1  0.25760000  0.62800000  0.85250000  1.0 0.1200538518
H  H526  1  0.75760000  0.87200000  0.14750000  1.0 0.1200538518
H  H527  1  0.74240000  0.12800000  0.64750000  1.0 0.1200538518
H  H528  1  0.24240000  0.37200000  0.35250000  1.0 0.1200538518
H  H529  1  0.10250000  0.12200000  0.99240000  1.0 0.1200538518
H  H530  1  0.39750000  0.87800000  0.49240000  1.0 0.1200538518
H  H531  1  0.89750000  0.62200000  0.50760000  1.0 0.1200538518
H  H532  1  0.60250000  0.37800000  0.00760000  1.0 0.1200538518
H  H533  1  0.99240000  0.10250000  0.12200000  1.0 0.1200538518
H  H534  1  0.49240000  0.39750000  0.87800000  1.0 0.1200538518
H  H535  1  0.50760000  0.89750000  0.62200000  1.0 0.1200538518
H  H536  1  0.00760000  0.60250000  0.37800000  1.0 0.1200538518
H  H537  1  0.12200000  0.99240000  0.10250000  1.0 0.1200538518
H  H538  1  0.87800000  0.49240000  0.39750000  1.0 0.1200538518
H  H539  1  0.62200000  0.50760000  0.89750000  1.0 0.1200538518
H  H540  1  0.37800000  0.00760000  0.60250000  1.0 0.1200538518
H  H541  1  0.37200000  0.85250000  0.75760000  1.0 0.1200538518
H  H542  1  0.12800000  0.14750000  0.25760000  1.0 0.1200538518
H  H543  1  0.87200000  0.64750000  0.24240000  1.0 0.1200538518
H  H544  1  0.62800000  0.35250000  0.74240000  1.0 0.1200538518
H  H545  1  0.35250000  0.74240000  0.62800000  1.0 0.1200538518
H  H546  1  0.64750000  0.24240000  0.87200000  1.0 0.1200538518
H  H547  1  0.14750000  0.25760000  0.12800000  1.0 0.1200538518
H  H548  1  0.85250000  0.75760000  0.37200000  1.0 0.1200538518
H  H549  1  0.24240000  0.87200000  0.64750000  1.0 0.1200538518
H  H550  1  0.74240000  0.62800000  0.35250000  1.0 0.1200538518
H  H551  1  0.75760000  0.37200000  0.85250000  1.0 0.1200538518
H  H552  1  0.25760000  0.12800000  0.14750000  1.0 0.1200538518
H  H553  1  0.60250000  0.62200000  0.49240000  1.0 0.1200538518
H  H554  1  0.89750000  0.37800000  0.99240000  1.0 0.1200538518
H  H555  1  0.39750000  0.12200000  0.00760000  1.0 0.1200538518
H  H556  1  0.10250000  0.87800000  0.50760000  1.0 0.1200538518
H  H557  1  0.49240000  0.60250000  0.62200000  1.0 0.1200538518
H  H558  1  0.99240000  0.89750000  0.37800000  1.0 0.1200538518
H  H559  1  0.00760000  0.39750000  0.12200000  1.0 0.1200538518
H  H560  1  0.50760000  0.10250000  0.87800000  1.0 0.1200538518
H  H561  1  0.62200000  0.49240000  0.60250000  1.0 0.1200538518
H  H562  1  0.37800000  0.99240000  0.89750000  1.0 0.1200538518
H  H563  1  0.12200000  0.00760000  0.39750000  1.0 0.1200538518
H  H564  1  0.87800000  0.50760000  0.10250000  1.0 0.1200538518
H  H565  1  0.87200000  0.35250000  0.25760000  1.0 0.1200538518
H  H566  1  0.62800000  0.64750000  0.75760000  1.0 0.1200538518
H  H567  1  0.37200000  0.14750000  0.74240000  1.0 0.1200538518
H  H568  1  0.12800000  0.85250000  0.24240000  1.0 0.1200538518
H  H569  1  0.85250000  0.24240000  0.12800000  1.0 0.1200538518
H  H570  1  0.14750000  0.74240000  0.37200000  1.0 0.1200538518
H  H571  1  0.64750000  0.75760000  0.62800000  1.0 0.1200538518
H  H572  1  0.35250000  0.25760000  0.87200000  1.0 0.1200538518
H  H573  1  0.74240000  0.37200000  0.14750000  1.0 0.1200538518
H  H574  1  0.24240000  0.12800000  0.85250000  1.0 0.1200538518
H  H575  1  0.25760000  0.87200000  0.35250000  1.0 0.1200538518
H  H576  1  0.75760000  0.62800000  0.64750000  1.0 0.1200538518
H  H577  1  0.94640000  0.84780000  0.05470000  1.0 0.1200538518
H  H578  1  0.55360000  0.15220000  0.55470000  1.0 0.1200538518
H  H579  1  0.05360000  0.34780000  0.44530000  1.0 0.1200538518
H  H580  1  0.44640000  0.65220000  0.94530000  1.0 0.1200538518
H  H581  1  0.05470000  0.94640000  0.84780000  1.0 0.1200538518
H  H582  1  0.55470000  0.55360000  0.15220000  1.0 0.1200538518
H  H583  1  0.44530000  0.05360000  0.34780000  1.0 0.1200538518
H  H584  1  0.94530000  0.44640000  0.65220000  1.0 0.1200538518
H  H585  1  0.84780000  0.05470000  0.94640000  1.0 0.1200538518
H  H586  1  0.15220000  0.55470000  0.55360000  1.0 0.1200538518
H  H587  1  0.34780000  0.44530000  0.05360000  1.0 0.1200538518
H  H588  1  0.65220000  0.94530000  0.44640000  1.0 0.1200538518
H  H589  1  0.59780000  0.19640000  0.19530000  1.0 0.1200538518
H  H590  1  0.90220000  0.80360000  0.69530000  1.0 0.1200538518
H  H591  1  0.09780000  0.30360000  0.80470000  1.0 0.1200538518
H  H592  1  0.40220000  0.69640000  0.30470000  1.0 0.1200538518
H  H593  1  0.69640000  0.30470000  0.40220000  1.0 0.1200538518
H  H594  1  0.30360000  0.80470000  0.09780000  1.0 0.1200538518
H  H595  1  0.80360000  0.69530000  0.90220000  1.0 0.1200538518
H  H596  1  0.19640000  0.19530000  0.59780000  1.0 0.1200538518
H  H597  1  0.80470000  0.09780000  0.30360000  1.0 0.1200538518
H  H598  1  0.30470000  0.40220000  0.69640000  1.0 0.1200538518
H  H599  1  0.19530000  0.59780000  0.19640000  1.0 0.1200538518
H  H600  1  0.69530000  0.90220000  0.80360000  1.0 0.1200538518
H  H601  1  0.44640000  0.34780000  0.55470000  1.0 0.1200538518
H  H602  1  0.05360000  0.65220000  0.05470000  1.0 0.1200538518
H  H603  1  0.55360000  0.84780000  0.94530000  1.0 0.1200538518
H  H604  1  0.94640000  0.15220000  0.44530000  1.0 0.1200538518
H  H605  1  0.55470000  0.44640000  0.34780000  1.0 0.1200538518
H  H606  1  0.05470000  0.05360000  0.65220000  1.0 0.1200538518
H  H607  1  0.94530000  0.55360000  0.84780000  1.0 0.1200538518
H  H608  1  0.44530000  0.94640000  0.15220000  1.0 0.1200538518
H  H609  1  0.34780000  0.55470000  0.44640000  1.0 0.1200538518
H  H610  1  0.65220000  0.05470000  0.05360000  1.0 0.1200538518
H  H611  1  0.84780000  0.94530000  0.55360000  1.0 0.1200538518
H  H612  1  0.15220000  0.44530000  0.94640000  1.0 0.1200538518
H  H613  1  0.09780000  0.69640000  0.69530000  1.0 0.1200538518
H  H614  1  0.40220000  0.30360000  0.19530000  1.0 0.1200538518
H  H615  1  0.59780000  0.80360000  0.30470000  1.0 0.1200538518
H  H616  1  0.90220000  0.19640000  0.80470000  1.0 0.1200538518
H  H617  1  0.19640000  0.80470000  0.90220000  1.0 0.1200538518
H  H618  1  0.80360000  0.30470000  0.59780000  1.0 0.1200538518
H  H619  1  0.30360000  0.19530000  0.40220000  1.0 0.1200538518
H  H620  1  0.69640000  0.69530000  0.09780000  1.0 0.1200538518
H  H621  1  0.30470000  0.59780000  0.80360000  1.0 0.1200538518
H  H622  1  0.80470000  0.90220000  0.19640000  1.0 0.1200538518
H  H623  1  0.69530000  0.09780000  0.69640000  1.0 0.1200538518
H  H624  1  0.19530000  0.40220000  0.30360000  1.0 0.1200538518
H  H625  1  0.05360000  0.15220000  0.94530000  1.0 0.1200538518
H  H626  1  0.44640000  0.84780000  0.44530000  1.0 0.1200538518
H  H627  1  0.94640000  0.65220000  0.55470000  1.0 0.1200538518
H  H628  1  0.55360000  0.34780000  0.05470000  1.0 0.1200538518
H  H629  1  0.94530000  0.05360000  0.15220000  1.0 0.1200538518
H  H630  1  0.44530000  0.44640000  0.84780000  1.0 0.1200538518
H  H631  1  0.55470000  0.94640000  0.65220000  1.0 0.1200538518
H  H632  1  0.05470000  0.55360000  0.34780000  1.0 0.1200538518
H  H633  1  0.15220000  0.94530000  0.05360000  1.0 0.1200538518
H  H634  1  0.84780000  0.44530000  0.44640000  1.0 0.1200538518
H  H635  1  0.65220000  0.55470000  0.94640000  1.0 0.1200538518
H  H636  1  0.34780000  0.05470000  0.55360000  1.0 0.1200538518
H  H637  1  0.40220000  0.80360000  0.80470000  1.0 0.1200538518
H  H638  1  0.09780000  0.19640000  0.30470000  1.0 0.1200538518
H  H639  1  0.90220000  0.69640000  0.19530000  1.0 0.1200538518
H  H640  1  0.59780000  0.30360000  0.69530000  1.0 0.1200538518
H  H641  1  0.30360000  0.69530000  0.59780000  1.0 0.1200538518
H  H642  1  0.69640000  0.19530000  0.90220000  1.0 0.1200538518
H  H643  1  0.19640000  0.30470000  0.09780000  1.0 0.1200538518
H  H644  1  0.80360000  0.80470000  0.40220000  1.0 0.1200538518
H  H645  1  0.19530000  0.90220000  0.69640000  1.0 0.1200538518
H  H646  1  0.69530000  0.59780000  0.30360000  1.0 0.1200538518
H  H647  1  0.80470000  0.40220000  0.80360000  1.0 0.1200538518
H  H648  1  0.30470000  0.09780000  0.19640000  1.0 0.1200538518
H  H649  1  0.55360000  0.65220000  0.44530000  1.0 0.1200538518
H  H650  1  0.94640000  0.34780000  0.94530000  1.0 0.1200538518
H  H651  1  0.44640000  0.15220000  0.05470000  1.0 0.1200538518
H  H652  1  0.05360000  0.84780000  0.55470000  1.0 0.1200538518
H  H653  1  0.44530000  0.55360000  0.65220000  1.0 0.1200538518
H  H654  1  0.94530000  0.94640000  0.34780000  1.0 0.1200538518
H  H655  1  0.05470000  0.44640000  0.15220000  1.0 0.1200538518
H  H656  1  0.55470000  0.05360000  0.84780000  1.0 0.1200538518
H  H657  1  0.65220000  0.44530000  0.55360000  1.0 0.1200538518
H  H658  1  0.34780000  0.94530000  0.94640000  1.0 0.1200538518
H  H659  1  0.15220000  0.05470000  0.44640000  1.0 0.1200538518
H  H660  1  0.84780000  0.55470000  0.05360000  1.0 0.1200538518
H  H661  1  0.90220000  0.30360000  0.30470000  1.0 0.1200538518
H  H662  1  0.59780000  0.69640000  0.80470000  1.0 0.1200538518
H  H663  1  0.40220000  0.19640000  0.69530000  1.0 0.1200538518
H  H664  1  0.09780000  0.80360000  0.19530000  1.0 0.1200538518
H  H665  1  0.80360000  0.19530000  0.09780000  1.0 0.1200538518
H  H666  1  0.19640000  0.69530000  0.40220000  1.0 0.1200538518
H  H667  1  0.69640000  0.80470000  0.59780000  1.0 0.1200538518
H  H668  1  0.30360000  0.30470000  0.90220000  1.0 0.1200538518
H  H669  1  0.69530000  0.40220000  0.19640000  1.0 0.1200538518
H  H670  1  0.19530000  0.09780000  0.80360000  1.0 0.1200538518
H  H671  1  0.30470000  0.90220000  0.30360000  1.0 0.1200538518
H  H672  1  0.80470000  0.59780000  0.69640000  1.0 0.1200538518
H  H673  1  0.14670000  0.73070000  0.99930000  0.5 0.1354300827
H  H674  1  0.35330000  0.26930000  0.49930000  0.5 0.1354300827
H  H675  1  0.85330000  0.23070000  0.50070000  0.5 0.1354300827
H  H676  1  0.64670000  0.76930000  0.00070000  0.5 0.1354300827
H  H677  1  0.99930000  0.14670000  0.73070000  0.5 0.1354300827
H  H678  1  0.49930000  0.35330000  0.26930000  0.5 0.1354300827
H  H679  1  0.50070000  0.85330000  0.23070000  0.5 0.1354300827
H  H680  1  0.00070000  0.64670000  0.76930000  0.5 0.1354300827
H  H681  1  0.73070000  0.99930000  0.14670000  0.5 0.1354300827
H  H682  1  0.26930000  0.49930000  0.35330000  0.5 0.1354300827
H  H683  1  0.23070000  0.50070000  0.85330000  0.5 0.1354300827
H  H684  1  0.76930000  0.00070000  0.64670000  0.5 0.1354300827
H  H685  1  0.48070000  0.39670000  0.25070000  0.5 0.1354300827
H  H686  1  0.01930000  0.60330000  0.75070000  0.5 0.1354300827
H  H687  1  0.98070000  0.10330000  0.74930000  0.5 0.1354300827
H  H688  1  0.51930000  0.89670000  0.24930000  0.5 0.1354300827
H  H689  1  0.89670000  0.24930000  0.51930000  0.5 0.1354300827
H  H690  1  0.10330000  0.74930000  0.98070000  0.5 0.1354300827
H  H691  1  0.60330000  0.75070000  0.01930000  0.5 0.1354300827
H  H692  1  0.39670000  0.25070000  0.48070000  0.5 0.1354300827
H  H693  1  0.74930000  0.98070000  0.10330000  0.5 0.1354300827
H  H694  1  0.24930000  0.51930000  0.89670000  0.5 0.1354300827
H  H695  1  0.25070000  0.48070000  0.39670000  0.5 0.1354300827
H  H696  1  0.75070000  0.01930000  0.60330000  0.5 0.1354300827
H  H697  1  0.64670000  0.23070000  0.49930000  0.5 0.1354300827
H  H698  1  0.85330000  0.76930000  0.99930000  0.5 0.1354300827
H  H699  1  0.35330000  0.73070000  0.00070000  0.5 0.1354300827
H  H700  1  0.14670000  0.26930000  0.50070000  0.5 0.1354300827
H  H701  1  0.49930000  0.64670000  0.23070000  0.5 0.1354300827
H  H702  1  0.99930000  0.85330000  0.76930000  0.5 0.1354300827
H  H703  1  0.00070000  0.35330000  0.73070000  0.5 0.1354300827
H  H704  1  0.50070000  0.14670000  0.26930000  0.5 0.1354300827
H  H705  1  0.23070000  0.49930000  0.64670000  0.5 0.1354300827
H  H706  1  0.76930000  0.99930000  0.85330000  0.5 0.1354300827
H  H707  1  0.73070000  0.00070000  0.35330000  0.5 0.1354300827
H  H708  1  0.26930000  0.50070000  0.14670000  0.5 0.1354300827
H  H709  1  0.98070000  0.89670000  0.75070000  0.5 0.1354300827
H  H710  1  0.51930000  0.10330000  0.25070000  0.5 0.1354300827
H  H711  1  0.48070000  0.60330000  0.24930000  0.5 0.1354300827
H  H712  1  0.01930000  0.39670000  0.74930000  0.5 0.1354300827
H  H713  1  0.39670000  0.74930000  0.01930000  0.5 0.1354300827
H  H714  1  0.60330000  0.24930000  0.48070000  0.5 0.1354300827
H  H715  1  0.10330000  0.25070000  0.51930000  0.5 0.1354300827
H  H716  1  0.89670000  0.75070000  0.98070000  0.5 0.1354300827
H  H717  1  0.24930000  0.48070000  0.60330000  0.5 0.1354300827
H  H718  1  0.74930000  0.01930000  0.39670000  0.5 0.1354300827
H  H719  1  0.75070000  0.98070000  0.89670000  0.5 0.1354300827
H  H720  1  0.25070000  0.51930000  0.10330000  0.5 0.1354300827
H  H721  1  0.85330000  0.26930000  0.00070000  0.5 0.1354300827
H  H722  1  0.64670000  0.73070000  0.50070000  0.5 0.1354300827
H  H723  1  0.14670000  0.76930000  0.49930000  0.5 0.1354300827
H  H724  1  0.35330000  0.23070000  0.99930000  0.5 0.1354300827
H  H725  1  0.00070000  0.85330000  0.26930000  0.5 0.1354300827
H  H726  1  0.50070000  0.64670000  0.73070000  0.5 0.1354300827
H  H727  1  0.49930000  0.14670000  0.76930000  0.5 0.1354300827
H  H728  1  0.99930000  0.35330000  0.23070000  0.5 0.1354300827
H  H729  1  0.26930000  0.00070000  0.85330000  0.5 0.1354300827
H  H730  1  0.73070000  0.50070000  0.64670000  0.5 0.1354300827
H  H731  1  0.76930000  0.49930000  0.14670000  0.5 0.1354300827
H  H732  1  0.23070000  0.99930000  0.35330000  0.5 0.1354300827
H  H733  1  0.51930000  0.60330000  0.74930000  0.5 0.1354300827
H  H734  1  0.98070000  0.39670000  0.24930000  0.5 0.1354300827
H  H735  1  0.01930000  0.89670000  0.25070000  0.5 0.1354300827
H  H736  1  0.48070000  0.10330000  0.75070000  0.5 0.1354300827
H  H737  1  0.10330000  0.75070000  0.48070000  0.5 0.1354300827
H  H738  1  0.89670000  0.25070000  0.01930000  0.5 0.1354300827
H  H739  1  0.39670000  0.24930000  0.98070000  0.5 0.1354300827
H  H740  1  0.60330000  0.74930000  0.51930000  0.5 0.1354300827
H  H741  1  0.25070000  0.01930000  0.89670000  0.5 0.1354300827
H  H742  1  0.75070000  0.48070000  0.10330000  0.5 0.1354300827
H  H743  1  0.74930000  0.51930000  0.60330000  0.5 0.1354300827
H  H744  1  0.24930000  0.98070000  0.39670000  0.5 0.1354300827
H  H745  1  0.35330000  0.76930000  0.50070000  0.5 0.1354300827
H  H746  1  0.14670000  0.23070000  0.00070000  0.5 0.1354300827
H  H747  1  0.64670000  0.26930000  0.99930000  0.5 0.1354300827
H  H748  1  0.85330000  0.73070000  0.49930000  0.5 0.1354300827
H  H749  1  0.50070000  0.35330000  0.76930000  0.5 0.1354300827
H  H750  1  0.00070000  0.14670000  0.23070000  0.5 0.1354300827
H  H751  1  0.99930000  0.64670000  0.26930000  0.5 0.1354300827
H  H752  1  0.49930000  0.85330000  0.73070000  0.5 0.1354300827
H  H753  1  0.76930000  0.50070000  0.35330000  0.5 0.1354300827
H  H754  1  0.23070000  0.00070000  0.14670000  0.5 0.1354300827
H  H755  1  0.26930000  0.99930000  0.64670000  0.5 0.1354300827
H  H756  1  0.73070000  0.49930000  0.85330000  0.5 0.1354300827
H  H757  1  0.01930000  0.10330000  0.24930000  0.5 0.1354300827
H  H758  1  0.48070000  0.89670000  0.74930000  0.5 0.1354300827
H  H759  1  0.51930000  0.39670000  0.75070000  0.5 0.1354300827
H  H760  1  0.98070000  0.60330000  0.25070000  0.5 0.1354300827
H  H761  1  0.60330000  0.25070000  0.98070000  0.5 0.1354300827
H  H762  1  0.39670000  0.75070000  0.51930000  0.5 0.1354300827
H  H763  1  0.89670000  0.74930000  0.48070000  0.5 0.1354300827
H  H764  1  0.10330000  0.24930000  0.01930000  0.5 0.1354300827
H  H765  1  0.75070000  0.51930000  0.39670000  0.5 0.1354300827
H  H766  1  0.25070000  0.98070000  0.60330000  0.5 0.1354300827
H  H767  1  0.24930000  0.01930000  0.10330000  0.5 0.1354300827
H  H768  1  0.74930000  0.48070000  0.89670000  0.5 0.1354300827
C  C1  1  0.12215000  0.72800000  0.07898000  1.0 -0.0718849448
C  C2  1  0.37785000  0.27200000  0.57898000  1.0 -0.0718849448
C  C3  1  0.87785000  0.22800000  0.42102000  1.0 -0.0718849448
C  C4  1  0.62215000  0.77200000  0.92102000  1.0 -0.0718849448
C  C5  1  0.07898000  0.12215000  0.72800000  1.0 -0.0718849448
C  C6  1  0.57898000  0.37785000  0.27200000  1.0 -0.0718849448
C  C7  1  0.42102000  0.87785000  0.22800000  1.0 -0.0718849448
C  C8  1  0.92102000  0.62215000  0.77200000  1.0 -0.0718849448
C  C9  1  0.72800000  0.07898000  0.12215000  1.0 -0.0718849448
C  C10  1  0.27200000  0.57898000  0.37785000  1.0 -0.0718849448
C  C11  1  0.22800000  0.42102000  0.87785000  1.0 -0.0718849448
C  C12  1  0.77200000  0.92102000  0.62215000  1.0 -0.0718849448
C  C13  1  0.47800000  0.37215000  0.17102000  1.0 -0.0718849448
C  C14  1  0.02200000  0.62785000  0.67102000  1.0 -0.0718849448
C  C15  1  0.97800000  0.12785000  0.82898000  1.0 -0.0718849448
C  C16  1  0.52200000  0.87215000  0.32898000  1.0 -0.0718849448
C  C17  1  0.87215000  0.32898000  0.52200000  1.0 -0.0718849448
C  C18  1  0.12785000  0.82898000  0.97800000  1.0 -0.0718849448
C  C19  1  0.62785000  0.67102000  0.02200000  1.0 -0.0718849448
C  C20  1  0.37215000  0.17102000  0.47800000  1.0 -0.0718849448
C  C21  1  0.82898000  0.97800000  0.12785000  1.0 -0.0718849448
C  C22  1  0.32898000  0.52200000  0.87215000  1.0 -0.0718849448
C  C23  1  0.17102000  0.47800000  0.37215000  1.0 -0.0718849448
C  C24  1  0.67102000  0.02200000  0.62785000  1.0 -0.0718849448
C  C25  1  0.62215000  0.22800000  0.57898000  1.0 -0.0718849448
C  C26  1  0.87785000  0.77200000  0.07898000  1.0 -0.0718849448
C  C27  1  0.37785000  0.72800000  0.92102000  1.0 -0.0718849448
C  C28  1  0.12215000  0.27200000  0.42102000  1.0 -0.0718849448
C  C29  1  0.57898000  0.62215000  0.22800000  1.0 -0.0718849448
C  C30  1  0.07898000  0.87785000  0.77200000  1.0 -0.0718849448
C  C31  1  0.92102000  0.37785000  0.72800000  1.0 -0.0718849448
C  C32  1  0.42102000  0.12215000  0.27200000  1.0 -0.0718849448
C  C33  1  0.22800000  0.57898000  0.62215000  1.0 -0.0718849448
C  C34  1  0.77200000  0.07898000  0.87785000  1.0 -0.0718849448
C  C35  1  0.72800000  0.92102000  0.37785000  1.0 -0.0718849448
C  C36  1  0.27200000  0.42102000  0.12215000  1.0 -0.0718849448
C  C37  1  0.97800000  0.87215000  0.67102000  1.0 -0.0718849448
C  C38  1  0.52200000  0.12785000  0.17102000  1.0 -0.0718849448
C  C39  1  0.47800000  0.62785000  0.32898000  1.0 -0.0718849448
C  C40  1  0.02200000  0.37215000  0.82898000  1.0 -0.0718849448
C  C41  1  0.37215000  0.82898000  0.02200000  1.0 -0.0718849448
C  C42  1  0.62785000  0.32898000  0.47800000  1.0 -0.0718849448
C  C43  1  0.12785000  0.17102000  0.52200000  1.0 -0.0718849448
C  C44  1  0.87215000  0.67102000  0.97800000  1.0 -0.0718849448
C  C45  1  0.32898000  0.47800000  0.62785000  1.0 -0.0718849448
C  C46  1  0.82898000  0.02200000  0.37215000  1.0 -0.0718849448
C  C47  1  0.67102000  0.97800000  0.87215000  1.0 -0.0718849448
C  C48  1  0.17102000  0.52200000  0.12785000  1.0 -0.0718849448
C  C49  1  0.87785000  0.27200000  0.92102000  1.0 -0.0718849448
C  C50  1  0.62215000  0.72800000  0.42102000  1.0 -0.0718849448
C  C51  1  0.12215000  0.77200000  0.57898000  1.0 -0.0718849448
C  C52  1  0.37785000  0.22800000  0.07898000  1.0 -0.0718849448
C  C53  1  0.92102000  0.87785000  0.27200000  1.0 -0.0718849448
C  C54  1  0.42102000  0.62215000  0.72800000  1.0 -0.0718849448
C  C55  1  0.57898000  0.12215000  0.77200000  1.0 -0.0718849448
C  C56  1  0.07898000  0.37785000  0.22800000  1.0 -0.0718849448
C  C57  1  0.27200000  0.92102000  0.87785000  1.0 -0.0718849448
C  C58  1  0.72800000  0.42102000  0.62215000  1.0 -0.0718849448
C  C59  1  0.77200000  0.57898000  0.12215000  1.0 -0.0718849448
C  C60  1  0.22800000  0.07898000  0.37785000  1.0 -0.0718849448
C  C61  1  0.52200000  0.62785000  0.82898000  1.0 -0.0718849448
C  C62  1  0.97800000  0.37215000  0.32898000  1.0 -0.0718849448
C  C63  1  0.02200000  0.87215000  0.17102000  1.0 -0.0718849448
C  C64  1  0.47800000  0.12785000  0.67102000  1.0 -0.0718849448
C  C65  1  0.12785000  0.67102000  0.47800000  1.0 -0.0718849448
C  C66  1  0.87215000  0.17102000  0.02200000  1.0 -0.0718849448
C  C67  1  0.37215000  0.32898000  0.97800000  1.0 -0.0718849448
C  C68  1  0.62785000  0.82898000  0.52200000  1.0 -0.0718849448
C  C69  1  0.17102000  0.02200000  0.87215000  1.0 -0.0718849448
C  C70  1  0.67102000  0.47800000  0.12785000  1.0 -0.0718849448
C  C71  1  0.82898000  0.52200000  0.62785000  1.0 -0.0718849448
C  C72  1  0.32898000  0.97800000  0.37215000  1.0 -0.0718849448
C  C73  1  0.37785000  0.77200000  0.42102000  1.0 -0.0718849448
C  C74  1  0.12215000  0.22800000  0.92102000  1.0 -0.0718849448
C  C75  1  0.62215000  0.27200000  0.07898000  1.0 -0.0718849448
C  C76  1  0.87785000  0.72800000  0.57898000  1.0 -0.0718849448
C  C77  1  0.42102000  0.37785000  0.77200000  1.0 -0.0718849448
C  C78  1  0.92102000  0.12215000  0.22800000  1.0 -0.0718849448
C  C79  1  0.07898000  0.62215000  0.27200000  1.0 -0.0718849448
C  C80  1  0.57898000  0.87785000  0.72800000  1.0 -0.0718849448
C  C81  1  0.77200000  0.42102000  0.37785000  1.0 -0.0718849448
C  C82  1  0.22800000  0.92102000  0.12215000  1.0 -0.0718849448
C  C83  1  0.27200000  0.07898000  0.62215000  1.0 -0.0718849448
C  C84  1  0.72800000  0.57898000  0.87785000  1.0 -0.0718849448
C  C85  1  0.02200000  0.12785000  0.32898000  1.0 -0.0718849448
C  C86  1  0.47800000  0.87215000  0.82898000  1.0 -0.0718849448
C  C87  1  0.52200000  0.37215000  0.67102000  1.0 -0.0718849448
C  C88  1  0.97800000  0.62785000  0.17102000  1.0 -0.0718849448
C  C89  1  0.62785000  0.17102000  0.97800000  1.0 -0.0718849448
C  C90  1  0.37215000  0.67102000  0.52200000  1.0 -0.0718849448
C  C91  1  0.87215000  0.82898000  0.47800000  1.0 -0.0718849448
C  C92  1  0.12785000  0.32898000  0.02200000  1.0 -0.0718849448
C  C93  1  0.67102000  0.52200000  0.37215000  1.0 -0.0718849448
C  C94  1  0.17102000  0.97800000  0.62785000  1.0 -0.0718849448
C  C95  1  0.32898000  0.02200000  0.12785000  1.0 -0.0718849448
C  C96  1  0.82898000  0.47800000  0.87215000  1.0 -0.0718849448
C  C97  1  0.09212000  0.73009000  0.10970000  1.0 -0.016715399
C  C98  1  0.40788000  0.26991000  0.60970000  1.0 -0.016715399
C  C99  1  0.90788000  0.23009000  0.39030000  1.0 -0.016715399
C  C100  1  0.59212000  0.76991000  0.89030000  1.0 -0.016715399
C  C101  1  0.10970000  0.09212000  0.73009000  1.0 -0.016715399
C  C102  1  0.60970000  0.40788000  0.26991000  1.0 -0.016715399
C  C103  1  0.39030000  0.90788000  0.23009000  1.0 -0.016715399
C  C104  1  0.89030000  0.59212000  0.76991000  1.0 -0.016715399
C  C105  1  0.73009000  0.10970000  0.09212000  1.0 -0.016715399
C  C106  1  0.26991000  0.60970000  0.40788000  1.0 -0.016715399
C  C107  1  0.23009000  0.39030000  0.90788000  1.0 -0.016715399
C  C108  1  0.76991000  0.89030000  0.59212000  1.0 -0.016715399
C  C109  1  0.48009000  0.34212000  0.14030000  1.0 -0.016715399
C  C110  1  0.01991000  0.65788000  0.64030000  1.0 -0.016715399
C  C111  1  0.98009000  0.15788000  0.85970000  1.0 -0.016715399
C  C112  1  0.51991000  0.84212000  0.35970000  1.0 -0.016715399
C  C113  1  0.84212000  0.35970000  0.51991000  1.0 -0.016715399
C  C114  1  0.15788000  0.85970000  0.98009000  1.0 -0.016715399
C  C115  1  0.65788000  0.64030000  0.01991000  1.0 -0.016715399
C  C116  1  0.34212000  0.14030000  0.48009000  1.0 -0.016715399
C  C117  1  0.85970000  0.98009000  0.15788000  1.0 -0.016715399
C  C118  1  0.35970000  0.51991000  0.84212000  1.0 -0.016715399
C  C119  1  0.14030000  0.48009000  0.34212000  1.0 -0.016715399
C  C120  1  0.64030000  0.01991000  0.65788000  1.0 -0.016715399
C  C121  1  0.59212000  0.23009000  0.60970000  1.0 -0.016715399
C  C122  1  0.90788000  0.76991000  0.10970000  1.0 -0.016715399
C  C123  1  0.40788000  0.73009000  0.89030000  1.0 -0.016715399
C  C124  1  0.09212000  0.26991000  0.39030000  1.0 -0.016715399
C  C125  1  0.60970000  0.59212000  0.23009000  1.0 -0.016715399
C  C126  1  0.10970000  0.90788000  0.76991000  1.0 -0.016715399
C  C127  1  0.89030000  0.40788000  0.73009000  1.0 -0.016715399
C  C128  1  0.39030000  0.09212000  0.26991000  1.0 -0.016715399
C  C129  1  0.23009000  0.60970000  0.59212000  1.0 -0.016715399
C  C130  1  0.76991000  0.10970000  0.90788000  1.0 -0.016715399
C  C131  1  0.73009000  0.89030000  0.40788000  1.0 -0.016715399
C  C132  1  0.26991000  0.39030000  0.09212000  1.0 -0.016715399
C  C133  1  0.98009000  0.84212000  0.64030000  1.0 -0.016715399
C  C134  1  0.51991000  0.15788000  0.14030000  1.0 -0.016715399
C  C135  1  0.48009000  0.65788000  0.35970000  1.0 -0.016715399
C  C136  1  0.01991000  0.34212000  0.85970000  1.0 -0.016715399
C  C137  1  0.34212000  0.85970000  0.01991000  1.0 -0.016715399
C  C138  1  0.65788000  0.35970000  0.48009000  1.0 -0.016715399
C  C139  1  0.15788000  0.14030000  0.51991000  1.0 -0.016715399
C  C140  1  0.84212000  0.64030000  0.98009000  1.0 -0.016715399
C  C141  1  0.35970000  0.48009000  0.65788000  1.0 -0.016715399
C  C142  1  0.85970000  0.01991000  0.34212000  1.0 -0.016715399
C  C143  1  0.64030000  0.98009000  0.84212000  1.0 -0.016715399
C  C144  1  0.14030000  0.51991000  0.15788000  1.0 -0.016715399
C  C145  1  0.90788000  0.26991000  0.89030000  1.0 -0.016715399
C  C146  1  0.59212000  0.73009000  0.39030000  1.0 -0.016715399
C  C147  1  0.09212000  0.76991000  0.60970000  1.0 -0.016715399
C  C148  1  0.40788000  0.23009000  0.10970000  1.0 -0.016715399
C  C149  1  0.89030000  0.90788000  0.26991000  1.0 -0.016715399
C  C150  1  0.39030000  0.59212000  0.73009000  1.0 -0.016715399
C  C151  1  0.60970000  0.09212000  0.76991000  1.0 -0.016715399
C  C152  1  0.10970000  0.40788000  0.23009000  1.0 -0.016715399
C  C153  1  0.26991000  0.89030000  0.90788000  1.0 -0.016715399
C  C154  1  0.73009000  0.39030000  0.59212000  1.0 -0.016715399
C  C155  1  0.76991000  0.60970000  0.09212000  1.0 -0.016715399
C  C156  1  0.23009000  0.10970000  0.40788000  1.0 -0.016715399
C  C157  1  0.51991000  0.65788000  0.85970000  1.0 -0.016715399
C  C158  1  0.98009000  0.34212000  0.35970000  1.0 -0.016715399
C  C159  1  0.01991000  0.84212000  0.14030000  1.0 -0.016715399
C  C160  1  0.48009000  0.15788000  0.64030000  1.0 -0.016715399
C  C161  1  0.15788000  0.64030000  0.48009000  1.0 -0.016715399
C  C162  1  0.84212000  0.14030000  0.01991000  1.0 -0.016715399
C  C163  1  0.34212000  0.35970000  0.98009000  1.0 -0.016715399
C  C164  1  0.65788000  0.85970000  0.51991000  1.0 -0.016715399
C  C165  1  0.14030000  0.01991000  0.84212000  1.0 -0.016715399
C  C166  1  0.64030000  0.48009000  0.15788000  1.0 -0.016715399
C  C167  1  0.85970000  0.51991000  0.65788000  1.0 -0.016715399
C  C168  1  0.35970000  0.98009000  0.34212000  1.0 -0.016715399
C  C169  1  0.40788000  0.76991000  0.39030000  1.0 -0.016715399
C  C170  1  0.09212000  0.23009000  0.89030000  1.0 -0.016715399
C  C171  1  0.59212000  0.26991000  0.10970000  1.0 -0.016715399
C  C172  1  0.90788000  0.73009000  0.60970000  1.0 -0.016715399
C  C173  1  0.39030000  0.40788000  0.76991000  1.0 -0.016715399
C  C174  1  0.89030000  0.09212000  0.23009000  1.0 -0.016715399
C  C175  1  0.10970000  0.59212000  0.26991000  1.0 -0.016715399
C  C176  1  0.60970000  0.90788000  0.73009000  1.0 -0.016715399
C  C177  1  0.76991000  0.39030000  0.40788000  1.0 -0.016715399
C  C178  1  0.23009000  0.89030000  0.09212000  1.0 -0.016715399
C  C179  1  0.26991000  0.10970000  0.59212000  1.0 -0.016715399
C  C180  1  0.73009000  0.60970000  0.90788000  1.0 -0.016715399
C  C181  1  0.01991000  0.15788000  0.35970000  1.0 -0.016715399
C  C182  1  0.48009000  0.84212000  0.85970000  1.0 -0.016715399
C  C183  1  0.51991000  0.34212000  0.64030000  1.0 -0.016715399
C  C184  1  0.98009000  0.65788000  0.14030000  1.0 -0.016715399
C  C185  1  0.65788000  0.14030000  0.98009000  1.0 -0.016715399
C  C186  1  0.34212000  0.64030000  0.51991000  1.0 -0.016715399
C  C187  1  0.84212000  0.85970000  0.48009000  1.0 -0.016715399
C  C188  1  0.15788000  0.35970000  0.01991000  1.0 -0.016715399
C  C189  1  0.64030000  0.51991000  0.34212000  1.0 -0.016715399
C  C190  1  0.14030000  0.98009000  0.65788000  1.0 -0.016715399
C  C191  1  0.35970000  0.01991000  0.15788000  1.0 -0.016715399
C  C192  1  0.85970000  0.48009000  0.84212000  1.0 -0.016715399
C  C193  1  0.06649000  0.76227000  0.05550000  1.0 0.3197705232
C  C194  1  0.43351000  0.23773000  0.55550000  1.0 0.3197705232
C  C195  1  0.93351000  0.26227000  0.44450000  1.0 0.3197705232
C  C196  1  0.56649000  0.73773000  0.94450000  1.0 0.3197705232
C  C197  1  0.05550000  0.06649000  0.76227000  1.0 0.3197705232
C  C198  1  0.55550000  0.43351000  0.23773000  1.0 0.3197705232
C  C199  1  0.44450000  0.93351000  0.26227000  1.0 0.3197705232
C  C200  1  0.94450000  0.56649000  0.73773000  1.0 0.3197705232
C  C201  1  0.76227000  0.05550000  0.06649000  1.0 0.3197705232
C  C202  1  0.23773000  0.55550000  0.43351000  1.0 0.3197705232
C  C203  1  0.26227000  0.44450000  0.93351000  1.0 0.3197705232
C  C204  1  0.73773000  0.94450000  0.56649000  1.0 0.3197705232
C  C205  1  0.51227000  0.31649000  0.19450000  1.0 0.3197705232
C  C206  1  0.98773000  0.68351000  0.69450000  1.0 0.3197705232
C  C207  1  0.01227000  0.18351000  0.80550000  1.0 0.3197705232
C  C208  1  0.48773000  0.81649000  0.30550000  1.0 0.3197705232
C  C209  1  0.81649000  0.30550000  0.48773000  1.0 0.3197705232
C  C210  1  0.18351000  0.80550000  0.01227000  1.0 0.3197705232
C  C211  1  0.68351000  0.69450000  0.98773000  1.0 0.3197705232
C  C212  1  0.31649000  0.19450000  0.51227000  1.0 0.3197705232
C  C213  1  0.80550000  0.01227000  0.18351000  1.0 0.3197705232
C  C214  1  0.30550000  0.48773000  0.81649000  1.0 0.3197705232
C  C215  1  0.19450000  0.51227000  0.31649000  1.0 0.3197705232
C  C216  1  0.69450000  0.98773000  0.68351000  1.0 0.3197705232
C  C217  1  0.56649000  0.26227000  0.55550000  1.0 0.3197705232
C  C218  1  0.93351000  0.73773000  0.05550000  1.0 0.3197705232
C  C219  1  0.43351000  0.76227000  0.94450000  1.0 0.3197705232
C  C220  1  0.06649000  0.23773000  0.44450000  1.0 0.3197705232
C  C221  1  0.55550000  0.56649000  0.26227000  1.0 0.3197705232
C  C222  1  0.05550000  0.93351000  0.73773000  1.0 0.3197705232
C  C223  1  0.94450000  0.43351000  0.76227000  1.0 0.3197705232
C  C224  1  0.44450000  0.06649000  0.23773000  1.0 0.3197705232
C  C225  1  0.26227000  0.55550000  0.56649000  1.0 0.3197705232
C  C226  1  0.73773000  0.05550000  0.93351000  1.0 0.3197705232
C  C227  1  0.76227000  0.94450000  0.43351000  1.0 0.3197705232
C  C228  1  0.23773000  0.44450000  0.06649000  1.0 0.3197705232
C  C229  1  0.01227000  0.81649000  0.69450000  1.0 0.3197705232
C  C230  1  0.48773000  0.18351000  0.19450000  1.0 0.3197705232
C  C231  1  0.51227000  0.68351000  0.30550000  1.0 0.3197705232
C  C232  1  0.98773000  0.31649000  0.80550000  1.0 0.3197705232
C  C233  1  0.31649000  0.80550000  0.98773000  1.0 0.3197705232
C  C234  1  0.68351000  0.30550000  0.51227000  1.0 0.3197705232
C  C235  1  0.18351000  0.19450000  0.48773000  1.0 0.3197705232
C  C236  1  0.81649000  0.69450000  0.01227000  1.0 0.3197705232
C  C237  1  0.30550000  0.51227000  0.68351000  1.0 0.3197705232
C  C238  1  0.80550000  0.98773000  0.31649000  1.0 0.3197705232
C  C239  1  0.69450000  0.01227000  0.81649000  1.0 0.3197705232
C  C240  1  0.19450000  0.48773000  0.18351000  1.0 0.3197705232
C  C241  1  0.93351000  0.23773000  0.94450000  1.0 0.3197705232
C  C242  1  0.56649000  0.76227000  0.44450000  1.0 0.3197705232
C  C243  1  0.06649000  0.73773000  0.55550000  1.0 0.3197705232
C  C244  1  0.43351000  0.26227000  0.05550000  1.0 0.3197705232
C  C245  1  0.94450000  0.93351000  0.23773000  1.0 0.3197705232
C  C246  1  0.44450000  0.56649000  0.76227000  1.0 0.3197705232
C  C247  1  0.55550000  0.06649000  0.73773000  1.0 0.3197705232
C  C248  1  0.05550000  0.43351000  0.26227000  1.0 0.3197705232
C  C249  1  0.23773000  0.94450000  0.93351000  1.0 0.3197705232
C  C250  1  0.76227000  0.44450000  0.56649000  1.0 0.3197705232
C  C251  1  0.73773000  0.55550000  0.06649000  1.0 0.3197705232
C  C252  1  0.26227000  0.05550000  0.43351000  1.0 0.3197705232
C  C253  1  0.48773000  0.68351000  0.80550000  1.0 0.3197705232
C  C254  1  0.01227000  0.31649000  0.30550000  1.0 0.3197705232
C  C255  1  0.98773000  0.81649000  0.19450000  1.0 0.3197705232
C  C256  1  0.51227000  0.18351000  0.69450000  1.0 0.3197705232
C  C257  1  0.18351000  0.69450000  0.51227000  1.0 0.3197705232
C  C258  1  0.81649000  0.19450000  0.98773000  1.0 0.3197705232
C  C259  1  0.31649000  0.30550000  0.01227000  1.0 0.3197705232
C  C260  1  0.68351000  0.80550000  0.48773000  1.0 0.3197705232
C  C261  1  0.19450000  0.98773000  0.81649000  1.0 0.3197705232
C  C262  1  0.69450000  0.51227000  0.18351000  1.0 0.3197705232
C  C263  1  0.80550000  0.48773000  0.68351000  1.0 0.3197705232
C  C264  1  0.30550000  0.01227000  0.31649000  1.0 0.3197705232
C  C265  1  0.43351000  0.73773000  0.44450000  1.0 0.3197705232
C  C266  1  0.06649000  0.26227000  0.94450000  1.0 0.3197705232
C  C267  1  0.56649000  0.23773000  0.05550000  1.0 0.3197705232
C  C268  1  0.93351000  0.76227000  0.55550000  1.0 0.3197705232
C  C269  1  0.44450000  0.43351000  0.73773000  1.0 0.3197705232
C  C270  1  0.94450000  0.06649000  0.26227000  1.0 0.3197705232
C  C271  1  0.05550000  0.56649000  0.23773000  1.0 0.3197705232
C  C272  1  0.55550000  0.93351000  0.76227000  1.0 0.3197705232
C  C273  1  0.73773000  0.44450000  0.43351000  1.0 0.3197705232
C  C274  1  0.26227000  0.94450000  0.06649000  1.0 0.3197705232
C  C275  1  0.23773000  0.05550000  0.56649000  1.0 0.3197705232
C  C276  1  0.76227000  0.55550000  0.93351000  1.0 0.3197705232
C  C277  1  0.98773000  0.18351000  0.30550000  1.0 0.3197705232
C  C278  1  0.51227000  0.81649000  0.80550000  1.0 0.3197705232
C  C279  1  0.48773000  0.31649000  0.69450000  1.0 0.3197705232
C  C280  1  0.01227000  0.68351000  0.19450000  1.0 0.3197705232
C  C281  1  0.68351000  0.19450000  0.01227000  1.0 0.3197705232
C  C282  1  0.31649000  0.69450000  0.48773000  1.0 0.3197705232
C  C283  1  0.81649000  0.80550000  0.51227000  1.0 0.3197705232
C  C284  1  0.18351000  0.30550000  0.98773000  1.0 0.3197705232
C  C285  1  0.69450000  0.48773000  0.31649000  1.0 0.3197705232
C  C286  1  0.19450000  0.01227000  0.68351000  1.0 0.3197705232
C  C287  1  0.30550000  0.98773000  0.18351000  1.0 0.3197705232
C  C288  1  0.80550000  0.51227000  0.81649000  1.0 0.3197705232
C  C289  1  0.98144000  0.81763000  0.00942000  1.0 0.1567414206
C  C290  1  0.51856000  0.18237000  0.50942000  1.0 0.1567414206
C  C291  1  0.01856000  0.31763000  0.49058000  1.0 0.1567414206
C  C292  1  0.48144000  0.68237000  0.99058000  1.0 0.1567414206
C  C293  1  0.00942000  0.98144000  0.81763000  1.0 0.1567414206
C  C294  1  0.50942000  0.51856000  0.18237000  1.0 0.1567414206
C  C295  1  0.49058000  0.01856000  0.31763000  1.0 0.1567414206
C  C296  1  0.99058000  0.48144000  0.68237000  1.0 0.1567414206
C  C297  1  0.81763000  0.00942000  0.98144000  1.0 0.1567414206
C  C298  1  0.18237000  0.50942000  0.51856000  1.0 0.1567414206
C  C299  1  0.31763000  0.49058000  0.01856000  1.0 0.1567414206
C  C300  1  0.68237000  0.99058000  0.48144000  1.0 0.1567414206
C  C301  1  0.56763000  0.23144000  0.24058000  1.0 0.1567414206
C  C302  1  0.93237000  0.76856000  0.74058000  1.0 0.1567414206
C  C303  1  0.06763000  0.26856000  0.75942000  1.0 0.1567414206
C  C304  1  0.43237000  0.73144000  0.25942000  1.0 0.1567414206
C  C305  1  0.73144000  0.25942000  0.43237000  1.0 0.1567414206
C  C306  1  0.26856000  0.75942000  0.06763000  1.0 0.1567414206
C  C307  1  0.76856000  0.74058000  0.93237000  1.0 0.1567414206
C  C308  1  0.23144000  0.24058000  0.56763000  1.0 0.1567414206
C  C309  1  0.75942000  0.06763000  0.26856000  1.0 0.1567414206
C  C310  1  0.25942000  0.43237000  0.73144000  1.0 0.1567414206
C  C311  1  0.24058000  0.56763000  0.23144000  1.0 0.1567414206
C  C312  1  0.74058000  0.93237000  0.76856000  1.0 0.1567414206
C  C313  1  0.48144000  0.31763000  0.50942000  1.0 0.1567414206
C  C314  1  0.01856000  0.68237000  0.00942000  1.0 0.1567414206
C  C315  1  0.51856000  0.81763000  0.99058000  1.0 0.1567414206
C  C316  1  0.98144000  0.18237000  0.49058000  1.0 0.1567414206
C  C317  1  0.50942000  0.48144000  0.31763000  1.0 0.1567414206
C  C318  1  0.00942000  0.01856000  0.68237000  1.0 0.1567414206
C  C319  1  0.99058000  0.51856000  0.81763000  1.0 0.1567414206
C  C320  1  0.49058000  0.98144000  0.18237000  1.0 0.1567414206
C  C321  1  0.31763000  0.50942000  0.48144000  1.0 0.1567414206
C  C322  1  0.68237000  0.00942000  0.01856000  1.0 0.1567414206
C  C323  1  0.81763000  0.99058000  0.51856000  1.0 0.1567414206
C  C324  1  0.18237000  0.49058000  0.98144000  1.0 0.1567414206
C  C325  1  0.06763000  0.73144000  0.74058000  1.0 0.1567414206
C  C326  1  0.43237000  0.26856000  0.24058000  1.0 0.1567414206
C  C327  1  0.56763000  0.76856000  0.25942000  1.0 0.1567414206
C  C328  1  0.93237000  0.23144000  0.75942000  1.0 0.1567414206
C  C329  1  0.23144000  0.75942000  0.93237000  1.0 0.1567414206
C  C330  1  0.76856000  0.25942000  0.56763000  1.0 0.1567414206
C  C331  1  0.26856000  0.24058000  0.43237000  1.0 0.1567414206
C  C332  1  0.73144000  0.74058000  0.06763000  1.0 0.1567414206
C  C333  1  0.25942000  0.56763000  0.76856000  1.0 0.1567414206
C  C334  1  0.75942000  0.93237000  0.23144000  1.0 0.1567414206
C  C335  1  0.74058000  0.06763000  0.73144000  1.0 0.1567414206
C  C336  1  0.24058000  0.43237000  0.26856000  1.0 0.1567414206
C  C337  1  0.01856000  0.18237000  0.99058000  1.0 0.1567414206
C  C338  1  0.48144000  0.81763000  0.49058000  1.0 0.1567414206
C  C339  1  0.98144000  0.68237000  0.50942000  1.0 0.1567414206
C  C340  1  0.51856000  0.31763000  0.00942000  1.0 0.1567414206
C  C341  1  0.99058000  0.01856000  0.18237000  1.0 0.1567414206
C  C342  1  0.49058000  0.48144000  0.81763000  1.0 0.1567414206
C  C343  1  0.50942000  0.98144000  0.68237000  1.0 0.1567414206
C  C344  1  0.00942000  0.51856000  0.31763000  1.0 0.1567414206
C  C345  1  0.18237000  0.99058000  0.01856000  1.0 0.1567414206
C  C346  1  0.81763000  0.49058000  0.48144000  1.0 0.1567414206
C  C347  1  0.68237000  0.50942000  0.98144000  1.0 0.1567414206
C  C348  1  0.31763000  0.00942000  0.51856000  1.0 0.1567414206
C  C349  1  0.43237000  0.76856000  0.75942000  1.0 0.1567414206
C  C350  1  0.06763000  0.23144000  0.25942000  1.0 0.1567414206
C  C351  1  0.93237000  0.73144000  0.24058000  1.0 0.1567414206
C  C352  1  0.56763000  0.26856000  0.74058000  1.0 0.1567414206
C  C353  1  0.26856000  0.74058000  0.56763000  1.0 0.1567414206
C  C354  1  0.73144000  0.24058000  0.93237000  1.0 0.1567414206
C  C355  1  0.23144000  0.25942000  0.06763000  1.0 0.1567414206
C  C356  1  0.76856000  0.75942000  0.43237000  1.0 0.1567414206
C  C357  1  0.24058000  0.93237000  0.73144000  1.0 0.1567414206
C  C358  1  0.74058000  0.56763000  0.26856000  1.0 0.1567414206
C  C359  1  0.75942000  0.43237000  0.76856000  1.0 0.1567414206
C  C360  1  0.25942000  0.06763000  0.23144000  1.0 0.1567414206
C  C361  1  0.51856000  0.68237000  0.49058000  1.0 0.1567414206
C  C362  1  0.98144000  0.31763000  0.99058000  1.0 0.1567414206
C  C363  1  0.48144000  0.18237000  0.00942000  1.0 0.1567414206
C  C364  1  0.01856000  0.81763000  0.50942000  1.0 0.1567414206
C  C365  1  0.49058000  0.51856000  0.68237000  1.0 0.1567414206
C  C366  1  0.99058000  0.98144000  0.31763000  1.0 0.1567414206
C  C367  1  0.00942000  0.48144000  0.18237000  1.0 0.1567414206
C  C368  1  0.50942000  0.01856000  0.81763000  1.0 0.1567414206
C  C369  1  0.68237000  0.49058000  0.51856000  1.0 0.1567414206
C  C370  1  0.31763000  0.99058000  0.98144000  1.0 0.1567414206
C  C371  1  0.18237000  0.00942000  0.48144000  1.0 0.1567414206
C  C372  1  0.81763000  0.50942000  0.01856000  1.0 0.1567414206
C  C373  1  0.93237000  0.26856000  0.25942000  1.0 0.1567414206
C  C374  1  0.56763000  0.73144000  0.75942000  1.0 0.1567414206
C  C375  1  0.43237000  0.23144000  0.74058000  1.0 0.1567414206
C  C376  1  0.06763000  0.76856000  0.24058000  1.0 0.1567414206
C  C377  1  0.76856000  0.24058000  0.06763000  1.0 0.1567414206
C  C378  1  0.23144000  0.74058000  0.43237000  1.0 0.1567414206
C  C379  1  0.73144000  0.75942000  0.56763000  1.0 0.1567414206
C  C380  1  0.26856000  0.25942000  0.93237000  1.0 0.1567414206
C  C381  1  0.74058000  0.43237000  0.23144000  1.0 0.1567414206
C  C382  1  0.24058000  0.06763000  0.76856000  1.0 0.1567414206
C  C383  1  0.25942000  0.93237000  0.26856000  1.0 0.1567414206
C  C384  1  0.75942000  0.56763000  0.73144000  1.0 0.1567414206
C  C385  1  0.98503000  0.80960000  0.96636000  1.0 -0.1311097193
C  C386  1  0.51497000  0.19040000  0.46636000  1.0 -0.1311097193
C  C387  1  0.01497000  0.30960000  0.53364000  1.0 -0.1311097193
C  C388  1  0.48503000  0.69040000  0.03364000  1.0 -0.1311097193
C  C389  1  0.96636000  0.98503000  0.80960000  1.0 -0.1311097193
C  C390  1  0.46636000  0.51497000  0.19040000  1.0 -0.1311097193
C  C391  1  0.53364000  0.01497000  0.30960000  1.0 -0.1311097193
C  C392  1  0.03364000  0.48503000  0.69040000  1.0 -0.1311097193
C  C393  1  0.80960000  0.96636000  0.98503000  1.0 -0.1311097193
C  C394  1  0.19040000  0.46636000  0.51497000  1.0 -0.1311097193
C  C395  1  0.30960000  0.53364000  0.01497000  1.0 -0.1311097193
C  C396  1  0.69040000  0.03364000  0.48503000  1.0 -0.1311097193
C  C397  1  0.55960000  0.23503000  0.28364000  1.0 -0.1311097193
C  C398  1  0.94040000  0.76497000  0.78364000  1.0 -0.1311097193
C  C399  1  0.05960000  0.26497000  0.71636000  1.0 -0.1311097193
C  C400  1  0.44040000  0.73503000  0.21636000  1.0 -0.1311097193
C  C401  1  0.73503000  0.21636000  0.44040000  1.0 -0.1311097193
C  C402  1  0.26497000  0.71636000  0.05960000  1.0 -0.1311097193
C  C403  1  0.76497000  0.78364000  0.94040000  1.0 -0.1311097193
C  C404  1  0.23503000  0.28364000  0.55960000  1.0 -0.1311097193
C  C405  1  0.71636000  0.05960000  0.26497000  1.0 -0.1311097193
C  C406  1  0.21636000  0.44040000  0.73503000  1.0 -0.1311097193
C  C407  1  0.28364000  0.55960000  0.23503000  1.0 -0.1311097193
C  C408  1  0.78364000  0.94040000  0.76497000  1.0 -0.1311097193
C  C409  1  0.48503000  0.30960000  0.46636000  1.0 -0.1311097193
C  C410  1  0.01497000  0.69040000  0.96636000  1.0 -0.1311097193
C  C411  1  0.51497000  0.80960000  0.03364000  1.0 -0.1311097193
C  C412  1  0.98503000  0.19040000  0.53364000  1.0 -0.1311097193
C  C413  1  0.46636000  0.48503000  0.30960000  1.0 -0.1311097193
C  C414  1  0.96636000  0.01497000  0.69040000  1.0 -0.1311097193
C  C415  1  0.03364000  0.51497000  0.80960000  1.0 -0.1311097193
C  C416  1  0.53364000  0.98503000  0.19040000  1.0 -0.1311097193
C  C417  1  0.30960000  0.46636000  0.48503000  1.0 -0.1311097193
C  C418  1  0.69040000  0.96636000  0.01497000  1.0 -0.1311097193
C  C419  1  0.80960000  0.03364000  0.51497000  1.0 -0.1311097193
C  C420  1  0.19040000  0.53364000  0.98503000  1.0 -0.1311097193
C  C421  1  0.05960000  0.73503000  0.78364000  1.0 -0.1311097193
C  C422  1  0.44040000  0.26497000  0.28364000  1.0 -0.1311097193
C  C423  1  0.55960000  0.76497000  0.21636000  1.0 -0.1311097193
C  C424  1  0.94040000  0.23503000  0.71636000  1.0 -0.1311097193
C  C425  1  0.23503000  0.71636000  0.94040000  1.0 -0.1311097193
C  C426  1  0.76497000  0.21636000  0.55960000  1.0 -0.1311097193
C  C427  1  0.26497000  0.28364000  0.44040000  1.0 -0.1311097193
C  C428  1  0.73503000  0.78364000  0.05960000  1.0 -0.1311097193
C  C429  1  0.21636000  0.55960000  0.76497000  1.0 -0.1311097193
C  C430  1  0.71636000  0.94040000  0.23503000  1.0 -0.1311097193
C  C431  1  0.78364000  0.05960000  0.73503000  1.0 -0.1311097193
C  C432  1  0.28364000  0.44040000  0.26497000  1.0 -0.1311097193
C  C433  1  0.01497000  0.19040000  0.03364000  1.0 -0.1311097193
C  C434  1  0.48503000  0.80960000  0.53364000  1.0 -0.1311097193
C  C435  1  0.98503000  0.69040000  0.46636000  1.0 -0.1311097193
C  C436  1  0.51497000  0.30960000  0.96636000  1.0 -0.1311097193
C  C437  1  0.03364000  0.01497000  0.19040000  1.0 -0.1311097193
C  C438  1  0.53364000  0.48503000  0.80960000  1.0 -0.1311097193
C  C439  1  0.46636000  0.98503000  0.69040000  1.0 -0.1311097193
C  C440  1  0.96636000  0.51497000  0.30960000  1.0 -0.1311097193
C  C441  1  0.19040000  0.03364000  0.01497000  1.0 -0.1311097193
C  C442  1  0.80960000  0.53364000  0.48503000  1.0 -0.1311097193
C  C443  1  0.69040000  0.46636000  0.98503000  1.0 -0.1311097193
C  C444  1  0.30960000  0.96636000  0.51497000  1.0 -0.1311097193
C  C445  1  0.44040000  0.76497000  0.71636000  1.0 -0.1311097193
C  C446  1  0.05960000  0.23503000  0.21636000  1.0 -0.1311097193
C  C447  1  0.94040000  0.73503000  0.28364000  1.0 -0.1311097193
C  C448  1  0.55960000  0.26497000  0.78364000  1.0 -0.1311097193
C  C449  1  0.26497000  0.78364000  0.55960000  1.0 -0.1311097193
C  C450  1  0.73503000  0.28364000  0.94040000  1.0 -0.1311097193
C  C451  1  0.23503000  0.21636000  0.05960000  1.0 -0.1311097193
C  C452  1  0.76497000  0.71636000  0.44040000  1.0 -0.1311097193
C  C453  1  0.28364000  0.94040000  0.73503000  1.0 -0.1311097193
C  C454  1  0.78364000  0.55960000  0.26497000  1.0 -0.1311097193
C  C455  1  0.71636000  0.44040000  0.76497000  1.0 -0.1311097193
C  C456  1  0.21636000  0.05960000  0.23503000  1.0 -0.1311097193
C  C457  1  0.51497000  0.69040000  0.53364000  1.0 -0.1311097193
C  C458  1  0.98503000  0.30960000  0.03364000  1.0 -0.1311097193
C  C459  1  0.48503000  0.19040000  0.96636000  1.0 -0.1311097193
C  C460  1  0.01497000  0.80960000  0.46636000  1.0 -0.1311097193
C  C461  1  0.53364000  0.51497000  0.69040000  1.0 -0.1311097193
C  C462  1  0.03364000  0.98503000  0.30960000  1.0 -0.1311097193
C  C463  1  0.96636000  0.48503000  0.19040000  1.0 -0.1311097193
C  C464  1  0.46636000  0.01497000  0.80960000  1.0 -0.1311097193
C  C465  1  0.69040000  0.53364000  0.51497000  1.0 -0.1311097193
C  C466  1  0.30960000  0.03364000  0.98503000  1.0 -0.1311097193
C  C467  1  0.19040000  0.96636000  0.48503000  1.0 -0.1311097193
C  C468  1  0.80960000  0.46636000  0.01497000  1.0 -0.1311097193
C  C469  1  0.94040000  0.26497000  0.21636000  1.0 -0.1311097193
C  C470  1  0.55960000  0.73503000  0.71636000  1.0 -0.1311097193
C  C471  1  0.44040000  0.23503000  0.78364000  1.0 -0.1311097193
C  C472  1  0.05960000  0.76497000  0.28364000  1.0 -0.1311097193
C  C473  1  0.76497000  0.28364000  0.05960000  1.0 -0.1311097193
C  C474  1  0.23503000  0.78364000  0.44040000  1.0 -0.1311097193
C  C475  1  0.73503000  0.71636000  0.55960000  1.0 -0.1311097193
C  C476  1  0.26497000  0.21636000  0.94040000  1.0 -0.1311097193
C  C477  1  0.78364000  0.44040000  0.23503000  1.0 -0.1311097193
C  C478  1  0.28364000  0.05960000  0.76497000  1.0 -0.1311097193
C  C479  1  0.21636000  0.94040000  0.26497000  1.0 -0.1311097193
C  C480  1  0.71636000  0.55960000  0.73503000  1.0 -0.1311097193
C  C481  1  0.95596000  0.82717000  0.93894000  1.0 -0.0718849448
C  C482  1  0.54404000  0.17283000  0.43894000  1.0 -0.0718849448
C  C483  1  0.04404000  0.32717000  0.56106000  1.0 -0.0718849448
C  C484  1  0.45596000  0.67283000  0.06106000  1.0 -0.0718849448
C  C485  1  0.93894000  0.95596000  0.82717000  1.0 -0.0718849448
C  C486  1  0.43894000  0.54404000  0.17283000  1.0 -0.0718849448
C  C487  1  0.56106000  0.04404000  0.32717000  1.0 -0.0718849448
C  C488  1  0.06106000  0.45596000  0.67283000  1.0 -0.0718849448
C  C489  1  0.82717000  0.93894000  0.95596000  1.0 -0.0718849448
C  C490  1  0.17283000  0.43894000  0.54404000  1.0 -0.0718849448
C  C491  1  0.32717000  0.56106000  0.04404000  1.0 -0.0718849448
C  C492  1  0.67283000  0.06106000  0.45596000  1.0 -0.0718849448
C  C493  1  0.57717000  0.20596000  0.31106000  1.0 -0.0718849448
C  C494  1  0.92283000  0.79404000  0.81106000  1.0 -0.0718849448
C  C495  1  0.07717000  0.29404000  0.68894000  1.0 -0.0718849448
C  C496  1  0.42283000  0.70596000  0.18894000  1.0 -0.0718849448
C  C497  1  0.70596000  0.18894000  0.42283000  1.0 -0.0718849448
C  C498  1  0.29404000  0.68894000  0.07717000  1.0 -0.0718849448
C  C499  1  0.79404000  0.81106000  0.92283000  1.0 -0.0718849448
C  C500  1  0.20596000  0.31106000  0.57717000  1.0 -0.0718849448
C  C501  1  0.68894000  0.07717000  0.29404000  1.0 -0.0718849448
C  C502  1  0.18894000  0.42283000  0.70596000  1.0 -0.0718849448
C  C503  1  0.31106000  0.57717000  0.20596000  1.0 -0.0718849448
C  C504  1  0.81106000  0.92283000  0.79404000  1.0 -0.0718849448
C  C505  1  0.45596000  0.32717000  0.43894000  1.0 -0.0718849448
C  C506  1  0.04404000  0.67283000  0.93894000  1.0 -0.0718849448
C  C507  1  0.54404000  0.82717000  0.06106000  1.0 -0.0718849448
C  C508  1  0.95596000  0.17283000  0.56106000  1.0 -0.0718849448
C  C509  1  0.43894000  0.45596000  0.32717000  1.0 -0.0718849448
C  C510  1  0.93894000  0.04404000  0.67283000  1.0 -0.0718849448
C  C511  1  0.06106000  0.54404000  0.82717000  1.0 -0.0718849448
C  C512  1  0.56106000  0.95596000  0.17283000  1.0 -0.0718849448
C  C513  1  0.32717000  0.43894000  0.45596000  1.0 -0.0718849448
C  C514  1  0.67283000  0.93894000  0.04404000  1.0 -0.0718849448
C  C515  1  0.82717000  0.06106000  0.54404000  1.0 -0.0718849448
C  C516  1  0.17283000  0.56106000  0.95596000  1.0 -0.0718849448
C  C517  1  0.07717000  0.70596000  0.81106000  1.0 -0.0718849448
C  C518  1  0.42283000  0.29404000  0.31106000  1.0 -0.0718849448
C  C519  1  0.57717000  0.79404000  0.18894000  1.0 -0.0718849448
C  C520  1  0.92283000  0.20596000  0.68894000  1.0 -0.0718849448
C  C521  1  0.20596000  0.68894000  0.92283000  1.0 -0.0718849448
C  C522  1  0.79404000  0.18894000  0.57717000  1.0 -0.0718849448
C  C523  1  0.29404000  0.31106000  0.42283000  1.0 -0.0718849448
C  C524  1  0.70596000  0.81106000  0.07717000  1.0 -0.0718849448
C  C525  1  0.18894000  0.57717000  0.79404000  1.0 -0.0718849448
C  C526  1  0.68894000  0.92283000  0.20596000  1.0 -0.0718849448
C  C527  1  0.81106000  0.07717000  0.70596000  1.0 -0.0718849448
C  C528  1  0.31106000  0.42283000  0.29404000  1.0 -0.0718849448
C  C529  1  0.04404000  0.17283000  0.06106000  1.0 -0.0718849448
C  C530  1  0.45596000  0.82717000  0.56106000  1.0 -0.0718849448
C  C531  1  0.95596000  0.67283000  0.43894000  1.0 -0.0718849448
C  C532  1  0.54404000  0.32717000  0.93894000  1.0 -0.0718849448
C  C533  1  0.06106000  0.04404000  0.17283000  1.0 -0.0718849448
C  C534  1  0.56106000  0.45596000  0.82717000  1.0 -0.0718849448
C  C535  1  0.43894000  0.95596000  0.67283000  1.0 -0.0718849448
C  C536  1  0.93894000  0.54404000  0.32717000  1.0 -0.0718849448
C  C537  1  0.17283000  0.06106000  0.04404000  1.0 -0.0718849448
C  C538  1  0.82717000  0.56106000  0.45596000  1.0 -0.0718849448
C  C539  1  0.67283000  0.43894000  0.95596000  1.0 -0.0718849448
C  C540  1  0.32717000  0.93894000  0.54404000  1.0 -0.0718849448
C  C541  1  0.42283000  0.79404000  0.68894000  1.0 -0.0718849448
C  C542  1  0.07717000  0.20596000  0.18894000  1.0 -0.0718849448
C  C543  1  0.92283000  0.70596000  0.31106000  1.0 -0.0718849448
C  C544  1  0.57717000  0.29404000  0.81106000  1.0 -0.0718849448
C  C545  1  0.29404000  0.81106000  0.57717000  1.0 -0.0718849448
C  C546  1  0.70596000  0.31106000  0.92283000  1.0 -0.0718849448
C  C547  1  0.20596000  0.18894000  0.07717000  1.0 -0.0718849448
C  C548  1  0.79404000  0.68894000  0.42283000  1.0 -0.0718849448
C  C549  1  0.31106000  0.92283000  0.70596000  1.0 -0.0718849448
C  C550  1  0.81106000  0.57717000  0.29404000  1.0 -0.0718849448
C  C551  1  0.68894000  0.42283000  0.79404000  1.0 -0.0718849448
C  C552  1  0.18894000  0.07717000  0.20596000  1.0 -0.0718849448
C  C553  1  0.54404000  0.67283000  0.56106000  1.0 -0.0718849448
C  C554  1  0.95596000  0.32717000  0.06106000  1.0 -0.0718849448
C  C555  1  0.45596000  0.17283000  0.93894000  1.0 -0.0718849448
C  C556  1  0.04404000  0.82717000  0.43894000  1.0 -0.0718849448
C  C557  1  0.56106000  0.54404000  0.67283000  1.0 -0.0718849448
C  C558  1  0.06106000  0.95596000  0.32717000  1.0 -0.0718849448
C  C559  1  0.93894000  0.45596000  0.17283000  1.0 -0.0718849448
C  C560  1  0.43894000  0.04404000  0.82717000  1.0 -0.0718849448
C  C561  1  0.67283000  0.56106000  0.54404000  1.0 -0.0718849448
C  C562  1  0.32717000  0.06106000  0.95596000  1.0 -0.0718849448
C  C563  1  0.17283000  0.93894000  0.45596000  1.0 -0.0718849448
C  C564  1  0.82717000  0.43894000  0.04404000  1.0 -0.0718849448
C  C565  1  0.92283000  0.29404000  0.18894000  1.0 -0.0718849448
C  C566  1  0.57717000  0.70596000  0.68894000  1.0 -0.0718849448
C  C567  1  0.42283000  0.20596000  0.81106000  1.0 -0.0718849448
C  C568  1  0.07717000  0.79404000  0.31106000  1.0 -0.0718849448
C  C569  1  0.79404000  0.31106000  0.07717000  1.0 -0.0718849448
C  C570  1  0.20596000  0.81106000  0.42283000  1.0 -0.0718849448
C  C571  1  0.70596000  0.68894000  0.57717000  1.0 -0.0718849448
C  C572  1  0.29404000  0.18894000  0.92283000  1.0 -0.0718849448
C  C573  1  0.81106000  0.42283000  0.20596000  1.0 -0.0718849448
C  C574  1  0.31106000  0.07717000  0.79404000  1.0 -0.0718849448
C  C575  1  0.18894000  0.92283000  0.29404000  1.0 -0.0718849448
C  C576  1  0.68894000  0.57717000  0.70596000  1.0 -0.0718849448
C  C577  1  0.92342000  0.85295000  0.95445000  1.0 -0.1027298285
C  C578  1  0.57658000  0.14705000  0.45445000  1.0 -0.1027298285
C  C579  1  0.07658000  0.35295000  0.54555000  1.0 -0.1027298285
C  C580  1  0.42342000  0.64705000  0.04555000  1.0 -0.1027298285
C  C581  1  0.95445000  0.92342000  0.85295000  1.0 -0.1027298285
C  C582  1  0.45445000  0.57658000  0.14705000  1.0 -0.1027298285
C  C583  1  0.54555000  0.07658000  0.35295000  1.0 -0.1027298285
C  C584  1  0.04555000  0.42342000  0.64705000  1.0 -0.1027298285
C  C585  1  0.85295000  0.95445000  0.92342000  1.0 -0.1027298285
C  C586  1  0.14705000  0.45445000  0.57658000  1.0 -0.1027298285
C  C587  1  0.35295000  0.54555000  0.07658000  1.0 -0.1027298285
C  C588  1  0.64705000  0.04555000  0.42342000  1.0 -0.1027298285
C  C589  1  0.60295000  0.17342000  0.29555000  1.0 -0.1027298285
C  C590  1  0.89705000  0.82658000  0.79555000  1.0 -0.1027298285
C  C591  1  0.10295000  0.32658000  0.70445000  1.0 -0.1027298285
C  C592  1  0.39705000  0.67342000  0.20445000  1.0 -0.1027298285
C  C593  1  0.67342000  0.20445000  0.39705000  1.0 -0.1027298285
C  C594  1  0.32658000  0.70445000  0.10295000  1.0 -0.1027298285
C  C595  1  0.82658000  0.79555000  0.89705000  1.0 -0.1027298285
C  C596  1  0.17342000  0.29555000  0.60295000  1.0 -0.1027298285
C  C597  1  0.70445000  0.10295000  0.32658000  1.0 -0.1027298285
C  C598  1  0.20445000  0.39705000  0.67342000  1.0 -0.1027298285
C  C599  1  0.29555000  0.60295000  0.17342000  1.0 -0.1027298285
C  C600  1  0.79555000  0.89705000  0.82658000  1.0 -0.1027298285
C  C601  1  0.42342000  0.35295000  0.45445000  1.0 -0.1027298285
C  C602  1  0.07658000  0.64705000  0.95445000  1.0 -0.1027298285
C  C603  1  0.57658000  0.85295000  0.04555000  1.0 -0.1027298285
C  C604  1  0.92342000  0.14705000  0.54555000  1.0 -0.1027298285
C  C605  1  0.45445000  0.42342000  0.35295000  1.0 -0.1027298285
C  C606  1  0.95445000  0.07658000  0.64705000  1.0 -0.1027298285
C  C607  1  0.04555000  0.57658000  0.85295000  1.0 -0.1027298285
C  C608  1  0.54555000  0.92342000  0.14705000  1.0 -0.1027298285
C  C609  1  0.35295000  0.45445000  0.42342000  1.0 -0.1027298285
C  C610  1  0.64705000  0.95445000  0.07658000  1.0 -0.1027298285
C  C611  1  0.85295000  0.04555000  0.57658000  1.0 -0.1027298285
C  C612  1  0.14705000  0.54555000  0.92342000  1.0 -0.1027298285
C  C613  1  0.10295000  0.67342000  0.79555000  1.0 -0.1027298285
C  C614  1  0.39705000  0.32658000  0.29555000  1.0 -0.1027298285
C  C615  1  0.60295000  0.82658000  0.20445000  1.0 -0.1027298285
C  C616  1  0.89705000  0.17342000  0.70445000  1.0 -0.1027298285
C  C617  1  0.17342000  0.70445000  0.89705000  1.0 -0.1027298285
C  C618  1  0.82658000  0.20445000  0.60295000  1.0 -0.1027298285
C  C619  1  0.32658000  0.29555000  0.39705000  1.0 -0.1027298285
C  C620  1  0.67342000  0.79555000  0.10295000  1.0 -0.1027298285
C  C621  1  0.20445000  0.60295000  0.82658000  1.0 -0.1027298285
C  C622  1  0.70445000  0.89705000  0.17342000  1.0 -0.1027298285
C  C623  1  0.79555000  0.10295000  0.67342000  1.0 -0.1027298285
C  C624  1  0.29555000  0.39705000  0.32658000  1.0 -0.1027298285
C  C625  1  0.07658000  0.14705000  0.04555000  1.0 -0.1027298285
C  C626  1  0.42342000  0.85295000  0.54555000  1.0 -0.1027298285
C  C627  1  0.92342000  0.64705000  0.45445000  1.0 -0.1027298285
C  C628  1  0.57658000  0.35295000  0.95445000  1.0 -0.1027298285
C  C629  1  0.04555000  0.07658000  0.14705000  1.0 -0.1027298285
C  C630  1  0.54555000  0.42342000  0.85295000  1.0 -0.1027298285
C  C631  1  0.45445000  0.92342000  0.64705000  1.0 -0.1027298285
C  C632  1  0.95445000  0.57658000  0.35295000  1.0 -0.1027298285
C  C633  1  0.14705000  0.04555000  0.07658000  1.0 -0.1027298285
C  C634  1  0.85295000  0.54555000  0.42342000  1.0 -0.1027298285
C  C635  1  0.64705000  0.45445000  0.92342000  1.0 -0.1027298285
C  C636  1  0.35295000  0.95445000  0.57658000  1.0 -0.1027298285
C  C637  1  0.39705000  0.82658000  0.70445000  1.0 -0.1027298285
C  C638  1  0.10295000  0.17342000  0.20445000  1.0 -0.1027298285
C  C639  1  0.89705000  0.67342000  0.29555000  1.0 -0.1027298285
C  C640  1  0.60295000  0.32658000  0.79555000  1.0 -0.1027298285
C  C641  1  0.32658000  0.79555000  0.60295000  1.0 -0.1027298285
C  C642  1  0.67342000  0.29555000  0.89705000  1.0 -0.1027298285
C  C643  1  0.17342000  0.20445000  0.10295000  1.0 -0.1027298285
C  C644  1  0.82658000  0.70445000  0.39705000  1.0 -0.1027298285
C  C645  1  0.29555000  0.89705000  0.67342000  1.0 -0.1027298285
C  C646  1  0.79555000  0.60295000  0.32658000  1.0 -0.1027298285
C  C647  1  0.70445000  0.39705000  0.82658000  1.0 -0.1027298285
C  C648  1  0.20445000  0.10295000  0.17342000  1.0 -0.1027298285
C  C649  1  0.57658000  0.64705000  0.54555000  1.0 -0.1027298285
C  C650  1  0.92342000  0.35295000  0.04555000  1.0 -0.1027298285
C  C651  1  0.42342000  0.14705000  0.95445000  1.0 -0.1027298285
C  C652  1  0.07658000  0.85295000  0.45445000  1.0 -0.1027298285
C  C653  1  0.54555000  0.57658000  0.64705000  1.0 -0.1027298285
C  C654  1  0.04555000  0.92342000  0.35295000  1.0 -0.1027298285
C  C655  1  0.95445000  0.42342000  0.14705000  1.0 -0.1027298285
C  C656  1  0.45445000  0.07658000  0.85295000  1.0 -0.1027298285
C  C657  1  0.64705000  0.54555000  0.57658000  1.0 -0.1027298285
C  C658  1  0.35295000  0.04555000  0.92342000  1.0 -0.1027298285
C  C659  1  0.14705000  0.95445000  0.42342000  1.0 -0.1027298285
C  C660  1  0.85295000  0.45445000  0.07658000  1.0 -0.1027298285
C  C661  1  0.89705000  0.32658000  0.20445000  1.0 -0.1027298285
C  C662  1  0.60295000  0.67342000  0.70445000  1.0 -0.1027298285
C  C663  1  0.39705000  0.17342000  0.79555000  1.0 -0.1027298285
C  C664  1  0.10295000  0.82658000  0.29555000  1.0 -0.1027298285
C  C665  1  0.82658000  0.29555000  0.10295000  1.0 -0.1027298285
C  C666  1  0.17342000  0.79555000  0.39705000  1.0 -0.1027298285
C  C667  1  0.67342000  0.70445000  0.60295000  1.0 -0.1027298285
C  C668  1  0.32658000  0.20445000  0.89705000  1.0 -0.1027298285
C  C669  1  0.79555000  0.39705000  0.17342000  1.0 -0.1027298285
C  C670  1  0.29555000  0.10295000  0.82658000  1.0 -0.1027298285
C  C671  1  0.20445000  0.89705000  0.32658000  1.0 -0.1027298285
C  C672  1  0.70445000  0.60295000  0.67342000  1.0 -0.1027298285
C  C673  1  0.91980000  0.86059000  0.99719000  1.0 -0.0718849448
C  C674  1  0.58020000  0.13941000  0.49719000  1.0 -0.0718849448
C  C675  1  0.08020000  0.36059000  0.50281000  1.0 -0.0718849448
C  C676  1  0.41980000  0.63941000  0.00281000  1.0 -0.0718849448
C  C677  1  0.99719000  0.91980000  0.86059000  1.0 -0.0718849448
C  C678  1  0.49719000  0.58020000  0.13941000  1.0 -0.0718849448
C  C679  1  0.50281000  0.08020000  0.36059000  1.0 -0.0718849448
C  C680  1  0.00281000  0.41980000  0.63941000  1.0 -0.0718849448
C  C681  1  0.86059000  0.99719000  0.91980000  1.0 -0.0718849448
C  C682  1  0.13941000  0.49719000  0.58020000  1.0 -0.0718849448
C  C683  1  0.36059000  0.50281000  0.08020000  1.0 -0.0718849448
C  C684  1  0.63941000  0.00281000  0.41980000  1.0 -0.0718849448
C  C685  1  0.61059000  0.16980000  0.25281000  1.0 -0.0718849448
C  C686  1  0.88941000  0.83020000  0.75281000  1.0 -0.0718849448
C  C687  1  0.11059000  0.33020000  0.74719000  1.0 -0.0718849448
C  C688  1  0.38941000  0.66980000  0.24719000  1.0 -0.0718849448
C  C689  1  0.66980000  0.24719000  0.38941000  1.0 -0.0718849448
C  C690  1  0.33020000  0.74719000  0.11059000  1.0 -0.0718849448
C  C691  1  0.83020000  0.75281000  0.88941000  1.0 -0.0718849448
C  C692  1  0.16980000  0.25281000  0.61059000  1.0 -0.0718849448
C  C693  1  0.74719000  0.11059000  0.33020000  1.0 -0.0718849448
C  C694  1  0.24719000  0.38941000  0.66980000  1.0 -0.0718849448
C  C695  1  0.25281000  0.61059000  0.16980000  1.0 -0.0718849448
C  C696  1  0.75281000  0.88941000  0.83020000  1.0 -0.0718849448
C  C697  1  0.41980000  0.36059000  0.49719000  1.0 -0.0718849448
C  C698  1  0.08020000  0.63941000  0.99719000  1.0 -0.0718849448
C  C699  1  0.58020000  0.86059000  0.00281000  1.0 -0.0718849448
C  C700  1  0.91980000  0.13941000  0.50281000  1.0 -0.0718849448
C  C701  1  0.49719000  0.41980000  0.36059000  1.0 -0.0718849448
C  C702  1  0.99719000  0.08020000  0.63941000  1.0 -0.0718849448
C  C703  1  0.00281000  0.58020000  0.86059000  1.0 -0.0718849448
C  C704  1  0.50281000  0.91980000  0.13941000  1.0 -0.0718849448
C  C705  1  0.36059000  0.49719000  0.41980000  1.0 -0.0718849448
C  C706  1  0.63941000  0.99719000  0.08020000  1.0 -0.0718849448
C  C707  1  0.86059000  0.00281000  0.58020000  1.0 -0.0718849448
C  C708  1  0.13941000  0.50281000  0.91980000  1.0 -0.0718849448
C  C709  1  0.11059000  0.66980000  0.75281000  1.0 -0.0718849448
C  C710  1  0.38941000  0.33020000  0.25281000  1.0 -0.0718849448
C  C711  1  0.61059000  0.83020000  0.24719000  1.0 -0.0718849448
C  C712  1  0.88941000  0.16980000  0.74719000  1.0 -0.0718849448
C  C713  1  0.16980000  0.74719000  0.88941000  1.0 -0.0718849448
C  C714  1  0.83020000  0.24719000  0.61059000  1.0 -0.0718849448
C  C715  1  0.33020000  0.25281000  0.38941000  1.0 -0.0718849448
C  C716  1  0.66980000  0.75281000  0.11059000  1.0 -0.0718849448
C  C717  1  0.24719000  0.61059000  0.83020000  1.0 -0.0718849448
C  C718  1  0.74719000  0.88941000  0.16980000  1.0 -0.0718849448
C  C719  1  0.75281000  0.11059000  0.66980000  1.0 -0.0718849448
C  C720  1  0.25281000  0.38941000  0.33020000  1.0 -0.0718849448
C  C721  1  0.08020000  0.13941000  0.00281000  1.0 -0.0718849448
C  C722  1  0.41980000  0.86059000  0.50281000  1.0 -0.0718849448
C  C723  1  0.91980000  0.63941000  0.49719000  1.0 -0.0718849448
C  C724  1  0.58020000  0.36059000  0.99719000  1.0 -0.0718849448
C  C725  1  0.00281000  0.08020000  0.13941000  1.0 -0.0718849448
C  C726  1  0.50281000  0.41980000  0.86059000  1.0 -0.0718849448
C  C727  1  0.49719000  0.91980000  0.63941000  1.0 -0.0718849448
C  C728  1  0.99719000  0.58020000  0.36059000  1.0 -0.0718849448
C  C729  1  0.13941000  0.00281000  0.08020000  1.0 -0.0718849448
C  C730  1  0.86059000  0.50281000  0.41980000  1.0 -0.0718849448
C  C731  1  0.63941000  0.49719000  0.91980000  1.0 -0.0718849448
C  C732  1  0.36059000  0.99719000  0.58020000  1.0 -0.0718849448
C  C733  1  0.38941000  0.83020000  0.74719000  1.0 -0.0718849448
C  C734  1  0.11059000  0.16980000  0.24719000  1.0 -0.0718849448
C  C735  1  0.88941000  0.66980000  0.25281000  1.0 -0.0718849448
C  C736  1  0.61059000  0.33020000  0.75281000  1.0 -0.0718849448
C  C737  1  0.33020000  0.75281000  0.61059000  1.0 -0.0718849448
C  C738  1  0.66980000  0.25281000  0.88941000  1.0 -0.0718849448
C  C739  1  0.16980000  0.24719000  0.11059000  1.0 -0.0718849448
C  C740  1  0.83020000  0.74719000  0.38941000  1.0 -0.0718849448
C  C741  1  0.25281000  0.88941000  0.66980000  1.0 -0.0718849448
C  C742  1  0.75281000  0.61059000  0.33020000  1.0 -0.0718849448
C  C743  1  0.74719000  0.38941000  0.83020000  1.0 -0.0718849448
C  C744  1  0.24719000  0.11059000  0.16980000  1.0 -0.0718849448
C  C745  1  0.58020000  0.63941000  0.50281000  1.0 -0.0718849448
C  C746  1  0.91980000  0.36059000  0.00281000  1.0 -0.0718849448
C  C747  1  0.41980000  0.13941000  0.99719000  1.0 -0.0718849448
C  C748  1  0.08020000  0.86059000  0.49719000  1.0 -0.0718849448
C  C749  1  0.50281000  0.58020000  0.63941000  1.0 -0.0718849448
C  C750  1  0.00281000  0.91980000  0.36059000  1.0 -0.0718849448
C  C751  1  0.99719000  0.41980000  0.13941000  1.0 -0.0718849448
C  C752  1  0.49719000  0.08020000  0.86059000  1.0 -0.0718849448
C  C753  1  0.63941000  0.50281000  0.58020000  1.0 -0.0718849448
C  C754  1  0.36059000  0.00281000  0.91980000  1.0 -0.0718849448
C  C755  1  0.13941000  0.99719000  0.41980000  1.0 -0.0718849448
C  C756  1  0.86059000  0.49719000  0.08020000  1.0 -0.0718849448
C  C757  1  0.88941000  0.33020000  0.24719000  1.0 -0.0718849448
C  C758  1  0.61059000  0.66980000  0.74719000  1.0 -0.0718849448
C  C759  1  0.38941000  0.16980000  0.75281000  1.0 -0.0718849448
C  C760  1  0.11059000  0.83020000  0.25281000  1.0 -0.0718849448
C  C761  1  0.83020000  0.25281000  0.11059000  1.0 -0.0718849448
C  C762  1  0.16980000  0.75281000  0.38941000  1.0 -0.0718849448
C  C763  1  0.66980000  0.74719000  0.61059000  1.0 -0.0718849448
C  C764  1  0.33020000  0.24719000  0.88941000  1.0 -0.0718849448
C  C765  1  0.75281000  0.38941000  0.16980000  1.0 -0.0718849448
C  C766  1  0.25281000  0.11059000  0.83020000  1.0 -0.0718849448
C  C767  1  0.24719000  0.88941000  0.33020000  1.0 -0.0718849448
C  C768  1  0.74719000  0.61059000  0.66980000  1.0 -0.0718849448
C  C769  1  0.94884000  0.84279000  0.02509000  1.0 -0.1503177215
C  C770  1  0.55116000  0.15721000  0.52509000  1.0 -0.1503177215
C  C771  1  0.05116000  0.34279000  0.47491000  1.0 -0.1503177215
C  C772  1  0.44884000  0.65721000  0.97491000  1.0 -0.1503177215
C  C773  1  0.02509000  0.94884000  0.84279000  1.0 -0.1503177215
C  C774  1  0.52509000  0.55116000  0.15721000  1.0 -0.1503177215
C  C775  1  0.47491000  0.05116000  0.34279000  1.0 -0.1503177215
C  C776  1  0.97491000  0.44884000  0.65721000  1.0 -0.1503177215
C  C777  1  0.84279000  0.02509000  0.94884000  1.0 -0.1503177215
C  C778  1  0.15721000  0.52509000  0.55116000  1.0 -0.1503177215
C  C779  1  0.34279000  0.47491000  0.05116000  1.0 -0.1503177215
C  C780  1  0.65721000  0.97491000  0.44884000  1.0 -0.1503177215
C  C781  1  0.59279000  0.19884000  0.22491000  1.0 -0.1503177215
C  C782  1  0.90721000  0.80116000  0.72491000  1.0 -0.1503177215
C  C783  1  0.09279000  0.30116000  0.77509000  1.0 -0.1503177215
C  C784  1  0.40721000  0.69884000  0.27509000  1.0 -0.1503177215
C  C785  1  0.69884000  0.27509000  0.40721000  1.0 -0.1503177215
C  C786  1  0.30116000  0.77509000  0.09279000  1.0 -0.1503177215
C  C787  1  0.80116000  0.72491000  0.90721000  1.0 -0.1503177215
C  C788  1  0.19884000  0.22491000  0.59279000  1.0 -0.1503177215
C  C789  1  0.77509000  0.09279000  0.30116000  1.0 -0.1503177215
C  C790  1  0.27509000  0.40721000  0.69884000  1.0 -0.1503177215
C  C791  1  0.22491000  0.59279000  0.19884000  1.0 -0.1503177215
C  C792  1  0.72491000  0.90721000  0.80116000  1.0 -0.1503177215
C  C793  1  0.44884000  0.34279000  0.52509000  1.0 -0.1503177215
C  C794  1  0.05116000  0.65721000  0.02509000  1.0 -0.1503177215
C  C795  1  0.55116000  0.84279000  0.97491000  1.0 -0.1503177215
C  C796  1  0.94884000  0.15721000  0.47491000  1.0 -0.1503177215
C  C797  1  0.52509000  0.44884000  0.34279000  1.0 -0.1503177215
C  C798  1  0.02509000  0.05116000  0.65721000  1.0 -0.1503177215
C  C799  1  0.97491000  0.55116000  0.84279000  1.0 -0.1503177215
C  C800  1  0.47491000  0.94884000  0.15721000  1.0 -0.1503177215
C  C801  1  0.34279000  0.52509000  0.44884000  1.0 -0.1503177215
C  C802  1  0.65721000  0.02509000  0.05116000  1.0 -0.1503177215
C  C803  1  0.84279000  0.97491000  0.55116000  1.0 -0.1503177215
C  C804  1  0.15721000  0.47491000  0.94884000  1.0 -0.1503177215
C  C805  1  0.09279000  0.69884000  0.72491000  1.0 -0.1503177215
C  C806  1  0.40721000  0.30116000  0.22491000  1.0 -0.1503177215
C  C807  1  0.59279000  0.80116000  0.27509000  1.0 -0.1503177215
C  C808  1  0.90721000  0.19884000  0.77509000  1.0 -0.1503177215
C  C809  1  0.19884000  0.77509000  0.90721000  1.0 -0.1503177215
C  C810  1  0.80116000  0.27509000  0.59279000  1.0 -0.1503177215
C  C811  1  0.30116000  0.22491000  0.40721000  1.0 -0.1503177215
C  C812  1  0.69884000  0.72491000  0.09279000  1.0 -0.1503177215
C  C813  1  0.27509000  0.59279000  0.80116000  1.0 -0.1503177215
C  C814  1  0.77509000  0.90721000  0.19884000  1.0 -0.1503177215
C  C815  1  0.72491000  0.09279000  0.69884000  1.0 -0.1503177215
C  C816  1  0.22491000  0.40721000  0.30116000  1.0 -0.1503177215
C  C817  1  0.05116000  0.15721000  0.97491000  1.0 -0.1503177215
C  C818  1  0.44884000  0.84279000  0.47491000  1.0 -0.1503177215
C  C819  1  0.94884000  0.65721000  0.52509000  1.0 -0.1503177215
C  C820  1  0.55116000  0.34279000  0.02509000  1.0 -0.1503177215
C  C821  1  0.97491000  0.05116000  0.15721000  1.0 -0.1503177215
C  C822  1  0.47491000  0.44884000  0.84279000  1.0 -0.1503177215
C  C823  1  0.52509000  0.94884000  0.65721000  1.0 -0.1503177215
C  C824  1  0.02509000  0.55116000  0.34279000  1.0 -0.1503177215
C  C825  1  0.15721000  0.97491000  0.05116000  1.0 -0.1503177215
C  C826  1  0.84279000  0.47491000  0.44884000  1.0 -0.1503177215
C  C827  1  0.65721000  0.52509000  0.94884000  1.0 -0.1503177215
C  C828  1  0.34279000  0.02509000  0.55116000  1.0 -0.1503177215
C  C829  1  0.40721000  0.80116000  0.77509000  1.0 -0.1503177215
C  C830  1  0.09279000  0.19884000  0.27509000  1.0 -0.1503177215
C  C831  1  0.90721000  0.69884000  0.22491000  1.0 -0.1503177215
C  C832  1  0.59279000  0.30116000  0.72491000  1.0 -0.1503177215
C  C833  1  0.30116000  0.72491000  0.59279000  1.0 -0.1503177215
C  C834  1  0.69884000  0.22491000  0.90721000  1.0 -0.1503177215
C  C835  1  0.19884000  0.27509000  0.09279000  1.0 -0.1503177215
C  C836  1  0.80116000  0.77509000  0.40721000  1.0 -0.1503177215
C  C837  1  0.22491000  0.90721000  0.69884000  1.0 -0.1503177215
C  C838  1  0.72491000  0.59279000  0.30116000  1.0 -0.1503177215
C  C839  1  0.77509000  0.40721000  0.80116000  1.0 -0.1503177215
C  C840  1  0.27509000  0.09279000  0.19884000  1.0 -0.1503177215
C  C841  1  0.55116000  0.65721000  0.47491000  1.0 -0.1503177215
C  C842  1  0.94884000  0.34279000  0.97491000  1.0 -0.1503177215
C  C843  1  0.44884000  0.15721000  0.02509000  1.0 -0.1503177215
C  C844  1  0.05116000  0.84279000  0.52509000  1.0 -0.1503177215
C  C845  1  0.47491000  0.55116000  0.65721000  1.0 -0.1503177215
C  C846  1  0.97491000  0.94884000  0.34279000  1.0 -0.1503177215
C  C847  1  0.02509000  0.44884000  0.15721000  1.0 -0.1503177215
C  C848  1  0.52509000  0.05116000  0.84279000  1.0 -0.1503177215
C  C849  1  0.65721000  0.47491000  0.55116000  1.0 -0.1503177215
C  C850  1  0.34279000  0.97491000  0.94884000  1.0 -0.1503177215
C  C851  1  0.15721000  0.02509000  0.44884000  1.0 -0.1503177215
C  C852  1  0.84279000  0.52509000  0.05116000  1.0 -0.1503177215
C  C853  1  0.90721000  0.30116000  0.27509000  1.0 -0.1503177215
C  C854  1  0.59279000  0.69884000  0.77509000  1.0 -0.1503177215
C  C855  1  0.40721000  0.19884000  0.72491000  1.0 -0.1503177215
C  C856  1  0.09279000  0.80116000  0.22491000  1.0 -0.1503177215
C  C857  1  0.80116000  0.22491000  0.09279000  1.0 -0.1503177215
C  C858  1  0.19884000  0.72491000  0.40721000  1.0 -0.1503177215
C  C859  1  0.69884000  0.77509000  0.59279000  1.0 -0.1503177215
C  C860  1  0.30116000  0.27509000  0.90721000  1.0 -0.1503177215
C  C861  1  0.72491000  0.40721000  0.19884000  1.0 -0.1503177215
C  C862  1  0.22491000  0.09279000  0.80116000  1.0 -0.1503177215
C  C863  1  0.27509000  0.90721000  0.30116000  1.0 -0.1503177215
C  C864  1  0.77509000  0.59279000  0.69884000  1.0 -0.1503177215
C  C865  1  0.12500000  0.75303000  0.00303000  1.0 0.0062904771
C  C866  1  0.37500000  0.24697000  0.50303000  1.0 0.0062904771
C  C867  1  0.87500000  0.25303000  0.49697000  1.0 0.0062904771
C  C868  1  0.62500000  0.74697000  0.99697000  1.0 0.0062904771
C  C869  1  0.00303000  0.12500000  0.75303000  1.0 0.0062904771
C  C870  1  0.50303000  0.37500000  0.24697000  1.0 0.0062904771
C  C871  1  0.49697000  0.87500000  0.25303000  1.0 0.0062904771
C  C872  1  0.99697000  0.62500000  0.74697000  1.0 0.0062904771
C  C873  1  0.75303000  0.00303000  0.12500000  1.0 0.0062904771
C  C874  1  0.24697000  0.50303000  0.37500000  1.0 0.0062904771
C  C875  1  0.25303000  0.49697000  0.87500000  1.0 0.0062904771
C  C876  1  0.74697000  0.99697000  0.62500000  1.0 0.0062904771
C  C877  1  0.62500000  0.25303000  0.50303000  1.0 0.0062904771
C  C878  1  0.87500000  0.74697000  0.00303000  1.0 0.0062904771
C  C879  1  0.37500000  0.75303000  0.99697000  1.0 0.0062904771
C  C880  1  0.12500000  0.24697000  0.49697000  1.0 0.0062904771
C  C881  1  0.50303000  0.62500000  0.25303000  1.0 0.0062904771
C  C882  1  0.00303000  0.87500000  0.74697000  1.0 0.0062904771
C  C883  1  0.99697000  0.37500000  0.75303000  1.0 0.0062904771
C  C884  1  0.49697000  0.12500000  0.24697000  1.0 0.0062904771
C  C885  1  0.25303000  0.50303000  0.62500000  1.0 0.0062904771
C  C886  1  0.74697000  0.00303000  0.87500000  1.0 0.0062904771
C  C887  1  0.75303000  0.99697000  0.37500000  1.0 0.0062904771
C  C888  1  0.24697000  0.49697000  0.12500000  1.0 0.0062904771
C  C889  1  0.87500000  0.24697000  0.99697000  1.0 0.0062904771
C  C890  1  0.62500000  0.75303000  0.49697000  1.0 0.0062904771
C  C891  1  0.12500000  0.74697000  0.50303000  1.0 0.0062904771
C  C892  1  0.37500000  0.25303000  0.00303000  1.0 0.0062904771
C  C893  1  0.99697000  0.87500000  0.24697000  1.0 0.0062904771
C  C894  1  0.49697000  0.62500000  0.75303000  1.0 0.0062904771
C  C895  1  0.50303000  0.12500000  0.74697000  1.0 0.0062904771
C  C896  1  0.00303000  0.37500000  0.25303000  1.0 0.0062904771
C  C897  1  0.24697000  0.99697000  0.87500000  1.0 0.0062904771
C  C898  1  0.75303000  0.49697000  0.62500000  1.0 0.0062904771
C  C899  1  0.74697000  0.50303000  0.12500000  1.0 0.0062904771
C  C900  1  0.25303000  0.00303000  0.37500000  1.0 0.0062904771
C  C901  1  0.37500000  0.74697000  0.49697000  1.0 0.0062904771
C  C902  1  0.12500000  0.25303000  0.99697000  1.0 0.0062904771
C  C903  1  0.62500000  0.24697000  0.00303000  1.0 0.0062904771
C  C904  1  0.87500000  0.75303000  0.50303000  1.0 0.0062904771
C  C905  1  0.49697000  0.37500000  0.74697000  1.0 0.0062904771
C  C906  1  0.99697000  0.12500000  0.25303000  1.0 0.0062904771
C  C907  1  0.00303000  0.62500000  0.24697000  1.0 0.0062904771
C  C908  1  0.50303000  0.87500000  0.75303000  1.0 0.0062904771
C  C909  1  0.74697000  0.49697000  0.37500000  1.0 0.0062904771
C  C910  1  0.25303000  0.99697000  0.12500000  1.0 0.0062904771
C  C911  1  0.24697000  0.00303000  0.62500000  1.0 0.0062904771
C  C912  1  0.75303000  0.50303000  0.87500000  1.0 0.0062904771
N  N1  1  0.10534000  0.74834000  0.04428000  1.0 -0.0366855261
N  N2  1  0.39466000  0.25166000  0.54428000  1.0 -0.0366855261
N  N3  1  0.89466000  0.24834000  0.45572000  1.0 -0.0366855261
N  N4  1  0.60534000  0.75166000  0.95572000  1.0 -0.0366855261
N  N5  1  0.04428000  0.10534000  0.74834000  1.0 -0.0366855261
N  N6  1  0.54428000  0.39466000  0.25166000  1.0 -0.0366855261
N  N7  1  0.45572000  0.89466000  0.24834000  1.0 -0.0366855261
N  N8  1  0.95572000  0.60534000  0.75166000  1.0 -0.0366855261
N  N9  1  0.74834000  0.04428000  0.10534000  1.0 -0.0366855261
N  N10  1  0.25166000  0.54428000  0.39466000  1.0 -0.0366855261
N  N11  1  0.24834000  0.45572000  0.89466000  1.0 -0.0366855261
N  N12  1  0.75166000  0.95572000  0.60534000  1.0 -0.0366855261
N  N13  1  0.49834000  0.35534000  0.20572000  1.0 -0.0366855261
N  N14  1  0.00166000  0.64466000  0.70572000  1.0 -0.0366855261
N  N15  1  0.99834000  0.14466000  0.79428000  1.0 -0.0366855261
N  N16  1  0.50166000  0.85534000  0.29428000  1.0 -0.0366855261
N  N17  1  0.85534000  0.29428000  0.50166000  1.0 -0.0366855261
N  N18  1  0.14466000  0.79428000  0.99834000  1.0 -0.0366855261
N  N19  1  0.64466000  0.70572000  0.00166000  1.0 -0.0366855261
N  N20  1  0.35534000  0.20572000  0.49834000  1.0 -0.0366855261
N  N21  1  0.79428000  0.99834000  0.14466000  1.0 -0.0366855261
N  N22  1  0.29428000  0.50166000  0.85534000  1.0 -0.0366855261
N  N23  1  0.20572000  0.49834000  0.35534000  1.0 -0.0366855261
N  N24  1  0.70572000  0.00166000  0.64466000  1.0 -0.0366855261
N  N25  1  0.60534000  0.24834000  0.54428000  1.0 -0.0366855261
N  N26  1  0.89466000  0.75166000  0.04428000  1.0 -0.0366855261
N  N27  1  0.39466000  0.74834000  0.95572000  1.0 -0.0366855261
N  N28  1  0.10534000  0.25166000  0.45572000  1.0 -0.0366855261
N  N29  1  0.54428000  0.60534000  0.24834000  1.0 -0.0366855261
N  N30  1  0.04428000  0.89466000  0.75166000  1.0 -0.0366855261
N  N31  1  0.95572000  0.39466000  0.74834000  1.0 -0.0366855261
N  N32  1  0.45572000  0.10534000  0.25166000  1.0 -0.0366855261
N  N33  1  0.24834000  0.54428000  0.60534000  1.0 -0.0366855261
N  N34  1  0.75166000  0.04428000  0.89466000  1.0 -0.0366855261
N  N35  1  0.74834000  0.95572000  0.39466000  1.0 -0.0366855261
N  N36  1  0.25166000  0.45572000  0.10534000  1.0 -0.0366855261
N  N37  1  0.99834000  0.85534000  0.70572000  1.0 -0.0366855261
N  N38  1  0.50166000  0.14466000  0.20572000  1.0 -0.0366855261
N  N39  1  0.49834000  0.64466000  0.29428000  1.0 -0.0366855261
N  N40  1  0.00166000  0.35534000  0.79428000  1.0 -0.0366855261
N  N41  1  0.35534000  0.79428000  0.00166000  1.0 -0.0366855261
N  N42  1  0.64466000  0.29428000  0.49834000  1.0 -0.0366855261
N  N43  1  0.14466000  0.20572000  0.50166000  1.0 -0.0366855261
N  N44  1  0.85534000  0.70572000  0.99834000  1.0 -0.0366855261
N  N45  1  0.29428000  0.49834000  0.64466000  1.0 -0.0366855261
N  N46  1  0.79428000  0.00166000  0.35534000  1.0 -0.0366855261
N  N47  1  0.70572000  0.99834000  0.85534000  1.0 -0.0366855261
N  N48  1  0.20572000  0.50166000  0.14466000  1.0 -0.0366855261
N  N49  1  0.89466000  0.25166000  0.95572000  1.0 -0.0366855261
N  N50  1  0.60534000  0.74834000  0.45572000  1.0 -0.0366855261
N  N51  1  0.10534000  0.75166000  0.54428000  1.0 -0.0366855261
N  N52  1  0.39466000  0.24834000  0.04428000  1.0 -0.0366855261
N  N53  1  0.95572000  0.89466000  0.25166000  1.0 -0.0366855261
N  N54  1  0.45572000  0.60534000  0.74834000  1.0 -0.0366855261
N  N55  1  0.54428000  0.10534000  0.75166000  1.0 -0.0366855261
N  N56  1  0.04428000  0.39466000  0.24834000  1.0 -0.0366855261
N  N57  1  0.25166000  0.95572000  0.89466000  1.0 -0.0366855261
N  N58  1  0.74834000  0.45572000  0.60534000  1.0 -0.0366855261
N  N59  1  0.75166000  0.54428000  0.10534000  1.0 -0.0366855261
N  N60  1  0.24834000  0.04428000  0.39466000  1.0 -0.0366855261
N  N61  1  0.50166000  0.64466000  0.79428000  1.0 -0.0366855261
N  N62  1  0.99834000  0.35534000  0.29428000  1.0 -0.0366855261
N  N63  1  0.00166000  0.85534000  0.20572000  1.0 -0.0366855261
N  N64  1  0.49834000  0.14466000  0.70572000  1.0 -0.0366855261
N  N65  1  0.14466000  0.70572000  0.49834000  1.0 -0.0366855261
N  N66  1  0.85534000  0.20572000  0.00166000  1.0 -0.0366855261
N  N67  1  0.35534000  0.29428000  0.99834000  1.0 -0.0366855261
N  N68  1  0.64466000  0.79428000  0.50166000  1.0 -0.0366855261
N  N69  1  0.20572000  0.00166000  0.85534000  1.0 -0.0366855261
N  N70  1  0.70572000  0.49834000  0.14466000  1.0 -0.0366855261
N  N71  1  0.79428000  0.50166000  0.64466000  1.0 -0.0366855261
N  N72  1  0.29428000  0.99834000  0.35534000  1.0 -0.0366855261
N  N73  1  0.39466000  0.75166000  0.45572000  1.0 -0.0366855261
N  N74  1  0.10534000  0.24834000  0.95572000  1.0 -0.0366855261
N  N75  1  0.60534000  0.25166000  0.04428000  1.0 -0.0366855261
N  N76  1  0.89466000  0.74834000  0.54428000  1.0 -0.0366855261
N  N77  1  0.45572000  0.39466000  0.75166000  1.0 -0.0366855261
N  N78  1  0.95572000  0.10534000  0.24834000  1.0 -0.0366855261
N  N79  1  0.04428000  0.60534000  0.25166000  1.0 -0.0366855261
N  N80  1  0.54428000  0.89466000  0.74834000  1.0 -0.0366855261
N  N81  1  0.75166000  0.45572000  0.39466000  1.0 -0.0366855261
N  N82  1  0.24834000  0.95572000  0.10534000  1.0 -0.0366855261
N  N83  1  0.25166000  0.04428000  0.60534000  1.0 -0.0366855261
N  N84  1  0.74834000  0.54428000  0.89466000  1.0 -0.0366855261
N  N85  1  0.00166000  0.14466000  0.29428000  1.0 -0.0366855261
N  N86  1  0.49834000  0.85534000  0.79428000  1.0 -0.0366855261
N  N87  1  0.50166000  0.35534000  0.70572000  1.0 -0.0366855261
N  N88  1  0.99834000  0.64466000  0.20572000  1.0 -0.0366855261
N  N89  1  0.64466000  0.20572000  0.99834000  1.0 -0.0366855261
N  N90  1  0.35534000  0.70572000  0.50166000  1.0 -0.0366855261
N  N91  1  0.85534000  0.79428000  0.49834000  1.0 -0.0366855261
N  N92  1  0.14466000  0.29428000  0.00166000  1.0 -0.0366855261
N  N93  1  0.70572000  0.50166000  0.35534000  1.0 -0.0366855261
N  N94  1  0.20572000  0.99834000  0.64466000  1.0 -0.0366855261
N  N95  1  0.29428000  0.00166000  0.14466000  1.0 -0.0366855261
N  N96  1  0.79428000  0.49834000  0.85534000  1.0 -0.0366855261
N  N97  1  0.05694000  0.75105000  0.09496000  1.0 -0.3543650006
N  N98  1  0.44306000  0.24895000  0.59496000  1.0 -0.3543650006
N  N99  1  0.94306000  0.25105000  0.40504000  1.0 -0.3543650006
N  N100  1  0.55694000  0.74895000  0.90504000  1.0 -0.3543650006
N  N101  1  0.09496000  0.05694000  0.75105000  1.0 -0.3543650006
N  N102  1  0.59496000  0.44306000  0.24895000  1.0 -0.3543650006
N  N103  1  0.40504000  0.94306000  0.25105000  1.0 -0.3543650006
N  N104  1  0.90504000  0.55694000  0.74895000  1.0 -0.3543650006
N  N105  1  0.75105000  0.09496000  0.05694000  1.0 -0.3543650006
N  N106  1  0.24895000  0.59496000  0.44306000  1.0 -0.3543650006
N  N107  1  0.25105000  0.40504000  0.94306000  1.0 -0.3543650006
N  N108  1  0.74895000  0.90504000  0.55694000  1.0 -0.3543650006
N  N109  1  0.50105000  0.30694000  0.15504000  1.0 -0.3543650006
N  N110  1  0.99895000  0.69306000  0.65504000  1.0 -0.3543650006
N  N111  1  0.00105000  0.19306000  0.84496000  1.0 -0.3543650006
N  N112  1  0.49895000  0.80694000  0.34496000  1.0 -0.3543650006
N  N113  1  0.80694000  0.34496000  0.49895000  1.0 -0.3543650006
N  N114  1  0.19306000  0.84496000  0.00105000  1.0 -0.3543650006
N  N115  1  0.69306000  0.65504000  0.99895000  1.0 -0.3543650006
N  N116  1  0.30694000  0.15504000  0.50105000  1.0 -0.3543650006
N  N117  1  0.84496000  0.00105000  0.19306000  1.0 -0.3543650006
N  N118  1  0.34496000  0.49895000  0.80694000  1.0 -0.3543650006
N  N119  1  0.15504000  0.50105000  0.30694000  1.0 -0.3543650006
N  N120  1  0.65504000  0.99895000  0.69306000  1.0 -0.3543650006
N  N121  1  0.55694000  0.25105000  0.59496000  1.0 -0.3543650006
N  N122  1  0.94306000  0.74895000  0.09496000  1.0 -0.3543650006
N  N123  1  0.44306000  0.75105000  0.90504000  1.0 -0.3543650006
N  N124  1  0.05694000  0.24895000  0.40504000  1.0 -0.3543650006
N  N125  1  0.59496000  0.55694000  0.25105000  1.0 -0.3543650006
N  N126  1  0.09496000  0.94306000  0.74895000  1.0 -0.3543650006
N  N127  1  0.90504000  0.44306000  0.75105000  1.0 -0.3543650006
N  N128  1  0.40504000  0.05694000  0.24895000  1.0 -0.3543650006
N  N129  1  0.25105000  0.59496000  0.55694000  1.0 -0.3543650006
N  N130  1  0.74895000  0.09496000  0.94306000  1.0 -0.3543650006
N  N131  1  0.75105000  0.90504000  0.44306000  1.0 -0.3543650006
N  N132  1  0.24895000  0.40504000  0.05694000  1.0 -0.3543650006
N  N133  1  0.00105000  0.80694000  0.65504000  1.0 -0.3543650006
N  N134  1  0.49895000  0.19306000  0.15504000  1.0 -0.3543650006
N  N135  1  0.50105000  0.69306000  0.34496000  1.0 -0.3543650006
N  N136  1  0.99895000  0.30694000  0.84496000  1.0 -0.3543650006
N  N137  1  0.30694000  0.84496000  0.99895000  1.0 -0.3543650006
N  N138  1  0.69306000  0.34496000  0.50105000  1.0 -0.3543650006
N  N139  1  0.19306000  0.15504000  0.49895000  1.0 -0.3543650006
N  N140  1  0.80694000  0.65504000  0.00105000  1.0 -0.3543650006
N  N141  1  0.34496000  0.50105000  0.69306000  1.0 -0.3543650006
N  N142  1  0.84496000  0.99895000  0.30694000  1.0 -0.3543650006
N  N143  1  0.65504000  0.00105000  0.80694000  1.0 -0.3543650006
N  N144  1  0.15504000  0.49895000  0.19306000  1.0 -0.3543650006
N  N145  1  0.94306000  0.24895000  0.90504000  1.0 -0.3543650006
N  N146  1  0.55694000  0.75105000  0.40504000  1.0 -0.3543650006
N  N147  1  0.05694000  0.74895000  0.59496000  1.0 -0.3543650006
N  N148  1  0.44306000  0.25105000  0.09496000  1.0 -0.3543650006
N  N149  1  0.90504000  0.94306000  0.24895000  1.0 -0.3543650006
N  N150  1  0.40504000  0.55694000  0.75105000  1.0 -0.3543650006
N  N151  1  0.59496000  0.05694000  0.74895000  1.0 -0.3543650006
N  N152  1  0.09496000  0.44306000  0.25105000  1.0 -0.3543650006
N  N153  1  0.24895000  0.90504000  0.94306000  1.0 -0.3543650006
N  N154  1  0.75105000  0.40504000  0.55694000  1.0 -0.3543650006
N  N155  1  0.74895000  0.59496000  0.05694000  1.0 -0.3543650006
N  N156  1  0.25105000  0.09496000  0.44306000  1.0 -0.3543650006
N  N157  1  0.49895000  0.69306000  0.84496000  1.0 -0.3543650006
N  N158  1  0.00105000  0.30694000  0.34496000  1.0 -0.3543650006
N  N159  1  0.99895000  0.80694000  0.15504000  1.0 -0.3543650006
N  N160  1  0.50105000  0.19306000  0.65504000  1.0 -0.3543650006
N  N161  1  0.19306000  0.65504000  0.50105000  1.0 -0.3543650006
N  N162  1  0.80694000  0.15504000  0.99895000  1.0 -0.3543650006
N  N163  1  0.30694000  0.34496000  0.00105000  1.0 -0.3543650006
N  N164  1  0.69306000  0.84496000  0.49895000  1.0 -0.3543650006
N  N165  1  0.15504000  0.99895000  0.80694000  1.0 -0.3543650006
N  N166  1  0.65504000  0.50105000  0.19306000  1.0 -0.3543650006
N  N167  1  0.84496000  0.49895000  0.69306000  1.0 -0.3543650006
N  N168  1  0.34496000  0.00105000  0.30694000  1.0 -0.3543650006
N  N169  1  0.44306000  0.74895000  0.40504000  1.0 -0.3543650006
N  N170  1  0.05694000  0.25105000  0.90504000  1.0 -0.3543650006
N  N171  1  0.55694000  0.24895000  0.09496000  1.0 -0.3543650006
N  N172  1  0.94306000  0.75105000  0.59496000  1.0 -0.3543650006
N  N173  1  0.40504000  0.44306000  0.74895000  1.0 -0.3543650006
N  N174  1  0.90504000  0.05694000  0.25105000  1.0 -0.3543650006
N  N175  1  0.09496000  0.55694000  0.24895000  1.0 -0.3543650006
N  N176  1  0.59496000  0.94306000  0.75105000  1.0 -0.3543650006
N  N177  1  0.74895000  0.40504000  0.44306000  1.0 -0.3543650006
N  N178  1  0.25105000  0.90504000  0.05694000  1.0 -0.3543650006
N  N179  1  0.24895000  0.09496000  0.55694000  1.0 -0.3543650006
N  N180  1  0.75105000  0.59496000  0.94306000  1.0 -0.3543650006
N  N181  1  0.99895000  0.19306000  0.34496000  1.0 -0.3543650006
N  N182  1  0.50105000  0.80694000  0.84496000  1.0 -0.3543650006
N  N183  1  0.49895000  0.30694000  0.65504000  1.0 -0.3543650006
N  N184  1  0.00105000  0.69306000  0.15504000  1.0 -0.3543650006
N  N185  1  0.69306000  0.15504000  0.00105000  1.0 -0.3543650006
N  N186  1  0.30694000  0.65504000  0.49895000  1.0 -0.3543650006
N  N187  1  0.80694000  0.84496000  0.50105000  1.0 -0.3543650006
N  N188  1  0.19306000  0.34496000  0.99895000  1.0 -0.3543650006
N  N189  1  0.65504000  0.49895000  0.30694000  1.0 -0.3543650006
N  N190  1  0.15504000  0.00105000  0.69306000  1.0 -0.3543650006
N  N191  1  0.34496000  0.99895000  0.19306000  1.0 -0.3543650006
N  N192  1  0.84496000  0.50105000  0.80694000  1.0 -0.3543650006
N  N193  1  0.04203000  0.78287000  0.02491000  1.0 -0.1969596965
N  N194  1  0.45797000  0.21713000  0.52491000  1.0 -0.1969596965
N  N195  1  0.95797000  0.28287000  0.47509000  1.0 -0.1969596965
N  N196  1  0.54203000  0.71713000  0.97509000  1.0 -0.1969596965
N  N197  1  0.02491000  0.04203000  0.78287000  1.0 -0.1969596965
N  N198  1  0.52491000  0.45797000  0.21713000  1.0 -0.1969596965
N  N199  1  0.47509000  0.95797000  0.28287000  1.0 -0.1969596965
N  N200  1  0.97509000  0.54203000  0.71713000  1.0 -0.1969596965
N  N201  1  0.78287000  0.02491000  0.04203000  1.0 -0.1969596965
N  N202  1  0.21713000  0.52491000  0.45797000  1.0 -0.1969596965
N  N203  1  0.28287000  0.47509000  0.95797000  1.0 -0.1969596965
N  N204  1  0.71713000  0.97509000  0.54203000  1.0 -0.1969596965
N  N205  1  0.53287000  0.29203000  0.22509000  1.0 -0.1969596965
N  N206  1  0.96713000  0.70797000  0.72509000  1.0 -0.1969596965
N  N207  1  0.03287000  0.20797000  0.77491000  1.0 -0.1969596965
N  N208  1  0.46713000  0.79203000  0.27491000  1.0 -0.1969596965
N  N209  1  0.79203000  0.27491000  0.46713000  1.0 -0.1969596965
N  N210  1  0.20797000  0.77491000  0.03287000  1.0 -0.1969596965
N  N211  1  0.70797000  0.72509000  0.96713000  1.0 -0.1969596965
N  N212  1  0.29203000  0.22509000  0.53287000  1.0 -0.1969596965
N  N213  1  0.77491000  0.03287000  0.20797000  1.0 -0.1969596965
N  N214  1  0.27491000  0.46713000  0.79203000  1.0 -0.1969596965
N  N215  1  0.22509000  0.53287000  0.29203000  1.0 -0.1969596965
N  N216  1  0.72509000  0.96713000  0.70797000  1.0 -0.1969596965
N  N217  1  0.54203000  0.28287000  0.52491000  1.0 -0.1969596965
N  N218  1  0.95797000  0.71713000  0.02491000  1.0 -0.1969596965
N  N219  1  0.45797000  0.78287000  0.97509000  1.0 -0.1969596965
N  N220  1  0.04203000  0.21713000  0.47509000  1.0 -0.1969596965
N  N221  1  0.52491000  0.54203000  0.28287000  1.0 -0.1969596965
N  N222  1  0.02491000  0.95797000  0.71713000  1.0 -0.1969596965
N  N223  1  0.97509000  0.45797000  0.78287000  1.0 -0.1969596965
N  N224  1  0.47509000  0.04203000  0.21713000  1.0 -0.1969596965
N  N225  1  0.28287000  0.52491000  0.54203000  1.0 -0.1969596965
N  N226  1  0.71713000  0.02491000  0.95797000  1.0 -0.1969596965
N  N227  1  0.78287000  0.97509000  0.45797000  1.0 -0.1969596965
N  N228  1  0.21713000  0.47509000  0.04203000  1.0 -0.1969596965
N  N229  1  0.03287000  0.79203000  0.72509000  1.0 -0.1969596965
N  N230  1  0.46713000  0.20797000  0.22509000  1.0 -0.1969596965
N  N231  1  0.53287000  0.70797000  0.27491000  1.0 -0.1969596965
N  N232  1  0.96713000  0.29203000  0.77491000  1.0 -0.1969596965
N  N233  1  0.29203000  0.77491000  0.96713000  1.0 -0.1969596965
N  N234  1  0.70797000  0.27491000  0.53287000  1.0 -0.1969596965
N  N235  1  0.20797000  0.22509000  0.46713000  1.0 -0.1969596965
N  N236  1  0.79203000  0.72509000  0.03287000  1.0 -0.1969596965
N  N237  1  0.27491000  0.53287000  0.70797000  1.0 -0.1969596965
N  N238  1  0.77491000  0.96713000  0.29203000  1.0 -0.1969596965
N  N239  1  0.72509000  0.03287000  0.79203000  1.0 -0.1969596965
N  N240  1  0.22509000  0.46713000  0.20797000  1.0 -0.1969596965
N  N241  1  0.95797000  0.21713000  0.97509000  1.0 -0.1969596965
N  N242  1  0.54203000  0.78287000  0.47509000  1.0 -0.1969596965
N  N243  1  0.04203000  0.71713000  0.52491000  1.0 -0.1969596965
N  N244  1  0.45797000  0.28287000  0.02491000  1.0 -0.1969596965
N  N245  1  0.97509000  0.95797000  0.21713000  1.0 -0.1969596965
N  N246  1  0.47509000  0.54203000  0.78287000  1.0 -0.1969596965
N  N247  1  0.52491000  0.04203000  0.71713000  1.0 -0.1969596965
N  N248  1  0.02491000  0.45797000  0.28287000  1.0 -0.1969596965
N  N249  1  0.21713000  0.97509000  0.95797000  1.0 -0.1969596965
N  N250  1  0.78287000  0.47509000  0.54203000  1.0 -0.1969596965
N  N251  1  0.71713000  0.52491000  0.04203000  1.0 -0.1969596965
N  N252  1  0.28287000  0.02491000  0.45797000  1.0 -0.1969596965
N  N253  1  0.46713000  0.70797000  0.77491000  1.0 -0.1969596965
N  N254  1  0.03287000  0.29203000  0.27491000  1.0 -0.1969596965
N  N255  1  0.96713000  0.79203000  0.22509000  1.0 -0.1969596965
N  N256  1  0.53287000  0.20797000  0.72509000  1.0 -0.1969596965
N  N257  1  0.20797000  0.72509000  0.53287000  1.0 -0.1969596965
N  N258  1  0.79203000  0.22509000  0.96713000  1.0 -0.1969596965
N  N259  1  0.29203000  0.27491000  0.03287000  1.0 -0.1969596965
N  N260  1  0.70797000  0.77491000  0.46713000  1.0 -0.1969596965
N  N261  1  0.22509000  0.96713000  0.79203000  1.0 -0.1969596965
N  N262  1  0.72509000  0.53287000  0.20797000  1.0 -0.1969596965
N  N263  1  0.77491000  0.46713000  0.70797000  1.0 -0.1969596965
N  N264  1  0.27491000  0.03287000  0.29203000  1.0 -0.1969596965
N  N265  1  0.45797000  0.71713000  0.47509000  1.0 -0.1969596965
N  N266  1  0.04203000  0.28287000  0.97509000  1.0 -0.1969596965
N  N267  1  0.54203000  0.21713000  0.02491000  1.0 -0.1969596965
N  N268  1  0.95797000  0.78287000  0.52491000  1.0 -0.1969596965
N  N269  1  0.47509000  0.45797000  0.71713000  1.0 -0.1969596965
N  N270  1  0.97509000  0.04203000  0.28287000  1.0 -0.1969596965
N  N271  1  0.02491000  0.54203000  0.21713000  1.0 -0.1969596965
N  N272  1  0.52491000  0.95797000  0.78287000  1.0 -0.1969596965
N  N273  1  0.71713000  0.47509000  0.45797000  1.0 -0.1969596965
N  N274  1  0.28287000  0.97509000  0.04203000  1.0 -0.1969596965
N  N275  1  0.21713000  0.02491000  0.54203000  1.0 -0.1969596965
N  N276  1  0.78287000  0.52491000  0.95797000  1.0 -0.1969596965
N  N277  1  0.96713000  0.20797000  0.27491000  1.0 -0.1969596965
N  N278  1  0.53287000  0.79203000  0.77491000  1.0 -0.1969596965
N  N279  1  0.46713000  0.29203000  0.72509000  1.0 -0.1969596965
N  N280  1  0.03287000  0.70797000  0.22509000  1.0 -0.1969596965
N  N281  1  0.70797000  0.22509000  0.03287000  1.0 -0.1969596965
N  N282  1  0.29203000  0.72509000  0.46713000  1.0 -0.1969596965
N  N283  1  0.79203000  0.77491000  0.53287000  1.0 -0.1969596965
N  N284  1  0.20797000  0.27491000  0.96713000  1.0 -0.1969596965
N  N285  1  0.72509000  0.46713000  0.29203000  1.0 -0.1969596965
N  N286  1  0.22509000  0.03287000  0.70797000  1.0 -0.1969596965
N  N287  1  0.27491000  0.96713000  0.20797000  1.0 -0.1969596965
N  N288  1  0.77491000  0.53287000  0.79203000  1.0 -0.1969596965
N  N289  1  0.00884000  0.79972000  0.04050000  1.0 -0.1071725639
N  N290  1  0.49116000  0.20028000  0.54050000  1.0 -0.1071725639
N  N291  1  0.99116000  0.29972000  0.45950000  1.0 -0.1071725639
N  N292  1  0.50884000  0.70028000  0.95950000  1.0 -0.1071725639
N  N293  1  0.04050000  0.00884000  0.79972000  1.0 -0.1071725639
N  N294  1  0.54050000  0.49116000  0.20028000  1.0 -0.1071725639
N  N295  1  0.45950000  0.99116000  0.29972000  1.0 -0.1071725639
N  N296  1  0.95950000  0.50884000  0.70028000  1.0 -0.1071725639
N  N297  1  0.79972000  0.04050000  0.00884000  1.0 -0.1071725639
N  N298  1  0.20028000  0.54050000  0.49116000  1.0 -0.1071725639
N  N299  1  0.29972000  0.45950000  0.99116000  1.0 -0.1071725639
N  N300  1  0.70028000  0.95950000  0.50884000  1.0 -0.1071725639
N  N301  1  0.54972000  0.25884000  0.20950000  1.0 -0.1071725639
N  N302  1  0.95028000  0.74116000  0.70950000  1.0 -0.1071725639
N  N303  1  0.04972000  0.24116000  0.79050000  1.0 -0.1071725639
N  N304  1  0.45028000  0.75884000  0.29050000  1.0 -0.1071725639
N  N305  1  0.75884000  0.29050000  0.45028000  1.0 -0.1071725639
N  N306  1  0.24116000  0.79050000  0.04972000  1.0 -0.1071725639
N  N307  1  0.74116000  0.70950000  0.95028000  1.0 -0.1071725639
N  N308  1  0.25884000  0.20950000  0.54972000  1.0 -0.1071725639
N  N309  1  0.79050000  0.04972000  0.24116000  1.0 -0.1071725639
N  N310  1  0.29050000  0.45028000  0.75884000  1.0 -0.1071725639
N  N311  1  0.20950000  0.54972000  0.25884000  1.0 -0.1071725639
N  N312  1  0.70950000  0.95028000  0.74116000  1.0 -0.1071725639
N  N313  1  0.50884000  0.29972000  0.54050000  1.0 -0.1071725639
N  N314  1  0.99116000  0.70028000  0.04050000  1.0 -0.1071725639
N  N315  1  0.49116000  0.79972000  0.95950000  1.0 -0.1071725639
N  N316  1  0.00884000  0.20028000  0.45950000  1.0 -0.1071725639
N  N317  1  0.54050000  0.50884000  0.29972000  1.0 -0.1071725639
N  N318  1  0.04050000  0.99116000  0.70028000  1.0 -0.1071725639
N  N319  1  0.95950000  0.49116000  0.79972000  1.0 -0.1071725639
N  N320  1  0.45950000  0.00884000  0.20028000  1.0 -0.1071725639
N  N321  1  0.29972000  0.54050000  0.50884000  1.0 -0.1071725639
N  N322  1  0.70028000  0.04050000  0.99116000  1.0 -0.1071725639
N  N323  1  0.79972000  0.95950000  0.49116000  1.0 -0.1071725639
N  N324  1  0.20028000  0.45950000  0.00884000  1.0 -0.1071725639
N  N325  1  0.04972000  0.75884000  0.70950000  1.0 -0.1071725639
N  N326  1  0.45028000  0.24116000  0.20950000  1.0 -0.1071725639
N  N327  1  0.54972000  0.74116000  0.29050000  1.0 -0.1071725639
N  N328  1  0.95028000  0.25884000  0.79050000  1.0 -0.1071725639
N  N329  1  0.25884000  0.79050000  0.95028000  1.0 -0.1071725639
N  N330  1  0.74116000  0.29050000  0.54972000  1.0 -0.1071725639
N  N331  1  0.24116000  0.20950000  0.45028000  1.0 -0.1071725639
N  N332  1  0.75884000  0.70950000  0.04972000  1.0 -0.1071725639
N  N333  1  0.29050000  0.54972000  0.74116000  1.0 -0.1071725639
N  N334  1  0.79050000  0.95028000  0.25884000  1.0 -0.1071725639
N  N335  1  0.70950000  0.04972000  0.75884000  1.0 -0.1071725639
N  N336  1  0.20950000  0.45028000  0.24116000  1.0 -0.1071725639
N  N337  1  0.99116000  0.20028000  0.95950000  1.0 -0.1071725639
N  N338  1  0.50884000  0.79972000  0.45950000  1.0 -0.1071725639
N  N339  1  0.00884000  0.70028000  0.54050000  1.0 -0.1071725639
N  N340  1  0.49116000  0.29972000  0.04050000  1.0 -0.1071725639
N  N341  1  0.95950000  0.99116000  0.20028000  1.0 -0.1071725639
N  N342  1  0.45950000  0.50884000  0.79972000  1.0 -0.1071725639
N  N343  1  0.54050000  0.00884000  0.70028000  1.0 -0.1071725639
N  N344  1  0.04050000  0.49116000  0.29972000  1.0 -0.1071725639
N  N345  1  0.20028000  0.95950000  0.99116000  1.0 -0.1071725639
N  N346  1  0.79972000  0.45950000  0.50884000  1.0 -0.1071725639
N  N347  1  0.70028000  0.54050000  0.00884000  1.0 -0.1071725639
N  N348  1  0.29972000  0.04050000  0.49116000  1.0 -0.1071725639
N  N349  1  0.45028000  0.74116000  0.79050000  1.0 -0.1071725639
N  N350  1  0.04972000  0.25884000  0.29050000  1.0 -0.1071725639
N  N351  1  0.95028000  0.75884000  0.20950000  1.0 -0.1071725639
N  N352  1  0.54972000  0.24116000  0.70950000  1.0 -0.1071725639
N  N353  1  0.24116000  0.70950000  0.54972000  1.0 -0.1071725639
N  N354  1  0.75884000  0.20950000  0.95028000  1.0 -0.1071725639
N  N355  1  0.25884000  0.29050000  0.04972000  1.0 -0.1071725639
N  N356  1  0.74116000  0.79050000  0.45028000  1.0 -0.1071725639
N  N357  1  0.20950000  0.95028000  0.75884000  1.0 -0.1071725639
N  N358  1  0.70950000  0.54972000  0.24116000  1.0 -0.1071725639
N  N359  1  0.79050000  0.45028000  0.74116000  1.0 -0.1071725639
N  N360  1  0.29050000  0.04972000  0.25884000  1.0 -0.1071725639
N  N361  1  0.49116000  0.70028000  0.45950000  1.0 -0.1071725639
N  N362  1  0.00884000  0.29972000  0.95950000  1.0 -0.1071725639
N  N363  1  0.50884000  0.20028000  0.04050000  1.0 -0.1071725639
N  N364  1  0.99116000  0.79972000  0.54050000  1.0 -0.1071725639
N  N365  1  0.45950000  0.49116000  0.70028000  1.0 -0.1071725639
N  N366  1  0.95950000  0.00884000  0.29972000  1.0 -0.1071725639
N  N367  1  0.04050000  0.50884000  0.20028000  1.0 -0.1071725639
N  N368  1  0.54050000  0.99116000  0.79972000  1.0 -0.1071725639
N  N369  1  0.70028000  0.45950000  0.49116000  1.0 -0.1071725639
N  N370  1  0.29972000  0.95950000  0.00884000  1.0 -0.1071725639
N  N371  1  0.20028000  0.04050000  0.50884000  1.0 -0.1071725639
N  N372  1  0.79972000  0.54050000  0.99116000  1.0 -0.1071725639
N  N373  1  0.95028000  0.24116000  0.29050000  1.0 -0.1071725639
N  N374  1  0.54972000  0.75884000  0.79050000  1.0 -0.1071725639
N  N375  1  0.45028000  0.25884000  0.70950000  1.0 -0.1071725639
N  N376  1  0.04972000  0.74116000  0.20950000  1.0 -0.1071725639
N  N377  1  0.74116000  0.20950000  0.04972000  1.0 -0.1071725639
N  N378  1  0.25884000  0.70950000  0.45028000  1.0 -0.1071725639
N  N379  1  0.75884000  0.79050000  0.54972000  1.0 -0.1071725639
N  N380  1  0.24116000  0.29050000  0.95028000  1.0 -0.1071725639
N  N381  1  0.70950000  0.45028000  0.25884000  1.0 -0.1071725639
N  N382  1  0.20950000  0.04972000  0.74116000  1.0 -0.1071725639
N  N383  1  0.29050000  0.95028000  0.24116000  1.0 -0.1071725639
N  N384  1  0.79050000  0.54972000  0.75884000  1.0 -0.1071725639
Cl  Cl1  1  0.31403000  0.87500000  0.43597000  1.0 1.2661981833
Cl  Cl2  1  0.81403000  0.62500000  0.56403000  1.0 1.2661981833
Cl  Cl3  1  0.68597000  0.37500000  0.06403000  1.0 1.2661981833
Cl  Cl4  1  0.18597000  0.12500000  0.93597000  1.0 1.2661981833
Cl  Cl5  1  0.56403000  0.81403000  0.62500000  1.0 1.2661981833
Cl  Cl6  1  0.43597000  0.31403000  0.87500000  1.0 1.2661981833
Cl  Cl7  1  0.93597000  0.18597000  0.12500000  1.0 1.2661981833
Cl  Cl8  1  0.06403000  0.68597000  0.37500000  1.0 1.2661981833
Cl  Cl9  1  0.37500000  0.06403000  0.68597000  1.0 1.2661981833
Cl  Cl10  1  0.12500000  0.93597000  0.18597000  1.0 1.2661981833
Cl  Cl11  1  0.87500000  0.43597000  0.31403000  1.0 1.2661981833
Cl  Cl12  1  0.62500000  0.56403000  0.81403000  1.0 1.2661981833
Cl  Cl13  1  0.12500000  0.06403000  0.31403000  1.0 1.2661981833
Cl  Cl14  1  0.87500000  0.56403000  0.18597000  1.0 1.2661981833
Cl  Cl15  1  0.62500000  0.43597000  0.68597000  1.0 1.2661981833
Cl  Cl16  1  0.37500000  0.93597000  0.81403000  1.0 1.2661981833
Cl  Cl17  1  0.06403000  0.31403000  0.12500000  1.0 1.2661981833
Cl  Cl18  1  0.56403000  0.18597000  0.87500000  1.0 1.2661981833
Cl  Cl19  1  0.43597000  0.68597000  0.62500000  1.0 1.2661981833
Cl  Cl20  1  0.93597000  0.81403000  0.37500000  1.0 1.2661981833
Cl  Cl21  1  0.31403000  0.12500000  0.06403000  1.0 1.2661981833
Cl  Cl22  1  0.18597000  0.87500000  0.56403000  1.0 1.2661981833
Cl  Cl23  1  0.68597000  0.62500000  0.43597000  1.0 1.2661981833
Cl  Cl24  1  0.81403000  0.37500000  0.93597000  1.0 1.2661981833
Cl  Cl25  1  0.68597000  0.12500000  0.56403000  1.0 1.2661981833
Cl  Cl26  1  0.18597000  0.37500000  0.43597000  1.0 1.2661981833
Cl  Cl27  1  0.31403000  0.62500000  0.93597000  1.0 1.2661981833
Cl  Cl28  1  0.81403000  0.87500000  0.06403000  1.0 1.2661981833
Cl  Cl29  1  0.43597000  0.18597000  0.37500000  1.0 1.2661981833
Cl  Cl30  1  0.56403000  0.68597000  0.12500000  1.0 1.2661981833
Cl  Cl31  1  0.06403000  0.81403000  0.87500000  1.0 1.2661981833
Cl  Cl32  1  0.93597000  0.31403000  0.62500000  1.0 1.2661981833
Cl  Cl33  1  0.62500000  0.93597000  0.31403000  1.0 1.2661981833
Cl  Cl34  1  0.87500000  0.06403000  0.81403000  1.0 1.2661981833
Cl  Cl35  1  0.12500000  0.56403000  0.68597000  1.0 1.2661981833
Cl  Cl36  1  0.37500000  0.43597000  0.18597000  1.0 1.2661981833
Cl  Cl37  1  0.87500000  0.93597000  0.68597000  1.0 1.2661981833
Cl  Cl38  1  0.12500000  0.43597000  0.81403000  1.0 1.2661981833
Cl  Cl39  1  0.37500000  0.56403000  0.31403000  1.0 1.2661981833
Cl  Cl40  1  0.62500000  0.06403000  0.18597000  1.0 1.2661981833
Cl  Cl41  1  0.93597000  0.68597000  0.87500000  1.0 1.2661981833
Cl  Cl42  1  0.43597000  0.81403000  0.12500000  1.0 1.2661981833
Cl  Cl43  1  0.56403000  0.31403000  0.37500000  1.0 1.2661981833
Cl  Cl44  1  0.06403000  0.18597000  0.62500000  1.0 1.2661981833
Cl  Cl45  1  0.68597000  0.87500000  0.93597000  1.0 1.2661981833
Cl  Cl46  1  0.81403000  0.12500000  0.43597000  1.0 1.2661981833
Cl  Cl47  1  0.31403000  0.37500000  0.56403000  1.0 1.2661981833
Cl  Cl48  1  0.18597000  0.62500000  0.06403000  1.0 1.2661981833
O  O1  1  0.31520000  0.84913000  0.47313000  1.0 -0.4794781728
O  O2  1  0.27687000  0.90087000  0.43480000  1.0 -0.4794781728
O  O3  1  0.31483000  0.84810000  0.39939000  1.0 -0.4709860423
O  O4  1  0.35061000  0.90190000  0.43517000  1.0 -0.4709860423
O  O5  1  0.81520000  0.65087000  0.52687000  1.0 -0.4794781728
O  O6  1  0.77687000  0.59913000  0.56520000  1.0 -0.4794781728
O  O7  1  0.81483000  0.65190000  0.60061000  1.0 -0.4709860423
O  O8  1  0.85061000  0.59810000  0.56483000  1.0 -0.4709860423
O  O9  1  0.68480000  0.34913000  0.02687000  1.0 -0.4794781728
O  O10  1  0.72313000  0.40087000  0.06520000  1.0 -0.4794781728
O  O11  1  0.68517000  0.34810000  0.10061000  1.0 -0.4709860423
O  O12  1  0.64939000  0.40190000  0.06483000  1.0 -0.4709860423
O  O13  1  0.18480000  0.15087000  0.97313000  1.0 -0.4794781728
O  O14  1  0.22313000  0.09913000  0.93480000  1.0 -0.4794781728
O  O15  1  0.18517000  0.15190000  0.89939000  1.0 -0.4709860423
O  O16  1  0.14939000  0.09810000  0.93517000  1.0 -0.4709860423
O  O17  1  0.52687000  0.81520000  0.65087000  1.0 -0.4794781728
O  O18  1  0.56520000  0.77687000  0.59913000  1.0 -0.4794781728
O  O19  1  0.60061000  0.81483000  0.65190000  1.0 -0.4709860423
O  O20  1  0.56483000  0.85061000  0.59810000  1.0 -0.4709860423
O  O21  1  0.47313000  0.31520000  0.84913000  1.0 -0.4794781728
O  O22  1  0.43480000  0.27687000  0.90087000  1.0 -0.4794781728
O  O23  1  0.39939000  0.31483000  0.84810000  1.0 -0.4709860423
O  O24  1  0.43517000  0.35061000  0.90190000  1.0 -0.4709860423
O  O25  1  0.97313000  0.18480000  0.15087000  1.0 -0.4794781728
O  O26  1  0.93480000  0.22313000  0.09913000  1.0 -0.4794781728
O  O27  1  0.89939000  0.18517000  0.15190000  1.0 -0.4709860423
O  O28  1  0.93517000  0.14939000  0.09810000  1.0 -0.4709860423
O  O29  1  0.02687000  0.68480000  0.34913000  1.0 -0.4794781728
O  O30  1  0.06520000  0.72313000  0.40087000  1.0 -0.4794781728
O  O31  1  0.10061000  0.68517000  0.34810000  1.0 -0.4709860423
O  O32  1  0.06483000  0.64939000  0.40190000  1.0 -0.4709860423
O  O33  1  0.34913000  0.02687000  0.68480000  1.0 -0.4794781728
O  O34  1  0.40087000  0.06520000  0.72313000  1.0 -0.4794781728
O  O35  1  0.34810000  0.10061000  0.68517000  1.0 -0.4709860423
O  O36  1  0.40190000  0.06483000  0.64939000  1.0 -0.4709860423
O  O37  1  0.15087000  0.97313000  0.18480000  1.0 -0.4794781728
O  O38  1  0.09913000  0.93480000  0.22313000  1.0 -0.4794781728
O  O39  1  0.15190000  0.89939000  0.18517000  1.0 -0.4709860423
O  O40  1  0.09810000  0.93517000  0.14939000  1.0 -0.4709860423
O  O41  1  0.84913000  0.47313000  0.31520000  1.0 -0.4794781728
O  O42  1  0.90087000  0.43480000  0.27687000  1.0 -0.4794781728
O  O43  1  0.84810000  0.39939000  0.31483000  1.0 -0.4709860423
O  O44  1  0.90190000  0.43517000  0.35061000  1.0 -0.4709860423
O  O45  1  0.65087000  0.52687000  0.81520000  1.0 -0.4794781728
O  O46  1  0.59913000  0.56520000  0.77687000  1.0 -0.4794781728
O  O47  1  0.65190000  0.60061000  0.81483000  1.0 -0.4709860423
O  O48  1  0.59810000  0.56483000  0.85061000  1.0 -0.4709860423
O  O49  1  0.09913000  0.06520000  0.27687000  1.0 -0.4794781728
O  O50  1  0.15087000  0.02687000  0.31520000  1.0 -0.4794781728
O  O51  1  0.09810000  0.06483000  0.35061000  1.0 -0.4709860423
O  O52  1  0.15190000  0.10061000  0.31483000  1.0 -0.4709860423
O  O53  1  0.90087000  0.56520000  0.22313000  1.0 -0.4794781728
O  O54  1  0.84913000  0.52687000  0.18480000  1.0 -0.4794781728
O  O55  1  0.90190000  0.56483000  0.14939000  1.0 -0.4709860423
O  O56  1  0.84810000  0.60061000  0.18517000  1.0 -0.4709860423
O  O57  1  0.59913000  0.43480000  0.72313000  1.0 -0.4794781728
O  O58  1  0.65087000  0.47313000  0.68480000  1.0 -0.4794781728
O  O59  1  0.59810000  0.43517000  0.64939000  1.0 -0.4709860423
O  O60  1  0.65190000  0.39939000  0.68517000  1.0 -0.4709860423
O  O61  1  0.40087000  0.93480000  0.77687000  1.0 -0.4794781728
O  O62  1  0.34913000  0.97313000  0.81520000  1.0 -0.4794781728
O  O63  1  0.40190000  0.93517000  0.85061000  1.0 -0.4709860423
O  O64  1  0.34810000  0.89939000  0.81483000  1.0 -0.4709860423
O  O65  1  0.06520000  0.27687000  0.09913000  1.0 -0.4794781728
O  O66  1  0.02687000  0.31520000  0.15087000  1.0 -0.4794781728
O  O67  1  0.06483000  0.35061000  0.09810000  1.0 -0.4709860423
O  O68  1  0.10061000  0.31483000  0.15190000  1.0 -0.4709860423
O  O69  1  0.56520000  0.22313000  0.90087000  1.0 -0.4794781728
O  O70  1  0.52687000  0.18480000  0.84913000  1.0 -0.4794781728
O  O71  1  0.56483000  0.14939000  0.90190000  1.0 -0.4709860423
O  O72  1  0.60061000  0.18517000  0.84810000  1.0 -0.4709860423
O  O73  1  0.43480000  0.72313000  0.59913000  1.0 -0.4794781728
O  O74  1  0.47313000  0.68480000  0.65087000  1.0 -0.4794781728
O  O75  1  0.43517000  0.64939000  0.59810000  1.0 -0.4709860423
O  O76  1  0.39939000  0.68517000  0.65190000  1.0 -0.4709860423
O  O77  1  0.93480000  0.77687000  0.40087000  1.0 -0.4794781728
O  O78  1  0.97313000  0.81520000  0.34913000  1.0 -0.4794781728
O  O79  1  0.93517000  0.85061000  0.40190000  1.0 -0.4709860423
O  O80  1  0.89939000  0.81483000  0.34810000  1.0 -0.4709860423
O  O81  1  0.27687000  0.09913000  0.06520000  1.0 -0.4794781728
O  O82  1  0.31520000  0.15087000  0.02687000  1.0 -0.4794781728
O  O83  1  0.35061000  0.09810000  0.06483000  1.0 -0.4709860423
O  O84  1  0.31483000  0.15190000  0.10061000  1.0 -0.4709860423
O  O85  1  0.22313000  0.90087000  0.56520000  1.0 -0.4794781728
O  O86  1  0.18480000  0.84913000  0.52687000  1.0 -0.4794781728
O  O87  1  0.14939000  0.90190000  0.56483000  1.0 -0.4709860423
O  O88  1  0.18517000  0.84810000  0.60061000  1.0 -0.4709860423
O  O89  1  0.72313000  0.59913000  0.43480000  1.0 -0.4794781728
O  O90  1  0.68480000  0.65087000  0.47313000  1.0 -0.4794781728
O  O91  1  0.64939000  0.59810000  0.43517000  1.0 -0.4709860423
O  O92  1  0.68517000  0.65190000  0.39939000  1.0 -0.4709860423
O  O93  1  0.77687000  0.40087000  0.93480000  1.0 -0.4794781728
O  O94  1  0.81520000  0.34913000  0.97313000  1.0 -0.4794781728
O  O95  1  0.85061000  0.40190000  0.93517000  1.0 -0.4709860423
O  O96  1  0.81483000  0.34810000  0.89939000  1.0 -0.4709860423
O  O97  1  0.68480000  0.15087000  0.52687000  1.0 -0.4794781728
O  O98  1  0.72313000  0.09913000  0.56520000  1.0 -0.4794781728
O  O99  1  0.68517000  0.15190000  0.60061000  1.0 -0.4709860423
O  O100  1  0.64939000  0.09810000  0.56483000  1.0 -0.4709860423
O  O101  1  0.18480000  0.34913000  0.47313000  1.0 -0.4794781728
O  O102  1  0.22313000  0.40087000  0.43480000  1.0 -0.4794781728
O  O103  1  0.18517000  0.34810000  0.39939000  1.0 -0.4709860423
O  O104  1  0.14939000  0.40190000  0.43517000  1.0 -0.4709860423
O  O105  1  0.31520000  0.65087000  0.97313000  1.0 -0.4794781728
O  O106  1  0.27687000  0.59913000  0.93480000  1.0 -0.4794781728
O  O107  1  0.31483000  0.65190000  0.89939000  1.0 -0.4709860423
O  O108  1  0.35061000  0.59810000  0.93517000  1.0 -0.4709860423
O  O109  1  0.81520000  0.84913000  0.02687000  1.0 -0.4794781728
O  O110  1  0.77687000  0.90087000  0.06520000  1.0 -0.4794781728
O  O111  1  0.81483000  0.84810000  0.10061000  1.0 -0.4709860423
O  O112  1  0.85061000  0.90190000  0.06483000  1.0 -0.4709860423
O  O113  1  0.47313000  0.18480000  0.34913000  1.0 -0.4794781728
O  O114  1  0.43480000  0.22313000  0.40087000  1.0 -0.4794781728
O  O115  1  0.39939000  0.18517000  0.34810000  1.0 -0.4709860423
O  O116  1  0.43517000  0.14939000  0.40190000  1.0 -0.4709860423
O  O117  1  0.52687000  0.68480000  0.15087000  1.0 -0.4794781728
O  O118  1  0.56520000  0.72313000  0.09913000  1.0 -0.4794781728
O  O119  1  0.60061000  0.68517000  0.15190000  1.0 -0.4709860423
O  O120  1  0.56483000  0.64939000  0.09810000  1.0 -0.4709860423
O  O121  1  0.02687000  0.81520000  0.84913000  1.0 -0.4794781728
O  O122  1  0.06520000  0.77687000  0.90087000  1.0 -0.4794781728
O  O123  1  0.10061000  0.81483000  0.84810000  1.0 -0.4709860423
O  O124  1  0.06483000  0.85061000  0.90190000  1.0 -0.4709860423
O  O125  1  0.97313000  0.31520000  0.65087000  1.0 -0.4794781728
O  O126  1  0.93480000  0.27687000  0.59913000  1.0 -0.4794781728
O  O127  1  0.89939000  0.31483000  0.65190000  1.0 -0.4709860423
O  O128  1  0.93517000  0.35061000  0.59810000  1.0 -0.4709860423
O  O129  1  0.65087000  0.97313000  0.31520000  1.0 -0.4794781728
O  O130  1  0.59913000  0.93480000  0.27687000  1.0 -0.4794781728
O  O131  1  0.65190000  0.89939000  0.31483000  1.0 -0.4709860423
O  O132  1  0.59810000  0.93517000  0.35061000  1.0 -0.4709860423
O  O133  1  0.84913000  0.02687000  0.81520000  1.0 -0.4794781728
O  O134  1  0.90087000  0.06520000  0.77687000  1.0 -0.4794781728
O  O135  1  0.84810000  0.10061000  0.81483000  1.0 -0.4709860423
O  O136  1  0.90190000  0.06483000  0.85061000  1.0 -0.4709860423
O  O137  1  0.15087000  0.52687000  0.68480000  1.0 -0.4794781728
O  O138  1  0.09913000  0.56520000  0.72313000  1.0 -0.4794781728
O  O139  1  0.15190000  0.60061000  0.68517000  1.0 -0.4709860423
O  O140  1  0.09810000  0.56483000  0.64939000  1.0 -0.4709860423
O  O141  1  0.34913000  0.47313000  0.18480000  1.0 -0.4794781728
O  O142  1  0.40087000  0.43480000  0.22313000  1.0 -0.4794781728
O  O143  1  0.34810000  0.39939000  0.18517000  1.0 -0.4709860423
O  O144  1  0.40190000  0.43517000  0.14939000  1.0 -0.4709860423
O  O145  1  0.90087000  0.93480000  0.72313000  1.0 -0.4794781728
O  O146  1  0.84913000  0.97313000  0.68480000  1.0 -0.4794781728
O  O147  1  0.90190000  0.93517000  0.64939000  1.0 -0.4709860423
O  O148  1  0.84810000  0.89939000  0.68517000  1.0 -0.4709860423
O  O149  1  0.09913000  0.43480000  0.77687000  1.0 -0.4794781728
O  O150  1  0.15087000  0.47313000  0.81520000  1.0 -0.4794781728
O  O151  1  0.09810000  0.43517000  0.85061000  1.0 -0.4709860423
O  O152  1  0.15190000  0.39939000  0.81483000  1.0 -0.4709860423
O  O153  1  0.40087000  0.56520000  0.27687000  1.0 -0.4794781728
O  O154  1  0.34913000  0.52687000  0.31520000  1.0 -0.4794781728
O  O155  1  0.40190000  0.56483000  0.35061000  1.0 -0.4709860423
O  O156  1  0.34810000  0.60061000  0.31483000  1.0 -0.4709860423
O  O157  1  0.59913000  0.06520000  0.22313000  1.0 -0.4794781728
O  O158  1  0.65087000  0.02687000  0.18480000  1.0 -0.4794781728
O  O159  1  0.59810000  0.06483000  0.14939000  1.0 -0.4709860423
O  O160  1  0.65190000  0.10061000  0.18517000  1.0 -0.4709860423
O  O161  1  0.93480000  0.72313000  0.90087000  1.0 -0.4794781728
O  O162  1  0.97313000  0.68480000  0.84913000  1.0 -0.4794781728
O  O163  1  0.93517000  0.64939000  0.90190000  1.0 -0.4709860423
O  O164  1  0.89939000  0.68517000  0.84810000  1.0 -0.4709860423
O  O165  1  0.43480000  0.77687000  0.09913000  1.0 -0.4794781728
O  O166  1  0.47313000  0.81520000  0.15087000  1.0 -0.4794781728
O  O167  1  0.43517000  0.85061000  0.09810000  1.0 -0.4709860423
O  O168  1  0.39939000  0.81483000  0.15190000  1.0 -0.4709860423
O  O169  1  0.56520000  0.27687000  0.40087000  1.0 -0.4794781728
O  O170  1  0.52687000  0.31520000  0.34913000  1.0 -0.4794781728
O  O171  1  0.56483000  0.35061000  0.40190000  1.0 -0.4709860423
O  O172  1  0.60061000  0.31483000  0.34810000  1.0 -0.4709860423
O  O173  1  0.06520000  0.22313000  0.59913000  1.0 -0.4794781728
O  O174  1  0.02687000  0.18480000  0.65087000  1.0 -0.4794781728
O  O175  1  0.06483000  0.14939000  0.59810000  1.0 -0.4709860423
O  O176  1  0.10061000  0.18517000  0.65190000  1.0 -0.4709860423
O  O177  1  0.72313000  0.90087000  0.93480000  1.0 -0.4794781728
O  O178  1  0.68480000  0.84913000  0.97313000  1.0 -0.4794781728
O  O179  1  0.64939000  0.90190000  0.93517000  1.0 -0.4709860423
O  O180  1  0.68517000  0.84810000  0.89939000  1.0 -0.4709860423
O  O181  1  0.77687000  0.09913000  0.43480000  1.0 -0.4794781728
O  O182  1  0.81520000  0.15087000  0.47313000  1.0 -0.4794781728
O  O183  1  0.85061000  0.09810000  0.43517000  1.0 -0.4709860423
O  O184  1  0.81483000  0.15190000  0.39939000  1.0 -0.4709860423
O  O185  1  0.27687000  0.40087000  0.56520000  1.0 -0.4794781728
O  O186  1  0.31520000  0.34913000  0.52687000  1.0 -0.4794781728
O  O187  1  0.35061000  0.40190000  0.56483000  1.0 -0.4709860423
O  O188  1  0.31483000  0.34810000  0.60061000  1.0 -0.4709860423
O  O189  1  0.22313000  0.59913000  0.06520000  1.0 -0.4794781728
O  O190  1  0.18480000  0.65087000  0.02687000  1.0 -0.4794781728
O  O191  1  0.14939000  0.59810000  0.06483000  1.0 -0.4709860423
O  O192  1  0.18517000  0.65190000  0.10061000  1.0 -0.4709860423
