# generated by PACMAN-DDEC6 charge (https://github.com/sxm13/PACMAN/)
data_structure
_chemical_formula_sum              "Zn48 H96 C288 O288"
_cell_length_a       26.536
_cell_length_b       26.536
_cell_length_c       26.536
_cell_angle_alpha    90
_cell_angle_beta     90
_cell_angle_gamma    90

_symmetry_space_group_name_H-M    "P 1"
_symmetry_Int_Tables_number       1

loop_
  _symmetry_equiv_pos_as_xyz
  'x, y, z'

loop_
  _atom_site_type_symbol
  _atom_site_label
  _atom_site_symmetry_multiplicity
  _atom_site_fract_x
  _atom_site_fract_y
  _atom_site_fract_z
  _atom_site_occupancy
  _atom_site_charge
Zn  Zn1       1.0  0.28972  0.50000  0.28972  1.0000 0.8484483915
Zn  Zn2       1.0  0.71028  0.50000  0.28972  1.0000 0.8484483915
Zn  Zn3       1.0  0.71028  0.50000  0.71028  1.0000 0.8484483915
Zn  Zn4       1.0  0.28972  0.50000  0.71028  1.0000 0.8484483915
Zn  Zn5       1.0  0.28972  0.28972  0.50000  1.0000 0.8484483915
Zn  Zn6       1.0  0.28972  0.71028  0.50000  1.0000 0.8484483915
Zn  Zn7       1.0  0.71028  0.71028  0.50000  1.0000 0.8484483915
Zn  Zn8       1.0  0.71028  0.28972  0.50000  1.0000 0.8484483915
Zn  Zn9       1.0  0.50000  0.28972  0.28972  1.0000 0.8484483915
Zn  Zn10      1.0  0.50000  0.28972  0.71028  1.0000 0.8484483915
Zn  Zn11      1.0  0.50000  0.71028  0.71028  1.0000 0.8484483915
Zn  Zn12      1.0  0.50000  0.71028  0.28972  1.0000 0.8484483915
Zn  Zn13      1.0  0.28972  0.00000  0.78972  1.0000 0.8484483915
Zn  Zn14      1.0  0.71028  0.00000  0.78972  1.0000 0.8484483915
Zn  Zn15      1.0  0.71028  0.00000  0.21028  1.0000 0.8484483915
Zn  Zn16      1.0  0.28972  0.00000  0.21028  1.0000 0.8484483915
Zn  Zn17      1.0  0.28972  0.78972  0.00000  1.0000 0.8484483915
Zn  Zn18      1.0  0.28972  0.21028  0.00000  1.0000 0.8484483915
Zn  Zn19      1.0  0.71028  0.21028  0.00000  1.0000 0.8484483915
Zn  Zn20      1.0  0.71028  0.78972  0.00000  1.0000 0.8484483915
Zn  Zn21      1.0  0.50000  0.78972  0.78972  1.0000 0.8484483915
Zn  Zn22      1.0  0.50000  0.78972  0.21028  1.0000 0.8484483915
Zn  Zn23      1.0  0.50000  0.21028  0.21028  1.0000 0.8484483915
Zn  Zn24      1.0  0.50000  0.21028  0.78972  1.0000 0.8484483915
Zn  Zn25      1.0  0.78972  0.50000  0.78972  1.0000 0.8484483915
Zn  Zn26      1.0  0.21028  0.50000  0.78972  1.0000 0.8484483915
Zn  Zn27      1.0  0.21028  0.50000  0.21028  1.0000 0.8484483915
Zn  Zn28      1.0  0.78972  0.50000  0.21028  1.0000 0.8484483915
Zn  Zn29      1.0  0.78972  0.28972  0.00000  1.0000 0.8484483915
Zn  Zn30      1.0  0.78972  0.71028  0.00000  1.0000 0.8484483915
Zn  Zn31      1.0  0.21028  0.71028  0.00000  1.0000 0.8484483915
Zn  Zn32      1.0  0.21028  0.28972  0.00000  1.0000 0.8484483915
Zn  Zn33      1.0  0.00000  0.28972  0.78972  1.0000 0.8484483915
Zn  Zn34      1.0  0.00000  0.28972  0.21028  1.0000 0.8484483915
Zn  Zn35      1.0  0.00000  0.71028  0.21028  1.0000 0.8484483915
Zn  Zn36      1.0  0.00000  0.71028  0.78972  1.0000 0.8484483915
Zn  Zn37      1.0  0.78972  0.00000  0.28972  1.0000 0.8484483915
Zn  Zn38      1.0  0.21028  0.00000  0.28972  1.0000 0.8484483915
Zn  Zn39      1.0  0.21028  0.00000  0.71028  1.0000 0.8484483915
Zn  Zn40      1.0  0.78972  0.00000  0.71028  1.0000 0.8484483915
Zn  Zn41      1.0  0.78972  0.78972  0.50000  1.0000 0.8484483915
Zn  Zn42      1.0  0.78972  0.21028  0.50000  1.0000 0.8484483915
Zn  Zn43      1.0  0.21028  0.21028  0.50000  1.0000 0.8484483915
Zn  Zn44      1.0  0.21028  0.78972  0.50000  1.0000 0.8484483915
Zn  Zn45      1.0  0.00000  0.78972  0.28972  1.0000 0.8484483915
Zn  Zn46      1.0  0.00000  0.78972  0.71028  1.0000 0.8484483915
Zn  Zn47      1.0  0.00000  0.21028  0.71028  1.0000 0.8484483915
Zn  Zn48      1.0  0.00000  0.21028  0.28972  1.0000 0.8484483915
H   H1        1.0  0.12100  0.37900  0.27110  1.0000 0.1116974163
H   H2        1.0  0.87900  0.62100  0.27110  1.0000 0.1116974163
H   H3        1.0  0.87900  0.37900  0.72890  1.0000 0.1116974163
H   H4        1.0  0.12100  0.62100  0.72890  1.0000 0.1116974163
H   H5        1.0  0.27110  0.12100  0.37900  1.0000 0.1116974163
H   H6        1.0  0.27110  0.87900  0.62100  1.0000 0.1116974163
H   H7        1.0  0.72890  0.87900  0.37900  1.0000 0.1116974163
H   H8        1.0  0.72890  0.12100  0.62100  1.0000 0.1116974163
H   H9        1.0  0.37900  0.27110  0.12100  1.0000 0.1116974163
H   H10       1.0  0.62100  0.27110  0.87900  1.0000 0.1116974163
H   H11       1.0  0.37900  0.72890  0.87900  1.0000 0.1116974163
H   H12       1.0  0.62100  0.72890  0.12100  1.0000 0.1116974163
H   H13       1.0  0.37900  0.12100  0.72890  1.0000 0.1116974163
H   H14       1.0  0.62100  0.87900  0.72890  1.0000 0.1116974163
H   H15       1.0  0.37900  0.87900  0.27110  1.0000 0.1116974163
H   H16       1.0  0.62100  0.12100  0.27110  1.0000 0.1116974163
H   H17       1.0  0.12100  0.27110  0.62100  1.0000 0.1116974163
H   H18       1.0  0.87900  0.27110  0.37900  1.0000 0.1116974163
H   H19       1.0  0.87900  0.72890  0.62100  1.0000 0.1116974163
H   H20       1.0  0.12100  0.72890  0.37900  1.0000 0.1116974163
H   H21       1.0  0.27110  0.37900  0.87900  1.0000 0.1116974163
H   H22       1.0  0.27110  0.62100  0.12100  1.0000 0.1116974163
H   H23       1.0  0.72890  0.37900  0.12100  1.0000 0.1116974163
H   H24       1.0  0.72890  0.62100  0.87900  1.0000 0.1116974163
H   H25       1.0  0.12100  0.87900  0.77110  1.0000 0.1116974163
H   H26       1.0  0.87900  0.12100  0.77110  1.0000 0.1116974163
H   H27       1.0  0.87900  0.87900  0.22890  1.0000 0.1116974163
H   H28       1.0  0.12100  0.12100  0.22890  1.0000 0.1116974163
H   H29       1.0  0.27110  0.62100  0.87900  1.0000 0.1116974163
H   H30       1.0  0.27110  0.37900  0.12100  1.0000 0.1116974163
H   H31       1.0  0.72890  0.37900  0.87900  1.0000 0.1116974163
H   H32       1.0  0.72890  0.62100  0.12100  1.0000 0.1116974163
H   H33       1.0  0.37900  0.77110  0.62100  1.0000 0.1116974163
H   H34       1.0  0.62100  0.77110  0.37900  1.0000 0.1116974163
H   H35       1.0  0.37900  0.22890  0.37900  1.0000 0.1116974163
H   H36       1.0  0.62100  0.22890  0.62100  1.0000 0.1116974163
H   H37       1.0  0.37900  0.62100  0.22890  1.0000 0.1116974163
H   H38       1.0  0.62100  0.37900  0.22890  1.0000 0.1116974163
H   H39       1.0  0.37900  0.37900  0.77110  1.0000 0.1116974163
H   H40       1.0  0.62100  0.62100  0.77110  1.0000 0.1116974163
H   H41       1.0  0.12100  0.77110  0.12100  1.0000 0.1116974163
H   H42       1.0  0.87900  0.77110  0.87900  1.0000 0.1116974163
H   H43       1.0  0.87900  0.22890  0.12100  1.0000 0.1116974163
H   H44       1.0  0.12100  0.22890  0.87900  1.0000 0.1116974163
H   H45       1.0  0.27110  0.87900  0.37900  1.0000 0.1116974163
H   H46       1.0  0.27110  0.12100  0.62100  1.0000 0.1116974163
H   H47       1.0  0.72890  0.87900  0.62100  1.0000 0.1116974163
H   H48       1.0  0.72890  0.12100  0.37900  1.0000 0.1116974163
H   H49       1.0  0.62100  0.37900  0.77110  1.0000 0.1116974163
H   H50       1.0  0.37900  0.62100  0.77110  1.0000 0.1116974163
H   H51       1.0  0.37900  0.37900  0.22890  1.0000 0.1116974163
H   H52       1.0  0.62100  0.62100  0.22890  1.0000 0.1116974163
H   H53       1.0  0.77110  0.12100  0.87900  1.0000 0.1116974163
H   H54       1.0  0.77110  0.87900  0.12100  1.0000 0.1116974163
H   H55       1.0  0.22890  0.87900  0.87900  1.0000 0.1116974163
H   H56       1.0  0.22890  0.12100  0.12100  1.0000 0.1116974163
H   H57       1.0  0.87900  0.27110  0.62100  1.0000 0.1116974163
H   H58       1.0  0.12100  0.27110  0.37900  1.0000 0.1116974163
H   H59       1.0  0.87900  0.72890  0.37900  1.0000 0.1116974163
H   H60       1.0  0.12100  0.72890  0.62100  1.0000 0.1116974163
H   H61       1.0  0.87900  0.12100  0.22890  1.0000 0.1116974163
H   H62       1.0  0.12100  0.87900  0.22890  1.0000 0.1116974163
H   H63       1.0  0.87900  0.87900  0.77110  1.0000 0.1116974163
H   H64       1.0  0.12100  0.12100  0.77110  1.0000 0.1116974163
H   H65       1.0  0.62100  0.27110  0.12100  1.0000 0.1116974163
H   H66       1.0  0.37900  0.27110  0.87900  1.0000 0.1116974163
H   H67       1.0  0.37900  0.72890  0.12100  1.0000 0.1116974163
H   H68       1.0  0.62100  0.72890  0.87900  1.0000 0.1116974163
H   H69       1.0  0.77110  0.37900  0.37900  1.0000 0.1116974163
H   H70       1.0  0.77110  0.62100  0.62100  1.0000 0.1116974163
H   H71       1.0  0.22890  0.37900  0.62100  1.0000 0.1116974163
H   H72       1.0  0.22890  0.62100  0.37900  1.0000 0.1116974163
H   H73       1.0  0.62100  0.87900  0.27110  1.0000 0.1116974163
H   H74       1.0  0.37900  0.12100  0.27110  1.0000 0.1116974163
H   H75       1.0  0.37900  0.87900  0.72890  1.0000 0.1116974163
H   H76       1.0  0.62100  0.12100  0.72890  1.0000 0.1116974163
H   H77       1.0  0.77110  0.62100  0.37900  1.0000 0.1116974163
H   H78       1.0  0.77110  0.37900  0.62100  1.0000 0.1116974163
H   H79       1.0  0.22890  0.37900  0.37900  1.0000 0.1116974163
H   H80       1.0  0.22890  0.62100  0.62100  1.0000 0.1116974163
H   H81       1.0  0.87900  0.77110  0.12100  1.0000 0.1116974163
H   H82       1.0  0.12100  0.77110  0.87900  1.0000 0.1116974163
H   H83       1.0  0.87900  0.22890  0.87900  1.0000 0.1116974163
H   H84       1.0  0.12100  0.22890  0.12100  1.0000 0.1116974163
H   H85       1.0  0.87900  0.62100  0.72890  1.0000 0.1116974163
H   H86       1.0  0.12100  0.37900  0.72890  1.0000 0.1116974163
H   H87       1.0  0.87900  0.37900  0.27110  1.0000 0.1116974163
H   H88       1.0  0.12100  0.62100  0.27110  1.0000 0.1116974163
H   H89       1.0  0.62100  0.77110  0.62100  1.0000 0.1116974163
H   H90       1.0  0.37900  0.77110  0.37900  1.0000 0.1116974163
H   H91       1.0  0.37900  0.22890  0.62100  1.0000 0.1116974163
H   H92       1.0  0.62100  0.22890  0.37900  1.0000 0.1116974163
H   H93       1.0  0.77110  0.87900  0.87900  1.0000 0.1116974163
H   H94       1.0  0.77110  0.12100  0.12100  1.0000 0.1116974163
H   H95       1.0  0.22890  0.87900  0.12100  1.0000 0.1116974163
H   H96       1.0  0.22890  0.12100  0.87900  1.0000 0.1116974163
C   C1        1.0  0.20329  0.42995  0.29671  1.0000 0.5905716079
C   C2        1.0  0.79671  0.57005  0.29671  1.0000 0.5905716079
C   C3        1.0  0.79671  0.42995  0.70329  1.0000 0.5905716079
C   C4        1.0  0.20329  0.57005  0.70329  1.0000 0.5905716079
C   C5        1.0  0.29671  0.20329  0.42995  1.0000 0.5905716079
C   C6        1.0  0.29671  0.79671  0.57005  1.0000 0.5905716079
C   C7        1.0  0.70329  0.79671  0.42995  1.0000 0.5905716079
C   C8        1.0  0.70329  0.20329  0.57005  1.0000 0.5905716079
C   C9        1.0  0.42995  0.29671  0.20329  1.0000 0.5905716079
C   C10       1.0  0.57005  0.29671  0.79671  1.0000 0.5905716079
C   C11       1.0  0.42995  0.70329  0.79671  1.0000 0.5905716079
C   C12       1.0  0.57005  0.70329  0.20329  1.0000 0.5905716079
C   C13       1.0  0.42995  0.20329  0.70329  1.0000 0.5905716079
C   C14       1.0  0.57005  0.79671  0.70329  1.0000 0.5905716079
C   C15       1.0  0.42995  0.79671  0.29671  1.0000 0.5905716079
C   C16       1.0  0.57005  0.20329  0.29671  1.0000 0.5905716079
C   C17       1.0  0.20329  0.29671  0.57005  1.0000 0.5905716079
C   C18       1.0  0.79671  0.29671  0.42995  1.0000 0.5905716079
C   C19       1.0  0.79671  0.70329  0.57005  1.0000 0.5905716079
C   C20       1.0  0.20329  0.70329  0.42995  1.0000 0.5905716079
C   C21       1.0  0.29671  0.42995  0.79671  1.0000 0.5905716079
C   C22       1.0  0.29671  0.57005  0.20329  1.0000 0.5905716079
C   C23       1.0  0.70329  0.42995  0.20329  1.0000 0.5905716079
C   C24       1.0  0.70329  0.57005  0.79671  1.0000 0.5905716079
C   C25       1.0  0.20329  0.92995  0.79671  1.0000 0.5905716079
C   C26       1.0  0.79671  0.07005  0.79671  1.0000 0.5905716079
C   C27       1.0  0.79671  0.92995  0.20329  1.0000 0.5905716079
C   C28       1.0  0.20329  0.07005  0.20329  1.0000 0.5905716079
C   C29       1.0  0.29671  0.70329  0.92995  1.0000 0.5905716079
C   C30       1.0  0.29671  0.29671  0.07005  1.0000 0.5905716079
C   C31       1.0  0.70329  0.29671  0.92995  1.0000 0.5905716079
C   C32       1.0  0.70329  0.70329  0.07005  1.0000 0.5905716079
C   C33       1.0  0.42995  0.79671  0.70329  1.0000 0.5905716079
C   C34       1.0  0.57005  0.79671  0.29671  1.0000 0.5905716079
C   C35       1.0  0.42995  0.20329  0.29671  1.0000 0.5905716079
C   C36       1.0  0.57005  0.20329  0.70329  1.0000 0.5905716079
C   C37       1.0  0.42995  0.70329  0.20329  1.0000 0.5905716079
C   C38       1.0  0.57005  0.29671  0.20329  1.0000 0.5905716079
C   C39       1.0  0.42995  0.29671  0.79671  1.0000 0.5905716079
C   C40       1.0  0.57005  0.70329  0.79671  1.0000 0.5905716079
C   C41       1.0  0.20329  0.79671  0.07005  1.0000 0.5905716079
C   C42       1.0  0.79671  0.79671  0.92995  1.0000 0.5905716079
C   C43       1.0  0.79671  0.20329  0.07005  1.0000 0.5905716079
C   C44       1.0  0.20329  0.20329  0.92995  1.0000 0.5905716079
C   C45       1.0  0.29671  0.92995  0.29671  1.0000 0.5905716079
C   C46       1.0  0.29671  0.07005  0.70329  1.0000 0.5905716079
C   C47       1.0  0.70329  0.92995  0.70329  1.0000 0.5905716079
C   C48       1.0  0.70329  0.07005  0.29671  1.0000 0.5905716079
C   C49       1.0  0.70329  0.42995  0.79671  1.0000 0.5905716079
C   C50       1.0  0.29671  0.57005  0.79671  1.0000 0.5905716079
C   C51       1.0  0.29671  0.42995  0.20329  1.0000 0.5905716079
C   C52       1.0  0.70329  0.57005  0.20329  1.0000 0.5905716079
C   C53       1.0  0.79671  0.20329  0.92995  1.0000 0.5905716079
C   C54       1.0  0.79671  0.79671  0.07005  1.0000 0.5905716079
C   C55       1.0  0.20329  0.79671  0.92995  1.0000 0.5905716079
C   C56       1.0  0.20329  0.20329  0.07005  1.0000 0.5905716079
C   C57       1.0  0.92995  0.29671  0.70329  1.0000 0.5905716079
C   C58       1.0  0.07005  0.29671  0.29671  1.0000 0.5905716079
C   C59       1.0  0.92995  0.70329  0.29671  1.0000 0.5905716079
C   C60       1.0  0.07005  0.70329  0.70329  1.0000 0.5905716079
C   C61       1.0  0.92995  0.20329  0.20329  1.0000 0.5905716079
C   C62       1.0  0.07005  0.79671  0.20329  1.0000 0.5905716079
C   C63       1.0  0.92995  0.79671  0.79671  1.0000 0.5905716079
C   C64       1.0  0.07005  0.20329  0.79671  1.0000 0.5905716079
C   C65       1.0  0.70329  0.29671  0.07005  1.0000 0.5905716079
C   C66       1.0  0.29671  0.29671  0.92995  1.0000 0.5905716079
C   C67       1.0  0.29671  0.70329  0.07005  1.0000 0.5905716079
C   C68       1.0  0.70329  0.70329  0.92995  1.0000 0.5905716079
C   C69       1.0  0.79671  0.42995  0.29671  1.0000 0.5905716079
C   C70       1.0  0.79671  0.57005  0.70329  1.0000 0.5905716079
C   C71       1.0  0.20329  0.42995  0.70329  1.0000 0.5905716079
C   C72       1.0  0.20329  0.57005  0.29671  1.0000 0.5905716079
C   C73       1.0  0.70329  0.92995  0.29671  1.0000 0.5905716079
C   C74       1.0  0.29671  0.07005  0.29671  1.0000 0.5905716079
C   C75       1.0  0.29671  0.92995  0.70329  1.0000 0.5905716079
C   C76       1.0  0.70329  0.07005  0.70329  1.0000 0.5905716079
C   C77       1.0  0.79671  0.70329  0.42995  1.0000 0.5905716079
C   C78       1.0  0.79671  0.29671  0.57005  1.0000 0.5905716079
C   C79       1.0  0.20329  0.29671  0.42995  1.0000 0.5905716079
C   C80       1.0  0.20329  0.70329  0.57005  1.0000 0.5905716079
C   C81       1.0  0.92995  0.79671  0.20329  1.0000 0.5905716079
C   C82       1.0  0.07005  0.79671  0.79671  1.0000 0.5905716079
C   C83       1.0  0.92995  0.20329  0.79671  1.0000 0.5905716079
C   C84       1.0  0.07005  0.20329  0.20329  1.0000 0.5905716079
C   C85       1.0  0.92995  0.70329  0.70329  1.0000 0.5905716079
C   C86       1.0  0.07005  0.29671  0.70329  1.0000 0.5905716079
C   C87       1.0  0.92995  0.29671  0.29671  1.0000 0.5905716079
C   C88       1.0  0.07005  0.70329  0.29671  1.0000 0.5905716079
C   C89       1.0  0.70329  0.79671  0.57005  1.0000 0.5905716079
C   C90       1.0  0.29671  0.79671  0.42995  1.0000 0.5905716079
C   C91       1.0  0.29671  0.20329  0.57005  1.0000 0.5905716079
C   C92       1.0  0.70329  0.20329  0.42995  1.0000 0.5905716079
C   C93       1.0  0.79671  0.92995  0.79671  1.0000 0.5905716079
C   C94       1.0  0.79671  0.07005  0.20329  1.0000 0.5905716079
C   C95       1.0  0.20329  0.92995  0.20329  1.0000 0.5905716079
C   C96       1.0  0.20329  0.07005  0.79671  1.0000 0.5905716079
C   C97       1.0  0.17822  0.38600  0.32178  1.0000 -0.0519894143
C   C98       1.0  0.82178  0.61400  0.32178  1.0000 -0.0519894143
C   C99       1.0  0.82178  0.38600  0.67822  1.0000 -0.0519894143
C   C100      1.0  0.17822  0.61400  0.67822  1.0000 -0.0519894143
C   C101      1.0  0.32178  0.17822  0.38600  1.0000 -0.0519894143
C   C102      1.0  0.32178  0.82178  0.61400  1.0000 -0.0519894143
C   C103      1.0  0.67822  0.82178  0.38600  1.0000 -0.0519894143
C   C104      1.0  0.67822  0.17822  0.61400  1.0000 -0.0519894143
C   C105      1.0  0.38600  0.32178  0.17822  1.0000 -0.0519894143
C   C106      1.0  0.61400  0.32178  0.82178  1.0000 -0.0519894143
C   C107      1.0  0.38600  0.67822  0.82178  1.0000 -0.0519894143
C   C108      1.0  0.61400  0.67822  0.17822  1.0000 -0.0519894143
C   C109      1.0  0.38600  0.17822  0.67822  1.0000 -0.0519894143
C   C110      1.0  0.61400  0.82178  0.67822  1.0000 -0.0519894143
C   C111      1.0  0.38600  0.82178  0.32178  1.0000 -0.0519894143
C   C112      1.0  0.61400  0.17822  0.32178  1.0000 -0.0519894143
C   C113      1.0  0.17822  0.32178  0.61400  1.0000 -0.0519894143
C   C114      1.0  0.82178  0.32178  0.38600  1.0000 -0.0519894143
C   C115      1.0  0.82178  0.67822  0.61400  1.0000 -0.0519894143
C   C116      1.0  0.17822  0.67822  0.38600  1.0000 -0.0519894143
C   C117      1.0  0.32178  0.38600  0.82178  1.0000 -0.0519894143
C   C118      1.0  0.32178  0.61400  0.17822  1.0000 -0.0519894143
C   C119      1.0  0.67822  0.38600  0.17822  1.0000 -0.0519894143
C   C120      1.0  0.67822  0.61400  0.82178  1.0000 -0.0519894143
C   C121      1.0  0.17822  0.88600  0.82178  1.0000 -0.0519894143
C   C122      1.0  0.82178  0.11400  0.82178  1.0000 -0.0519894143
C   C123      1.0  0.82178  0.88600  0.17822  1.0000 -0.0519894143
C   C124      1.0  0.17822  0.11400  0.17822  1.0000 -0.0519894143
C   C125      1.0  0.32178  0.67822  0.88600  1.0000 -0.0519894143
C   C126      1.0  0.32178  0.32178  0.11400  1.0000 -0.0519894143
C   C127      1.0  0.67822  0.32178  0.88600  1.0000 -0.0519894143
C   C128      1.0  0.67822  0.67822  0.11400  1.0000 -0.0519894143
C   C129      1.0  0.38600  0.82178  0.67822  1.0000 -0.0519894143
C   C130      1.0  0.61400  0.82178  0.32178  1.0000 -0.0519894143
C   C131      1.0  0.38600  0.17822  0.32178  1.0000 -0.0519894143
C   C132      1.0  0.61400  0.17822  0.67822  1.0000 -0.0519894143
C   C133      1.0  0.38600  0.67822  0.17822  1.0000 -0.0519894143
C   C134      1.0  0.61400  0.32178  0.17822  1.0000 -0.0519894143
C   C135      1.0  0.38600  0.32178  0.82178  1.0000 -0.0519894143
C   C136      1.0  0.61400  0.67822  0.82178  1.0000 -0.0519894143
C   C137      1.0  0.17822  0.82178  0.11400  1.0000 -0.0519894143
C   C138      1.0  0.82178  0.82178  0.88600  1.0000 -0.0519894143
C   C139      1.0  0.82178  0.17822  0.11400  1.0000 -0.0519894143
C   C140      1.0  0.17822  0.17822  0.88600  1.0000 -0.0519894143
C   C141      1.0  0.32178  0.88600  0.32178  1.0000 -0.0519894143
C   C142      1.0  0.32178  0.11400  0.67822  1.0000 -0.0519894143
C   C143      1.0  0.67822  0.88600  0.67822  1.0000 -0.0519894143
C   C144      1.0  0.67822  0.11400  0.32178  1.0000 -0.0519894143
C   C145      1.0  0.67822  0.38600  0.82178  1.0000 -0.0519894143
C   C146      1.0  0.32178  0.61400  0.82178  1.0000 -0.0519894143
C   C147      1.0  0.32178  0.38600  0.17822  1.0000 -0.0519894143
C   C148      1.0  0.67822  0.61400  0.17822  1.0000 -0.0519894143
C   C149      1.0  0.82178  0.17822  0.88600  1.0000 -0.0519894143
C   C150      1.0  0.82178  0.82178  0.11400  1.0000 -0.0519894143
C   C151      1.0  0.17822  0.82178  0.88600  1.0000 -0.0519894143
C   C152      1.0  0.17822  0.17822  0.11400  1.0000 -0.0519894143
C   C153      1.0  0.88600  0.32178  0.67822  1.0000 -0.0519894143
C   C154      1.0  0.11400  0.32178  0.32178  1.0000 -0.0519894143
C   C155      1.0  0.88600  0.67822  0.32178  1.0000 -0.0519894143
C   C156      1.0  0.11400  0.67822  0.67822  1.0000 -0.0519894143
C   C157      1.0  0.88600  0.17822  0.17822  1.0000 -0.0519894143
C   C158      1.0  0.11400  0.82178  0.17822  1.0000 -0.0519894143
C   C159      1.0  0.88600  0.82178  0.82178  1.0000 -0.0519894143
C   C160      1.0  0.11400  0.17822  0.82178  1.0000 -0.0519894143
C   C161      1.0  0.67822  0.32178  0.11400  1.0000 -0.0519894143
C   C162      1.0  0.32178  0.32178  0.88600  1.0000 -0.0519894143
C   C163      1.0  0.32178  0.67822  0.11400  1.0000 -0.0519894143
C   C164      1.0  0.67822  0.67822  0.88600  1.0000 -0.0519894143
C   C165      1.0  0.82178  0.38600  0.32178  1.0000 -0.0519894143
C   C166      1.0  0.82178  0.61400  0.67822  1.0000 -0.0519894143
C   C167      1.0  0.17822  0.38600  0.67822  1.0000 -0.0519894143
C   C168      1.0  0.17822  0.61400  0.32178  1.0000 -0.0519894143
C   C169      1.0  0.67822  0.88600  0.32178  1.0000 -0.0519894143
C   C170      1.0  0.32178  0.11400  0.32178  1.0000 -0.0519894143
C   C171      1.0  0.32178  0.88600  0.67822  1.0000 -0.0519894143
C   C172      1.0  0.67822  0.11400  0.67822  1.0000 -0.0519894143
C   C173      1.0  0.82178  0.67822  0.38600  1.0000 -0.0519894143
C   C174      1.0  0.82178  0.32178  0.61400  1.0000 -0.0519894143
C   C175      1.0  0.17822  0.32178  0.38600  1.0000 -0.0519894143
C   C176      1.0  0.17822  0.67822  0.61400  1.0000 -0.0519894143
C   C177      1.0  0.88600  0.82178  0.17822  1.0000 -0.0519894143
C   C178      1.0  0.11400  0.82178  0.82178  1.0000 -0.0519894143
C   C179      1.0  0.88600  0.17822  0.82178  1.0000 -0.0519894143
C   C180      1.0  0.11400  0.17822  0.17822  1.0000 -0.0519894143
C   C181      1.0  0.88600  0.67822  0.67822  1.0000 -0.0519894143
C   C182      1.0  0.11400  0.32178  0.67822  1.0000 -0.0519894143
C   C183      1.0  0.88600  0.32178  0.32178  1.0000 -0.0519894143
C   C184      1.0  0.11400  0.67822  0.32178  1.0000 -0.0519894143
C   C185      1.0  0.67822  0.82178  0.61400  1.0000 -0.0519894143
C   C186      1.0  0.32178  0.82178  0.38600  1.0000 -0.0519894143
C   C187      1.0  0.32178  0.17822  0.61400  1.0000 -0.0519894143
C   C188      1.0  0.67822  0.17822  0.38600  1.0000 -0.0519894143
C   C189      1.0  0.82178  0.88600  0.82178  1.0000 -0.0519894143
C   C190      1.0  0.82178  0.11400  0.17822  1.0000 -0.0519894143
C   C191      1.0  0.17822  0.88600  0.17822  1.0000 -0.0519894143
C   C192      1.0  0.17822  0.11400  0.82178  1.0000 -0.0519894143
C   C193      1.0  0.13550  0.36450  0.30040  1.0000 -0.0974102192
C   C194      1.0  0.86450  0.63550  0.30040  1.0000 -0.0974102192
C   C195      1.0  0.86450  0.36450  0.69960  1.0000 -0.0974102192
C   C196      1.0  0.13550  0.63550  0.69960  1.0000 -0.0974102192
C   C197      1.0  0.30040  0.13550  0.36450  1.0000 -0.0974102192
C   C198      1.0  0.30040  0.86450  0.63550  1.0000 -0.0974102192
C   C199      1.0  0.69960  0.86450  0.36450  1.0000 -0.0974102192
C   C200      1.0  0.69960  0.13550  0.63550  1.0000 -0.0974102192
C   C201      1.0  0.36450  0.30040  0.13550  1.0000 -0.0974102192
C   C202      1.0  0.63550  0.30040  0.86450  1.0000 -0.0974102192
C   C203      1.0  0.36450  0.69960  0.86450  1.0000 -0.0974102192
C   C204      1.0  0.63550  0.69960  0.13550  1.0000 -0.0974102192
C   C205      1.0  0.36450  0.13550  0.69960  1.0000 -0.0974102192
C   C206      1.0  0.63550  0.86450  0.69960  1.0000 -0.0974102192
C   C207      1.0  0.36450  0.86450  0.30040  1.0000 -0.0974102192
C   C208      1.0  0.63550  0.13550  0.30040  1.0000 -0.0974102192
C   C209      1.0  0.13550  0.30040  0.63550  1.0000 -0.0974102192
C   C210      1.0  0.86450  0.30040  0.36450  1.0000 -0.0974102192
C   C211      1.0  0.86450  0.69960  0.63550  1.0000 -0.0974102192
C   C212      1.0  0.13550  0.69960  0.36450  1.0000 -0.0974102192
C   C213      1.0  0.30040  0.36450  0.86450  1.0000 -0.0974102192
C   C214      1.0  0.30040  0.63550  0.13550  1.0000 -0.0974102192
C   C215      1.0  0.69960  0.36450  0.13550  1.0000 -0.0974102192
C   C216      1.0  0.69960  0.63550  0.86450  1.0000 -0.0974102192
C   C217      1.0  0.13550  0.86450  0.80040  1.0000 -0.0974102192
C   C218      1.0  0.86450  0.13550  0.80040  1.0000 -0.0974102192
C   C219      1.0  0.86450  0.86450  0.19960  1.0000 -0.0974102192
C   C220      1.0  0.13550  0.13550  0.19960  1.0000 -0.0974102192
C   C221      1.0  0.30040  0.63550  0.86450  1.0000 -0.0974102192
C   C222      1.0  0.30040  0.36450  0.13550  1.0000 -0.0974102192
C   C223      1.0  0.69960  0.36450  0.86450  1.0000 -0.0974102192
C   C224      1.0  0.69960  0.63550  0.13550  1.0000 -0.0974102192
C   C225      1.0  0.36450  0.80040  0.63550  1.0000 -0.0974102192
C   C226      1.0  0.63550  0.80040  0.36450  1.0000 -0.0974102192
C   C227      1.0  0.36450  0.19960  0.36450  1.0000 -0.0974102192
C   C228      1.0  0.63550  0.19960  0.63550  1.0000 -0.0974102192
C   C229      1.0  0.36450  0.63550  0.19960  1.0000 -0.0974102192
C   C230      1.0  0.63550  0.36450  0.19960  1.0000 -0.0974102192
C   C231      1.0  0.36450  0.36450  0.80040  1.0000 -0.0974102192
C   C232      1.0  0.63550  0.63550  0.80040  1.0000 -0.0974102192
C   C233      1.0  0.13550  0.80040  0.13550  1.0000 -0.0974102192
C   C234      1.0  0.86450  0.80040  0.86450  1.0000 -0.0974102192
C   C235      1.0  0.86450  0.19960  0.13550  1.0000 -0.0974102192
C   C236      1.0  0.13550  0.19960  0.86450  1.0000 -0.0974102192
C   C237      1.0  0.30040  0.86450  0.36450  1.0000 -0.0974102192
C   C238      1.0  0.30040  0.13550  0.63550  1.0000 -0.0974102192
C   C239      1.0  0.69960  0.86450  0.63550  1.0000 -0.0974102192
C   C240      1.0  0.69960  0.13550  0.36450  1.0000 -0.0974102192
C   C241      1.0  0.63550  0.36450  0.80040  1.0000 -0.0974102192
C   C242      1.0  0.36450  0.63550  0.80040  1.0000 -0.0974102192
C   C243      1.0  0.36450  0.36450  0.19960  1.0000 -0.0974102192
C   C244      1.0  0.63550  0.63550  0.19960  1.0000 -0.0974102192
C   C245      1.0  0.80040  0.13550  0.86450  1.0000 -0.0974102192
C   C246      1.0  0.80040  0.86450  0.13550  1.0000 -0.0974102192
C   C247      1.0  0.19960  0.86450  0.86450  1.0000 -0.0974102192
C   C248      1.0  0.19960  0.13550  0.13550  1.0000 -0.0974102192
C   C249      1.0  0.86450  0.30040  0.63550  1.0000 -0.0974102192
C   C250      1.0  0.13550  0.30040  0.36450  1.0000 -0.0974102192
C   C251      1.0  0.86450  0.69960  0.36450  1.0000 -0.0974102192
C   C252      1.0  0.13550  0.69960  0.63550  1.0000 -0.0974102192
C   C253      1.0  0.86450  0.13550  0.19960  1.0000 -0.0974102192
C   C254      1.0  0.13550  0.86450  0.19960  1.0000 -0.0974102192
C   C255      1.0  0.86450  0.86450  0.80040  1.0000 -0.0974102192
C   C256      1.0  0.13550  0.13550  0.80040  1.0000 -0.0974102192
C   C257      1.0  0.63550  0.30040  0.13550  1.0000 -0.0974102192
C   C258      1.0  0.36450  0.30040  0.86450  1.0000 -0.0974102192
C   C259      1.0  0.36450  0.69960  0.13550  1.0000 -0.0974102192
C   C260      1.0  0.63550  0.69960  0.86450  1.0000 -0.0974102192
C   C261      1.0  0.80040  0.36450  0.36450  1.0000 -0.0974102192
C   C262      1.0  0.80040  0.63550  0.63550  1.0000 -0.0974102192
C   C263      1.0  0.19960  0.36450  0.63550  1.0000 -0.0974102192
C   C264      1.0  0.19960  0.63550  0.36450  1.0000 -0.0974102192
C   C265      1.0  0.63550  0.86450  0.30040  1.0000 -0.0974102192
C   C266      1.0  0.36450  0.13550  0.30040  1.0000 -0.0974102192
C   C267      1.0  0.36450  0.86450  0.69960  1.0000 -0.0974102192
C   C268      1.0  0.63550  0.13550  0.69960  1.0000 -0.0974102192
C   C269      1.0  0.80040  0.63550  0.36450  1.0000 -0.0974102192
C   C270      1.0  0.80040  0.36450  0.63550  1.0000 -0.0974102192
C   C271      1.0  0.19960  0.36450  0.36450  1.0000 -0.0974102192
C   C272      1.0  0.19960  0.63550  0.63550  1.0000 -0.0974102192
C   C273      1.0  0.86450  0.80040  0.13550  1.0000 -0.0974102192
C   C274      1.0  0.13550  0.80040  0.86450  1.0000 -0.0974102192
C   C275      1.0  0.86450  0.19960  0.86450  1.0000 -0.0974102192
C   C276      1.0  0.13550  0.19960  0.13550  1.0000 -0.0974102192
C   C277      1.0  0.86450  0.63550  0.69960  1.0000 -0.0974102192
C   C278      1.0  0.13550  0.36450  0.69960  1.0000 -0.0974102192
C   C279      1.0  0.86450  0.36450  0.30040  1.0000 -0.0974102192
C   C280      1.0  0.13550  0.63550  0.30040  1.0000 -0.0974102192
C   C281      1.0  0.63550  0.80040  0.63550  1.0000 -0.0974102192
C   C282      1.0  0.36450  0.80040  0.36450  1.0000 -0.0974102192
C   C283      1.0  0.36450  0.19960  0.63550  1.0000 -0.0974102192
C   C284      1.0  0.63550  0.19960  0.36450  1.0000 -0.0974102192
C   C285      1.0  0.80040  0.86450  0.86450  1.0000 -0.0974102192
C   C286      1.0  0.80040  0.13550  0.13550  1.0000 -0.0974102192
C   C287      1.0  0.19960  0.86450  0.13550  1.0000 -0.0974102192
C   C288      1.0  0.19960  0.13550  0.86450  1.0000 -0.0974102192
O   O1        1.0  0.24230  0.44698  0.31730  1.0000 -0.5753598311
O   O2        1.0  0.75770  0.55302  0.31730  1.0000 -0.5753598311
O   O3        1.0  0.75770  0.44698  0.68270  1.0000 -0.5753598311
O   O4        1.0  0.24230  0.55302  0.68270  1.0000 -0.5753598311
O   O5        1.0  0.31730  0.24230  0.44698  1.0000 -0.5753598311
O   O6        1.0  0.31730  0.75770  0.55302  1.0000 -0.5753598311
O   O7        1.0  0.68270  0.75770  0.44698  1.0000 -0.5753598311
O   O8        1.0  0.68270  0.24230  0.55302  1.0000 -0.5753598311
O   O9        1.0  0.44698  0.31730  0.24230  1.0000 -0.5753598311
O   O10       1.0  0.55302  0.31730  0.75770  1.0000 -0.5753598311
O   O11       1.0  0.44698  0.68270  0.75770  1.0000 -0.5753598311
O   O12       1.0  0.55302  0.68270  0.24230  1.0000 -0.5753598311
O   O13       1.0  0.44698  0.24230  0.68270  1.0000 -0.5753598311
O   O14       1.0  0.55302  0.75770  0.68270  1.0000 -0.5753598311
O   O15       1.0  0.44698  0.75770  0.31730  1.0000 -0.5753598311
O   O16       1.0  0.55302  0.24230  0.31730  1.0000 -0.5753598311
O   O17       1.0  0.24230  0.31730  0.55302  1.0000 -0.5753598311
O   O18       1.0  0.75770  0.31730  0.44698  1.0000 -0.5753598311
O   O19       1.0  0.75770  0.68270  0.55302  1.0000 -0.5753598311
O   O20       1.0  0.24230  0.68270  0.44698  1.0000 -0.5753598311
O   O21       1.0  0.31730  0.44698  0.75770  1.0000 -0.5753598311
O   O22       1.0  0.31730  0.55302  0.24230  1.0000 -0.5753598311
O   O23       1.0  0.68270  0.44698  0.24230  1.0000 -0.5753598311
O   O24       1.0  0.68270  0.55302  0.75770  1.0000 -0.5753598311
O   O25       1.0  0.24230  0.94698  0.81730  1.0000 -0.5753598311
O   O26       1.0  0.75770  0.05302  0.81730  1.0000 -0.5753598311
O   O27       1.0  0.75770  0.94698  0.18270  1.0000 -0.5753598311
O   O28       1.0  0.24230  0.05302  0.18270  1.0000 -0.5753598311
O   O29       1.0  0.31730  0.74230  0.94698  1.0000 -0.5753598311
O   O30       1.0  0.31730  0.25770  0.05302  1.0000 -0.5753598311
O   O31       1.0  0.68270  0.25770  0.94698  1.0000 -0.5753598311
O   O32       1.0  0.68270  0.74230  0.05302  1.0000 -0.5753598311
O   O33       1.0  0.44698  0.81730  0.74230  1.0000 -0.5753598311
O   O34       1.0  0.55302  0.81730  0.25770  1.0000 -0.5753598311
O   O35       1.0  0.44698  0.18270  0.25770  1.0000 -0.5753598311
O   O36       1.0  0.55302  0.18270  0.74230  1.0000 -0.5753598311
O   O37       1.0  0.44698  0.74230  0.18270  1.0000 -0.5753598311
O   O38       1.0  0.55302  0.25770  0.18270  1.0000 -0.5753598311
O   O39       1.0  0.44698  0.25770  0.81730  1.0000 -0.5753598311
O   O40       1.0  0.55302  0.74230  0.81730  1.0000 -0.5753598311
O   O41       1.0  0.24230  0.81730  0.05302  1.0000 -0.5753598311
O   O42       1.0  0.75770  0.81730  0.94698  1.0000 -0.5753598311
O   O43       1.0  0.75770  0.18270  0.05302  1.0000 -0.5753598311
O   O44       1.0  0.24230  0.18270  0.94698  1.0000 -0.5753598311
O   O45       1.0  0.31730  0.94698  0.25770  1.0000 -0.5753598311
O   O46       1.0  0.31730  0.05302  0.74230  1.0000 -0.5753598311
O   O47       1.0  0.68270  0.94698  0.74230  1.0000 -0.5753598311
O   O48       1.0  0.68270  0.05302  0.25770  1.0000 -0.5753598311
O   O49       1.0  0.74230  0.44698  0.81730  1.0000 -0.5753598311
O   O50       1.0  0.25770  0.55302  0.81730  1.0000 -0.5753598311
O   O51       1.0  0.25770  0.44698  0.18270  1.0000 -0.5753598311
O   O52       1.0  0.74230  0.55302  0.18270  1.0000 -0.5753598311
O   O53       1.0  0.81730  0.24230  0.94698  1.0000 -0.5753598311
O   O54       1.0  0.81730  0.75770  0.05302  1.0000 -0.5753598311
O   O55       1.0  0.18270  0.75770  0.94698  1.0000 -0.5753598311
O   O56       1.0  0.18270  0.24230  0.05302  1.0000 -0.5753598311
O   O57       1.0  0.94698  0.31730  0.74230  1.0000 -0.5753598311
O   O58       1.0  0.05302  0.31730  0.25770  1.0000 -0.5753598311
O   O59       1.0  0.94698  0.68270  0.25770  1.0000 -0.5753598311
O   O60       1.0  0.05302  0.68270  0.74230  1.0000 -0.5753598311
O   O61       1.0  0.94698  0.24230  0.18270  1.0000 -0.5753598311
O   O62       1.0  0.05302  0.75770  0.18270  1.0000 -0.5753598311
O   O63       1.0  0.94698  0.75770  0.81730  1.0000 -0.5753598311
O   O64       1.0  0.05302  0.24230  0.81730  1.0000 -0.5753598311
O   O65       1.0  0.74230  0.31730  0.05302  1.0000 -0.5753598311
O   O66       1.0  0.25770  0.31730  0.94698  1.0000 -0.5753598311
O   O67       1.0  0.25770  0.68270  0.05302  1.0000 -0.5753598311
O   O68       1.0  0.74230  0.68270  0.94698  1.0000 -0.5753598311
O   O69       1.0  0.81730  0.44698  0.25770  1.0000 -0.5753598311
O   O70       1.0  0.81730  0.55302  0.74230  1.0000 -0.5753598311
O   O71       1.0  0.18270  0.44698  0.74230  1.0000 -0.5753598311
O   O72       1.0  0.18270  0.55302  0.25770  1.0000 -0.5753598311
O   O73       1.0  0.74230  0.94698  0.31730  1.0000 -0.5753598311
O   O74       1.0  0.25770  0.05302  0.31730  1.0000 -0.5753598311
O   O75       1.0  0.25770  0.94698  0.68270  1.0000 -0.5753598311
O   O76       1.0  0.74230  0.05302  0.68270  1.0000 -0.5753598311
O   O77       1.0  0.81730  0.74230  0.44698  1.0000 -0.5753598311
O   O78       1.0  0.81730  0.25770  0.55302  1.0000 -0.5753598311
O   O79       1.0  0.18270  0.25770  0.44698  1.0000 -0.5753598311
O   O80       1.0  0.18270  0.74230  0.55302  1.0000 -0.5753598311
O   O81       1.0  0.94698  0.81730  0.24230  1.0000 -0.5753598311
O   O82       1.0  0.05302  0.81730  0.75770  1.0000 -0.5753598311
O   O83       1.0  0.94698  0.18270  0.75770  1.0000 -0.5753598311
O   O84       1.0  0.05302  0.18270  0.24230  1.0000 -0.5753598311
O   O85       1.0  0.94698  0.74230  0.68270  1.0000 -0.5753598311
O   O86       1.0  0.05302  0.25770  0.68270  1.0000 -0.5753598311
O   O87       1.0  0.94698  0.25770  0.31730  1.0000 -0.5753598311
O   O88       1.0  0.05302  0.74230  0.31730  1.0000 -0.5753598311
O   O89       1.0  0.74230  0.81730  0.55302  1.0000 -0.5753598311
O   O90       1.0  0.25770  0.81730  0.44698  1.0000 -0.5753598311
O   O91       1.0  0.25770  0.18270  0.55302  1.0000 -0.5753598311
O   O92       1.0  0.74230  0.18270  0.44698  1.0000 -0.5753598311
O   O93       1.0  0.81730  0.94698  0.75770  1.0000 -0.5753598311
O   O94       1.0  0.81730  0.05302  0.24230  1.0000 -0.5753598311
O   O95       1.0  0.18270  0.94698  0.24230  1.0000 -0.5753598311
O   O96       1.0  0.18270  0.05302  0.75770  1.0000 -0.5753598311
O   O97       1.0  0.75770  0.55302  0.68270  1.0000 -0.5753598311
O   O98       1.0  0.24230  0.44698  0.68270  1.0000 -0.5753598311
O   O99       1.0  0.24230  0.55302  0.31730  1.0000 -0.5753598311
O   O100      1.0  0.75770  0.44698  0.31730  1.0000 -0.5753598311
O   O101      1.0  0.68270  0.75770  0.55302  1.0000 -0.5753598311
O   O102      1.0  0.68270  0.24230  0.44698  1.0000 -0.5753598311
O   O103      1.0  0.31730  0.24230  0.55302  1.0000 -0.5753598311
O   O104      1.0  0.31730  0.75770  0.44698  1.0000 -0.5753598311
O   O105      1.0  0.55302  0.68270  0.75770  1.0000 -0.5753598311
O   O106      1.0  0.44698  0.68270  0.24230  1.0000 -0.5753598311
O   O107      1.0  0.55302  0.31730  0.24230  1.0000 -0.5753598311
O   O108      1.0  0.44698  0.31730  0.75770  1.0000 -0.5753598311
O   O109      1.0  0.55302  0.75770  0.31730  1.0000 -0.5753598311
O   O110      1.0  0.44698  0.24230  0.31730  1.0000 -0.5753598311
O   O111      1.0  0.55302  0.24230  0.68270  1.0000 -0.5753598311
O   O112      1.0  0.44698  0.75770  0.68270  1.0000 -0.5753598311
O   O113      1.0  0.75770  0.68270  0.44698  1.0000 -0.5753598311
O   O114      1.0  0.24230  0.68270  0.55302  1.0000 -0.5753598311
O   O115      1.0  0.24230  0.31730  0.44698  1.0000 -0.5753598311
O   O116      1.0  0.75770  0.31730  0.55302  1.0000 -0.5753598311
O   O117      1.0  0.68270  0.55302  0.24230  1.0000 -0.5753598311
O   O118      1.0  0.68270  0.44698  0.75770  1.0000 -0.5753598311
O   O119      1.0  0.31730  0.55302  0.75770  1.0000 -0.5753598311
O   O120      1.0  0.31730  0.44698  0.24230  1.0000 -0.5753598311
O   O121      1.0  0.75770  0.05302  0.18270  1.0000 -0.5753598311
O   O122      1.0  0.24230  0.94698  0.18270  1.0000 -0.5753598311
O   O123      1.0  0.24230  0.05302  0.81730  1.0000 -0.5753598311
O   O124      1.0  0.75770  0.94698  0.81730  1.0000 -0.5753598311
O   O125      1.0  0.68270  0.25770  0.05302  1.0000 -0.5753598311
O   O126      1.0  0.68270  0.74230  0.94698  1.0000 -0.5753598311
O   O127      1.0  0.31730  0.74230  0.05302  1.0000 -0.5753598311
O   O128      1.0  0.31730  0.25770  0.94698  1.0000 -0.5753598311
O   O129      1.0  0.55302  0.18270  0.25770  1.0000 -0.5753598311
O   O130      1.0  0.44698  0.18270  0.74230  1.0000 -0.5753598311
O   O131      1.0  0.55302  0.81730  0.74230  1.0000 -0.5753598311
O   O132      1.0  0.44698  0.81730  0.25770  1.0000 -0.5753598311
O   O133      1.0  0.55302  0.25770  0.81730  1.0000 -0.5753598311
O   O134      1.0  0.44698  0.74230  0.81730  1.0000 -0.5753598311
O   O135      1.0  0.55302  0.74230  0.18270  1.0000 -0.5753598311
O   O136      1.0  0.44698  0.25770  0.18270  1.0000 -0.5753598311
O   O137      1.0  0.75770  0.18270  0.94698  1.0000 -0.5753598311
O   O138      1.0  0.24230  0.18270  0.05302  1.0000 -0.5753598311
O   O139      1.0  0.24230  0.81730  0.94698  1.0000 -0.5753598311
O   O140      1.0  0.75770  0.81730  0.05302  1.0000 -0.5753598311
O   O141      1.0  0.68270  0.05302  0.74230  1.0000 -0.5753598311
O   O142      1.0  0.68270  0.94698  0.25770  1.0000 -0.5753598311
O   O143      1.0  0.31730  0.05302  0.25770  1.0000 -0.5753598311
O   O144      1.0  0.31730  0.94698  0.74230  1.0000 -0.5753598311
O   O145      1.0  0.25770  0.55302  0.18270  1.0000 -0.5753598311
O   O146      1.0  0.74230  0.44698  0.18270  1.0000 -0.5753598311
O   O147      1.0  0.74230  0.55302  0.81730  1.0000 -0.5753598311
O   O148      1.0  0.25770  0.44698  0.81730  1.0000 -0.5753598311
O   O149      1.0  0.18270  0.75770  0.05302  1.0000 -0.5753598311
O   O150      1.0  0.18270  0.24230  0.94698  1.0000 -0.5753598311
O   O151      1.0  0.81730  0.24230  0.05302  1.0000 -0.5753598311
O   O152      1.0  0.81730  0.75770  0.94698  1.0000 -0.5753598311
O   O153      1.0  0.05302  0.68270  0.25770  1.0000 -0.5753598311
O   O154      1.0  0.94698  0.68270  0.74230  1.0000 -0.5753598311
O   O155      1.0  0.05302  0.31730  0.74230  1.0000 -0.5753598311
O   O156      1.0  0.94698  0.31730  0.25770  1.0000 -0.5753598311
O   O157      1.0  0.05302  0.75770  0.81730  1.0000 -0.5753598311
O   O158      1.0  0.94698  0.24230  0.81730  1.0000 -0.5753598311
O   O159      1.0  0.05302  0.24230  0.18270  1.0000 -0.5753598311
O   O160      1.0  0.94698  0.75770  0.18270  1.0000 -0.5753598311
O   O161      1.0  0.25770  0.68270  0.94698  1.0000 -0.5753598311
O   O162      1.0  0.74230  0.68270  0.05302  1.0000 -0.5753598311
O   O163      1.0  0.74230  0.31730  0.94698  1.0000 -0.5753598311
O   O164      1.0  0.25770  0.31730  0.05302  1.0000 -0.5753598311
O   O165      1.0  0.18270  0.55302  0.74230  1.0000 -0.5753598311
O   O166      1.0  0.18270  0.44698  0.25770  1.0000 -0.5753598311
O   O167      1.0  0.81730  0.55302  0.25770  1.0000 -0.5753598311
O   O168      1.0  0.81730  0.44698  0.74230  1.0000 -0.5753598311
O   O169      1.0  0.25770  0.05302  0.68270  1.0000 -0.5753598311
O   O170      1.0  0.74230  0.94698  0.68270  1.0000 -0.5753598311
O   O171      1.0  0.74230  0.05302  0.31730  1.0000 -0.5753598311
O   O172      1.0  0.25770  0.94698  0.31730  1.0000 -0.5753598311
O   O173      1.0  0.18270  0.25770  0.55302  1.0000 -0.5753598311
O   O174      1.0  0.18270  0.74230  0.44698  1.0000 -0.5753598311
O   O175      1.0  0.81730  0.74230  0.55302  1.0000 -0.5753598311
O   O176      1.0  0.81730  0.25770  0.44698  1.0000 -0.5753598311
O   O177      1.0  0.05302  0.18270  0.75770  1.0000 -0.5753598311
O   O178      1.0  0.94698  0.18270  0.24230  1.0000 -0.5753598311
O   O179      1.0  0.05302  0.81730  0.24230  1.0000 -0.5753598311
O   O180      1.0  0.94698  0.81730  0.75770  1.0000 -0.5753598311
O   O181      1.0  0.05302  0.25770  0.31730  1.0000 -0.5753598311
O   O182      1.0  0.94698  0.74230  0.31730  1.0000 -0.5753598311
O   O183      1.0  0.05302  0.74230  0.68270  1.0000 -0.5753598311
O   O184      1.0  0.94698  0.25770  0.68270  1.0000 -0.5753598311
O   O185      1.0  0.25770  0.18270  0.44698  1.0000 -0.5753598311
O   O186      1.0  0.74230  0.18270  0.55302  1.0000 -0.5753598311
O   O187      1.0  0.74230  0.81730  0.44698  1.0000 -0.5753598311
O   O188      1.0  0.25770  0.81730  0.55302  1.0000 -0.5753598311
O   O189      1.0  0.18270  0.05302  0.24230  1.0000 -0.5753598311
O   O190      1.0  0.18270  0.94698  0.75770  1.0000 -0.5753598311
O   O191      1.0  0.81730  0.05302  0.75770  1.0000 -0.5753598311
O   O192      1.0  0.81730  0.94698  0.24230  1.0000 -0.5753598311
O   O193      1.0  0.34070  0.51860  0.34070  0.5000 0.1736260758
O   O194      1.0  0.65930  0.48140  0.34070  0.5000 0.1736260758
O   O195      1.0  0.65930  0.51860  0.65930  0.5000 0.1736260758
O   O196      1.0  0.34070  0.48140  0.65930  0.5000 0.1736260758
O   O197      1.0  0.34070  0.34070  0.51860  0.5000 0.1736260758
O   O198      1.0  0.34070  0.65930  0.48140  0.5000 0.1736260758
O   O199      1.0  0.65930  0.65930  0.51860  0.5000 0.1736260758
O   O200      1.0  0.65930  0.34070  0.48140  0.5000 0.1736260758
O   O201      1.0  0.51860  0.34070  0.34070  0.5000 0.1736260758
O   O202      1.0  0.48140  0.34070  0.65930  0.5000 0.1736260758
O   O203      1.0  0.51860  0.65930  0.65930  0.5000 0.1736260758
O   O204      1.0  0.48140  0.65930  0.34070  0.5000 0.1736260758
O   O205      1.0  0.51860  0.34070  0.65930  0.5000 0.1736260758
O   O206      1.0  0.48140  0.65930  0.65930  0.5000 0.1736260758
O   O207      1.0  0.51860  0.65930  0.34070  0.5000 0.1736260758
O   O208      1.0  0.48140  0.34070  0.34070  0.5000 0.1736260758
O   O209      1.0  0.34070  0.34070  0.48140  0.5000 0.1736260758
O   O210      1.0  0.65930  0.34070  0.51860  0.5000 0.1736260758
O   O211      1.0  0.65930  0.65930  0.48140  0.5000 0.1736260758
O   O212      1.0  0.34070  0.65930  0.51860  0.5000 0.1736260758
O   O213      1.0  0.34070  0.51860  0.65930  0.5000 0.1736260758
O   O214      1.0  0.34070  0.48140  0.34070  0.5000 0.1736260758
O   O215      1.0  0.65930  0.51860  0.34070  0.5000 0.1736260758
O   O216      1.0  0.65930  0.48140  0.65930  0.5000 0.1736260758
O   O217      1.0  0.34070  0.01860  0.84070  0.5000 0.1736260758
O   O218      1.0  0.65930  0.98140  0.84070  0.5000 0.1736260758
O   O219      1.0  0.65930  0.01860  0.15930  0.5000 0.1736260758
O   O220      1.0  0.34070  0.98140  0.15930  0.5000 0.1736260758
O   O221      1.0  0.34070  0.84070  0.01860  0.5000 0.1736260758
O   O222      1.0  0.34070  0.15930  0.98140  0.5000 0.1736260758
O   O223      1.0  0.65930  0.15930  0.01860  0.5000 0.1736260758
O   O224      1.0  0.65930  0.84070  0.98140  0.5000 0.1736260758
O   O225      1.0  0.51860  0.84070  0.84070  0.5000 0.1736260758
O   O226      1.0  0.48140  0.84070  0.15930  0.5000 0.1736260758
O   O227      1.0  0.51860  0.15930  0.15930  0.5000 0.1736260758
O   O228      1.0  0.48140  0.15930  0.84070  0.5000 0.1736260758
O   O229      1.0  0.51860  0.84070  0.15930  0.5000 0.1736260758
O   O230      1.0  0.48140  0.15930  0.15930  0.5000 0.1736260758
O   O231      1.0  0.51860  0.15930  0.84070  0.5000 0.1736260758
O   O232      1.0  0.48140  0.84070  0.84070  0.5000 0.1736260758
O   O233      1.0  0.34070  0.84070  0.98140  0.5000 0.1736260758
O   O234      1.0  0.65930  0.84070  0.01860  0.5000 0.1736260758
O   O235      1.0  0.65930  0.15930  0.98140  0.5000 0.1736260758
O   O236      1.0  0.34070  0.15930  0.01860  0.5000 0.1736260758
O   O237      1.0  0.34070  0.01860  0.15930  0.5000 0.1736260758
O   O238      1.0  0.34070  0.98140  0.84070  0.5000 0.1736260758
O   O239      1.0  0.65930  0.01860  0.84070  0.5000 0.1736260758
O   O240      1.0  0.65930  0.98140  0.15930  0.5000 0.1736260758
O   O241      1.0  0.84070  0.51860  0.84070  0.5000 0.1736260758
O   O242      1.0  0.15930  0.48140  0.84070  0.5000 0.1736260758
O   O243      1.0  0.15930  0.51860  0.15930  0.5000 0.1736260758
O   O244      1.0  0.84070  0.48140  0.15930  0.5000 0.1736260758
O   O245      1.0  0.84070  0.34070  0.01860  0.5000 0.1736260758
O   O246      1.0  0.84070  0.65930  0.98140  0.5000 0.1736260758
O   O247      1.0  0.15930  0.65930  0.01860  0.5000 0.1736260758
O   O248      1.0  0.15930  0.34070  0.98140  0.5000 0.1736260758
O   O249      1.0  0.01860  0.34070  0.84070  0.5000 0.1736260758
O   O250      1.0  0.98140  0.34070  0.15930  0.5000 0.1736260758
O   O251      1.0  0.01860  0.65930  0.15930  0.5000 0.1736260758
O   O252      1.0  0.98140  0.65930  0.84070  0.5000 0.1736260758
O   O253      1.0  0.01860  0.34070  0.15930  0.5000 0.1736260758
O   O254      1.0  0.98140  0.65930  0.15930  0.5000 0.1736260758
O   O255      1.0  0.01860  0.65930  0.84070  0.5000 0.1736260758
O   O256      1.0  0.98140  0.34070  0.84070  0.5000 0.1736260758
O   O257      1.0  0.84070  0.34070  0.98140  0.5000 0.1736260758
O   O258      1.0  0.15930  0.34070  0.01860  0.5000 0.1736260758
O   O259      1.0  0.15930  0.65930  0.98140  0.5000 0.1736260758
O   O260      1.0  0.84070  0.65930  0.01860  0.5000 0.1736260758
O   O261      1.0  0.84070  0.51860  0.15930  0.5000 0.1736260758
O   O262      1.0  0.84070  0.48140  0.84070  0.5000 0.1736260758
O   O263      1.0  0.15930  0.51860  0.84070  0.5000 0.1736260758
O   O264      1.0  0.15930  0.48140  0.15930  0.5000 0.1736260758
O   O265      1.0  0.84070  0.01860  0.34070  0.5000 0.1736260758
O   O266      1.0  0.15930  0.98140  0.34070  0.5000 0.1736260758
O   O267      1.0  0.15930  0.01860  0.65930  0.5000 0.1736260758
O   O268      1.0  0.84070  0.98140  0.65930  0.5000 0.1736260758
O   O269      1.0  0.84070  0.84070  0.51860  0.5000 0.1736260758
O   O270      1.0  0.84070  0.15930  0.48140  0.5000 0.1736260758
O   O271      1.0  0.15930  0.15930  0.51860  0.5000 0.1736260758
O   O272      1.0  0.15930  0.84070  0.48140  0.5000 0.1736260758
O   O273      1.0  0.01860  0.84070  0.34070  0.5000 0.1736260758
O   O274      1.0  0.98140  0.84070  0.65930  0.5000 0.1736260758
O   O275      1.0  0.01860  0.15930  0.65930  0.5000 0.1736260758
O   O276      1.0  0.98140  0.15930  0.34070  0.5000 0.1736260758
O   O277      1.0  0.01860  0.84070  0.65930  0.5000 0.1736260758
O   O278      1.0  0.98140  0.15930  0.65930  0.5000 0.1736260758
O   O279      1.0  0.01860  0.15930  0.34070  0.5000 0.1736260758
O   O280      1.0  0.98140  0.84070  0.34070  0.5000 0.1736260758
O   O281      1.0  0.84070  0.84070  0.48140  0.5000 0.1736260758
O   O282      1.0  0.15930  0.84070  0.51860  0.5000 0.1736260758
O   O283      1.0  0.15930  0.15930  0.48140  0.5000 0.1736260758
O   O284      1.0  0.84070  0.15930  0.51860  0.5000 0.1736260758
O   O285      1.0  0.84070  0.01860  0.65930  0.5000 0.1736260758
O   O286      1.0  0.84070  0.98140  0.34070  0.5000 0.1736260758
O   O287      1.0  0.15930  0.01860  0.34070  0.5000 0.1736260758
O   O288      1.0  0.15930  0.98140  0.65930  0.5000 0.1736260758
