# DDEC6 charges by PACMAN v1.1 (https://github.com/mtap-research/PACMAN-charge/)
data_oc7b00169_si_003_8_ASR_pacman
_symmetry_space_group_name_H-M   'P 1'
_cell_length_a   18.95500000
_cell_length_b   18.95500000
_cell_length_c   36.46400000
_cell_angle_alpha   90.00000000
_cell_angle_beta   90.00000000
_cell_angle_gamma   90.00000000
_symmetry_Int_Tables_number   1
_chemical_formula_structural   Al2H21(C17O5)2
_chemical_formula_sum   'Al16 H168 C272 O80'
_cell_volume   13101.22439960
_cell_formula_units_Z   8
loop_
 _symmetry_equiv_pos_site_id
 _symmetry_equiv_pos_as_xyz
  1  'x, y, z'
loop_
 _atom_site_type_symbol
 _atom_site_label
 _atom_site_symmetry_multiplicity
 _atom_site_fract_x
 _atom_site_fract_y
 _atom_site_fract_z
 _atom_site_occupancy
 _atom_site_charge
Al  Al1  1  0.66445000  0.33555000  0.50000000  1.0 1.6480931983
Al  Al2  1  0.16445000  0.16445000  0.00000000  1.0 1.6480931983
Al  Al3  1  0.33555000  0.66445000  0.50000000  1.0 1.6480931983
Al  Al4  1  0.83555000  0.83555000  0.00000000  1.0 1.6480931983
Al  Al5  1  0.61849000  0.38681000  0.41706000  1.0 1.6402256087
Al  Al6  1  0.11319000  0.11849000  0.91706000  1.0 1.6402256087
Al  Al7  1  0.38151000  0.61319000  0.41706000  1.0 1.6402256087
Al  Al8  1  0.88681000  0.88151000  0.91706000  1.0 1.6402256087
Al  Al9  1  0.11849000  0.11319000  0.08294000  1.0 1.6402256087
Al  Al10  1  0.88151000  0.88681000  0.08294000  1.0 1.6402256087
Al  Al11  1  0.38681000  0.61849000  0.58294000  1.0 1.6402256087
Al  Al12  1  0.61319000  0.38151000  0.58294000  1.0 1.6402256087
Al  Al13  1  0.50000000  0.50000000  0.38582000  1.0 1.6480931983
Al  Al14  1  0.00000000  0.00000000  0.88582000  1.0 1.6480931983
Al  Al15  1  0.00000000  0.00000000  0.11418000  1.0 1.6480931983
Al  Al16  1  0.50000000  0.50000000  0.61418000  1.0 1.6480931983
H  H1  1  0.57930000  0.50180000  0.43650000  1.0 0.4265703251
H  H2  1  0.99820000  0.07930000  0.93650000  1.0 0.4265703251
H  H3  1  0.42070000  0.49820000  0.43650000  1.0 0.4265703251
H  H4  1  0.00180000  0.92070000  0.93650000  1.0 0.4265703251
H  H5  1  0.07930000  0.99820000  0.06350000  1.0 0.4265703251
H  H6  1  0.92070000  0.00180000  0.06350000  1.0 0.4265703251
H  H7  1  0.50180000  0.57930000  0.56350000  1.0 0.4265703251
H  H8  1  0.49820000  0.42070000  0.56350000  1.0 0.4265703251
H  H9  1  0.55460000  0.36830000  0.47240000  1.0 0.4265703251
H  H10  1  0.13170000  0.05460000  0.97240000  1.0 0.4265703251
H  H11  1  0.44540000  0.63170000  0.47240000  1.0 0.4265703251
H  H12  1  0.86830000  0.94540000  0.97240000  1.0 0.4265703251
H  H13  1  0.05460000  0.13170000  0.02760000  1.0 0.4265703251
H  H14  1  0.94540000  0.86830000  0.02760000  1.0 0.4265703251
H  H15  1  0.36830000  0.55460000  0.52760000  1.0 0.4265703251
H  H16  1  0.63170000  0.44540000  0.52760000  1.0 0.4265703251
H  H17  1  0.75660000  0.62230000  0.16440000  1.0 0.1190956206
H  H18  1  0.87770000  0.25660000  0.66440000  1.0 0.1190956206
H  H19  1  0.24340000  0.37770000  0.16440000  1.0 0.1190956206
H  H20  1  0.12230000  0.74340000  0.66440000  1.0 0.1190956206
H  H21  1  0.25660000  0.87770000  0.33560000  1.0 0.1190956206
H  H22  1  0.74340000  0.12230000  0.33560000  1.0 0.1190956206
H  H23  1  0.62230000  0.75660000  0.83560000  1.0 0.1190956206
H  H24  1  0.37770000  0.24340000  0.83560000  1.0 0.1190956206
H  H25  1  0.76790000  0.63210000  0.03890000  1.0 0.1304850952
H  H26  1  0.86790000  0.26790000  0.53890000  1.0 0.1304850952
H  H27  1  0.23210000  0.36790000  0.03890000  1.0 0.1304850952
H  H28  1  0.13210000  0.73210000  0.53890000  1.0 0.1304850952
H  H29  1  0.26790000  0.86790000  0.46110000  1.0 0.1304850952
H  H30  1  0.73210000  0.13210000  0.46110000  1.0 0.1304850952
H  H31  1  0.63210000  0.76790000  0.96110000  1.0 0.1304850952
H  H32  1  0.36790000  0.23210000  0.96110000  1.0 0.1304850952
H  H33  1  0.77540000  0.73510000  0.13520000  1.0 0.1304850952
H  H34  1  0.76490000  0.27540000  0.63520000  1.0 0.1304850952
H  H35  1  0.22460000  0.26490000  0.13520000  1.0 0.1304850952
H  H36  1  0.23510000  0.72460000  0.63520000  1.0 0.1304850952
H  H37  1  0.27540000  0.76490000  0.36480000  1.0 0.1304850952
H  H38  1  0.72460000  0.23510000  0.36480000  1.0 0.1304850952
H  H39  1  0.73510000  0.77540000  0.86480000  1.0 0.1304850952
H  H40  1  0.26490000  0.22460000  0.86480000  1.0 0.1304850952
H  H41  1  0.74290000  0.52810000  0.06990000  1.0 0.1122770206
H  H42  1  0.97190000  0.24290000  0.56990000  1.0 0.1122770206
H  H43  1  0.25710000  0.47190000  0.06990000  1.0 0.1122770206
H  H44  1  0.02810000  0.75710000  0.56990000  1.0 0.1122770206
H  H45  1  0.24290000  0.97190000  0.43010000  1.0 0.1122770206
H  H46  1  0.75710000  0.02810000  0.43010000  1.0 0.1122770206
H  H47  1  0.52810000  0.74290000  0.93010000  1.0 0.1122770206
H  H48  1  0.47190000  0.25710000  0.93010000  1.0 0.1122770206
H  H49  1  0.57080000  0.49980000  0.28220000  1.0 0.1304850952
H  H50  1  0.00020000  0.07080000  0.78220000  1.0 0.1304850952
H  H51  1  0.42920000  0.50020000  0.28220000  1.0 0.1304850952
H  H52  1  0.99980000  0.92920000  0.78220000  1.0 0.1304850952
H  H53  1  0.07080000  0.00020000  0.21780000  1.0 0.1304850952
H  H54  1  0.92920000  0.99980000  0.21780000  1.0 0.1304850952
H  H55  1  0.49980000  0.57080000  0.71780000  1.0 0.1304850952
H  H56  1  0.50020000  0.42920000  0.71780000  1.0 0.1304850952
H  H57  1  0.84770000  0.15670000  0.14050000  1.0 0.1382656243
H  H58  1  0.34330000  0.34770000  0.64050000  1.0 0.1382656243
H  H59  1  0.15230000  0.84330000  0.14050000  1.0 0.1382656243
H  H60  1  0.65670000  0.65230000  0.64050000  1.0 0.1382656243
H  H61  1  0.34770000  0.34330000  0.35950000  1.0 0.1382656243
H  H62  1  0.65230000  0.65670000  0.35950000  1.0 0.1382656243
H  H63  1  0.15670000  0.84770000  0.85950000  1.0 0.1382656243
H  H64  1  0.84330000  0.15230000  0.85950000  1.0 0.1382656243
H  H65  1  0.98950000  0.29230000  0.09960000  1.0 0.1304850952
H  H66  1  0.20770000  0.48950000  0.59960000  1.0 0.1304850952
H  H67  1  0.01050000  0.70770000  0.09960000  1.0 0.1304850952
H  H68  1  0.79230000  0.51050000  0.59960000  1.0 0.1304850952
H  H69  1  0.48950000  0.20770000  0.40040000  1.0 0.1304850952
H  H70  1  0.51050000  0.79230000  0.40040000  1.0 0.1304850952
H  H71  1  0.29230000  0.98950000  0.90040000  1.0 0.1304850952
H  H72  1  0.70770000  0.01050000  0.90040000  1.0 0.1304850952
H  H73  1  0.71740000  0.35250000  0.31100000  1.0 0.1304850952
H  H74  1  0.14750000  0.21740000  0.81100000  1.0 0.1304850952
H  H75  1  0.28260000  0.64750000  0.31100000  1.0 0.1304850952
H  H76  1  0.85250000  0.78260000  0.81100000  1.0 0.1304850952
H  H77  1  0.21740000  0.14750000  0.18900000  1.0 0.1304850952
H  H78  1  0.78260000  0.85250000  0.18900000  1.0 0.1304850952
H  H79  1  0.35250000  0.71740000  0.68900000  1.0 0.1304850952
H  H80  1  0.64750000  0.28260000  0.68900000  1.0 0.1304850952
H  H81  1  0.76490000  0.37080000  0.25540000  1.0 0.1190956206
H  H82  1  0.12920000  0.26490000  0.75540000  1.0 0.1190956206
H  H83  1  0.23510000  0.62920000  0.25540000  1.0 0.1190956206
H  H84  1  0.87080000  0.73510000  0.75540000  1.0 0.1190956206
H  H85  1  0.26490000  0.12920000  0.24460000  1.0 0.1190956206
H  H86  1  0.73510000  0.87080000  0.24460000  1.0 0.1190956206
H  H87  1  0.37080000  0.76490000  0.74460000  1.0 0.1190956206
H  H88  1  0.62920000  0.23510000  0.74460000  1.0 0.1190956206
H  H89  1  0.60680000  0.49240000  0.22220000  1.0 0.1190956206
H  H90  1  0.00760000  0.10680000  0.72220000  1.0 0.1190956206
H  H91  1  0.39320000  0.50760000  0.22220000  1.0 0.1190956206
H  H92  1  0.99240000  0.89320000  0.72220000  1.0 0.1190956206
H  H93  1  0.10680000  0.00760000  0.27780000  1.0 0.1190956206
H  H94  1  0.89320000  0.99240000  0.27780000  1.0 0.1190956206
H  H95  1  0.49240000  0.60680000  0.77780000  1.0 0.1190956206
H  H96  1  0.50760000  0.39320000  0.77780000  1.0 0.1190956206
H  H97  1  0.69400000  0.53440000  0.18310000  1.0 0.1122770206
H  H98  1  0.96560000  0.19400000  0.68310000  1.0 0.1122770206
H  H99  1  0.30600000  0.46560000  0.18310000  1.0 0.1122770206
H  H100  1  0.03440000  0.80600000  0.68310000  1.0 0.1122770206
H  H101  1  0.19400000  0.96560000  0.31690000  1.0 0.1122770206
H  H102  1  0.80600000  0.03440000  0.31690000  1.0 0.1122770206
H  H103  1  0.53440000  0.69400000  0.81690000  1.0 0.1122770206
H  H104  1  0.46560000  0.30600000  0.81690000  1.0 0.1122770206
H  H105  1  0.91940000  0.37980000  0.11620000  1.0 0.1190956206
H  H106  1  0.12020000  0.41940000  0.61620000  1.0 0.1190956206
H  H107  1  0.08060000  0.62020000  0.11620000  1.0 0.1190956206
H  H108  1  0.87980000  0.58060000  0.61620000  1.0 0.1190956206
H  H109  1  0.41940000  0.12020000  0.38380000  1.0 0.1190956206
H  H110  1  0.58060000  0.87980000  0.38380000  1.0 0.1190956206
H  H111  1  0.37980000  0.91940000  0.88380000  1.0 0.1190956206
H  H112  1  0.62020000  0.08060000  0.88380000  1.0 0.1190956206
H  H113  1  0.78390000  0.23400000  0.15690000  1.0 0.1382656243
H  H114  1  0.26600000  0.28390000  0.65690000  1.0 0.1382656243
H  H115  1  0.21610000  0.76600000  0.15690000  1.0 0.1382656243
H  H116  1  0.73400000  0.71610000  0.65690000  1.0 0.1382656243
H  H117  1  0.28390000  0.26600000  0.34310000  1.0 0.1382656243
H  H118  1  0.71610000  0.73400000  0.34310000  1.0 0.1382656243
H  H119  1  0.23400000  0.78390000  0.84310000  1.0 0.1304850952
H  H120  1  0.76600000  0.21610000  0.84310000  1.0 0.1382656243
H  H121  1  0.81020000  0.44540000  0.10500000  1.0 0.1190956206
H  H122  1  0.05460000  0.31020000  0.60500000  1.0 0.1190956206
H  H123  1  0.18980000  0.55460000  0.10500000  1.0 0.1190956206
H  H124  1  0.94540000  0.68980000  0.60500000  1.0 0.1190956206
H  H125  1  0.31020000  0.05460000  0.39500000  1.0 0.1190956206
H  H126  1  0.68980000  0.94540000  0.39500000  1.0 0.1190956206
H  H127  1  0.44540000  0.81020000  0.89500000  1.0 0.1190956206
H  H128  1  0.55460000  0.18980000  0.89500000  1.0 0.1190956206
H  H129  1  0.75930000  0.32760000  0.19540000  1.0 0.1190956206
H  H130  1  0.17240000  0.25930000  0.69540000  1.0 0.1190956206
H  H131  1  0.24070000  0.67240000  0.19540000  1.0 0.1190956206
H  H132  1  0.82760000  0.74070000  0.69540000  1.0 0.1190956206
H  H133  1  0.25930000  0.17240000  0.30460000  1.0 0.1190956206
H  H134  1  0.74070000  0.82760000  0.30460000  1.0 0.1190956206
H  H135  1  0.32760000  0.75930000  0.80460000  1.0 0.1190956206
H  H136  1  0.67240000  0.24070000  0.80460000  1.0 0.1190956206
H  H137  1  0.81750000  0.49260000  0.39830000  1.0 0.1450205342
H  H138  1  0.00740000  0.31750000  0.89830000  1.0 0.1450205342
H  H139  1  0.18250000  0.50740000  0.39830000  1.0 0.1450205342
H  H140  1  0.99260000  0.68250000  0.89830000  1.0 0.1450205342
H  H141  1  0.31750000  0.00740000  0.10170000  1.0 0.1450205342
H  H142  1  0.68250000  0.99260000  0.10170000  1.0 0.1450205342
H  H143  1  0.49260000  0.81750000  0.60170000  1.0 0.1450205342
H  H144  1  0.50740000  0.18250000  0.60170000  1.0 0.1450205342
H  H145  1  0.93710000  0.50770000  0.39370000  1.0 0.1190956206
H  H146  1  0.99230000  0.43710000  0.89370000  1.0 0.1190956206
H  H147  1  0.06290000  0.49230000  0.39370000  1.0 0.1190956206
H  H148  1  0.00770000  0.56290000  0.89370000  1.0 0.1190956206
H  H149  1  0.43710000  0.99230000  0.10630000  1.0 0.1190956206
H  H150  1  0.56290000  0.00770000  0.10630000  1.0 0.1190956206
H  H151  1  0.50770000  0.93710000  0.60630000  1.0 0.1190956206
H  H152  1  0.49230000  0.06290000  0.60630000  1.0 0.1190956206
H  H153  1  0.84970000  0.42200000  0.50080000  1.0 0.1304850952
H  H154  1  0.07800000  0.34970000  0.00080000  1.0 0.1304850952
H  H155  1  0.15030000  0.57800000  0.50080000  1.0 0.1304850952
H  H156  1  0.92200000  0.65030000  0.00080000  1.0 0.1304850952
H  H157  1  0.34970000  0.07800000  0.99920000  1.0 0.1304850952
H  H158  1  0.65030000  0.92200000  0.99920000  1.0 0.1304850952
H  H159  1  0.42200000  0.84970000  0.49920000  1.0 0.1304850952
H  H160  1  0.57800000  0.15030000  0.49920000  1.0 0.1304850952
H  H161  1  0.96900000  0.43930000  0.49320000  1.0 0.1190956206
H  H162  1  0.06070000  0.46900000  0.99320000  1.0 0.1190956206
H  H163  1  0.03100000  0.56070000  0.49320000  1.0 0.1190956206
H  H164  1  0.93930000  0.53100000  0.99320000  1.0 0.1190956206
H  H165  1  0.46900000  0.06070000  0.00680000  1.0 0.1190956206
H  H166  1  0.53100000  0.93930000  0.00680000  1.0 0.1190956206
H  H167  1  0.43930000  0.96900000  0.50680000  1.0 0.1190956206
H  H168  1  0.56070000  0.03100000  0.50680000  1.0 0.1190956206
C  C1  1  0.61300000  0.43450000  0.34071000  1.0 0.6332778976
C  C2  1  0.06550000  0.11300000  0.84071000  1.0 0.6332778976
C  C3  1  0.38700000  0.56550000  0.34071000  1.0 0.6332778976
C  C4  1  0.93450000  0.88700000  0.84071000  1.0 0.6332778976
C  C5  1  0.11300000  0.06550000  0.15929000  1.0 0.6332778976
C  C6  1  0.88700000  0.93450000  0.15929000  1.0 0.6332778976
C  C7  1  0.43450000  0.61300000  0.65929000  1.0 0.6332778976
C  C8  1  0.56550000  0.38700000  0.65929000  1.0 0.6332778976
C  C9  1  0.76020000  0.62410000  0.13895000  1.0 -0.1588764952
C  C10  1  0.87590000  0.26020000  0.63895000  1.0 -0.1588764952
C  C11  1  0.23980000  0.37590000  0.13895000  1.0 -0.1588764952
C  C12  1  0.12410000  0.73980000  0.63895000  1.0 -0.1588764952
C  C13  1  0.26020000  0.87590000  0.36105000  1.0 -0.1588764952
C  C14  1  0.73980000  0.12410000  0.36105000  1.0 -0.1588764952
C  C15  1  0.62410000  0.76020000  0.86105000  1.0 -0.1588764952
C  C16  1  0.37590000  0.23980000  0.86105000  1.0 -0.1588764952
C  C17  1  0.76780000  0.63100000  0.06437000  1.0 -0.0969831674
C  C18  1  0.86900000  0.26780000  0.56437000  1.0 -0.0969831674
C  C19  1  0.23220000  0.36900000  0.06437000  1.0 -0.0969831674
C  C20  1  0.13100000  0.73220000  0.56437000  1.0 -0.0969831674
C  C21  1  0.26780000  0.86900000  0.43563000  1.0 -0.0969831674
C  C22  1  0.73220000  0.13100000  0.43563000  1.0 -0.0969831674
C  C23  1  0.63100000  0.76780000  0.93563000  1.0 -0.0969831674
C  C24  1  0.36900000  0.23220000  0.93563000  1.0 -0.0969831674
C  C25  1  0.97240000  0.15180000  0.11008000  1.0 0.5329358623
C  C26  1  0.34820000  0.47240000  0.61008000  1.0 0.5329358623
C  C27  1  0.02760000  0.84820000  0.11008000  1.0 0.5329358623
C  C28  1  0.65180000  0.52760000  0.61008000  1.0 0.5329358623
C  C29  1  0.47240000  0.34820000  0.38992000  1.0 0.5329358623
C  C30  1  0.52760000  0.65180000  0.38992000  1.0 0.5329358623
C  C31  1  0.15180000  0.97240000  0.88992000  1.0 0.5329358623
C  C32  1  0.84820000  0.02760000  0.88992000  1.0 0.5329358623
C  C33  1  0.77320000  0.69330000  0.12189000  1.0 -0.0923580779
C  C34  1  0.80670000  0.27320000  0.62189000  1.0 -0.0923580779
C  C35  1  0.22680000  0.30670000  0.12189000  1.0 -0.0923580779
C  C36  1  0.19330000  0.72680000  0.62189000  1.0 -0.0923580779
C  C37  1  0.27320000  0.80670000  0.37811000  1.0 -0.0923580779
C  C38  1  0.72680000  0.19330000  0.37811000  1.0 -0.0923580779
C  C39  1  0.69330000  0.77320000  0.87811000  1.0 -0.0923580779
C  C40  1  0.30670000  0.22680000  0.87811000  1.0 -0.0923580779
C  C41  1  0.75320000  0.56830000  0.08343000  1.0 -0.1588764952
C  C42  1  0.93170000  0.25320000  0.58343000  1.0 -0.1588764952
C  C43  1  0.24680000  0.43170000  0.08343000  1.0 -0.1588764952
C  C44  1  0.06830000  0.74680000  0.58343000  1.0 -0.1588764952
C  C45  1  0.25320000  0.93170000  0.41657000  1.0 -0.1588764952
C  C46  1  0.74680000  0.06830000  0.41657000  1.0 -0.1588764952
C  C47  1  0.56830000  0.75320000  0.91657000  1.0 -0.1588764952
C  C48  1  0.43170000  0.24680000  0.91657000  1.0 -0.1588764952
C  C49  1  0.78190000  0.69080000  0.08439000  1.0 -0.0432836685
C  C50  1  0.80920000  0.28190000  0.58439000  1.0 -0.0432836685
C  C51  1  0.21810000  0.30920000  0.08439000  1.0 -0.0432836685
C  C52  1  0.19080000  0.71810000  0.58439000  1.0 -0.0432836685
C  C53  1  0.28190000  0.80920000  0.41561000  1.0 -0.0432836685
C  C54  1  0.71810000  0.19080000  0.41561000  1.0 -0.0432836685
C  C55  1  0.69080000  0.78190000  0.91561000  1.0 -0.0432836685
C  C56  1  0.30920000  0.21810000  0.91561000  1.0 -0.0432836685
C  C57  1  0.80520000  0.75810000  0.06679000  1.0 0.6332778976
C  C58  1  0.74190000  0.30520000  0.56679000  1.0 0.6332778976
C  C59  1  0.19480000  0.24190000  0.06679000  1.0 0.6332778976
C  C60  1  0.25810000  0.69480000  0.56679000  1.0 0.6332778976
C  C61  1  0.30520000  0.74190000  0.43321000  1.0 0.6332778976
C  C62  1  0.69480000  0.25810000  0.43321000  1.0 0.6332778976
C  C63  1  0.75810000  0.80520000  0.93321000  1.0 0.6332778976
C  C64  1  0.24190000  0.19480000  0.93321000  1.0 0.6332778976
C  C65  1  0.93060000  0.20490000  0.11870000  1.0 -0.140875721
C  C66  1  0.29510000  0.43060000  0.61870000  1.0 -0.140875721
C  C67  1  0.06940000  0.79510000  0.11870000  1.0 -0.140875721
C  C68  1  0.70490000  0.56940000  0.61870000  1.0 -0.140875721
C  C69  1  0.43060000  0.29510000  0.38130000  1.0 -0.140875721
C  C70  1  0.56940000  0.70490000  0.38130000  1.0 -0.140875721
C  C71  1  0.20490000  0.93060000  0.88130000  1.0 -0.140875721
C  C72  1  0.79510000  0.06940000  0.88130000  1.0 -0.140875721
C  C73  1  0.60870000  0.47100000  0.27600000  1.0 -0.1088895485
C  C74  1  0.02900000  0.10870000  0.77600000  1.0 -0.1088895485
C  C75  1  0.39130000  0.52900000  0.27600000  1.0 -0.1088895485
C  C76  1  0.97100000  0.89130000  0.77600000  1.0 -0.1088895485
C  C77  1  0.10870000  0.02900000  0.22400000  1.0 -0.1088895485
C  C78  1  0.89130000  0.97100000  0.22400000  1.0 -0.1088895485
C  C79  1  0.47100000  0.60870000  0.72400000  1.0 -0.1088895485
C  C80  1  0.52900000  0.39130000  0.72400000  1.0 -0.1088895485
C  C81  1  0.75320000  0.56320000  0.12009000  1.0 0.0721306412
C  C82  1  0.93680000  0.25320000  0.62009000  1.0 0.0721306412
C  C83  1  0.24680000  0.43680000  0.12009000  1.0 0.0721306412
C  C84  1  0.06320000  0.74680000  0.62009000  1.0 0.0721306412
C  C85  1  0.25320000  0.93680000  0.37991000  1.0 0.0721306412
C  C86  1  0.74680000  0.06320000  0.37991000  1.0 0.0721306412
C  C87  1  0.56320000  0.75320000  0.87991000  1.0 0.0721306412
C  C88  1  0.43680000  0.24680000  0.87991000  1.0 0.0721306412
C  C89  1  0.68900000  0.43210000  0.23323000  1.0 0.0721306412
C  C90  1  0.06790000  0.18900000  0.73323000  1.0 0.0721306412
C  C91  1  0.31100000  0.56790000  0.23323000  1.0 0.0721306412
C  C92  1  0.93210000  0.81100000  0.73323000  1.0 0.0721306412
C  C93  1  0.18900000  0.06790000  0.26677000  1.0 0.0721306412
C  C94  1  0.81100000  0.93210000  0.26677000  1.0 0.0721306412
C  C95  1  0.43210000  0.68900000  0.76677000  1.0 0.0721306412
C  C96  1  0.56790000  0.31100000  0.76677000  1.0 0.0721306412
C  C97  1  0.86350000  0.20210000  0.13551000  1.0 -0.0684814077
C  C98  1  0.29790000  0.36350000  0.63551000  1.0 -0.0684814077
C  C99  1  0.13650000  0.79790000  0.13551000  1.0 -0.0684814077
C  C100  1  0.70210000  0.63650000  0.63551000  1.0 -0.0684814077
C  C101  1  0.36350000  0.29790000  0.36449000  1.0 -0.0684814077
C  C102  1  0.63650000  0.70210000  0.36449000  1.0 -0.0684814077
C  C103  1  0.20210000  0.86350000  0.86449000  1.0 -0.0684814077
C  C104  1  0.79790000  0.13650000  0.86449000  1.0 -0.0684814077
C  C105  1  0.72570000  0.43410000  0.19538000  1.0 0.1007108417
C  C106  1  0.06590000  0.22570000  0.69538000  1.0 0.1007108417
C  C107  1  0.27430000  0.56590000  0.19538000  1.0 0.1007108417
C  C108  1  0.93410000  0.77430000  0.69538000  1.0 0.1007108417
C  C109  1  0.22570000  0.06590000  0.30462000  1.0 0.1007108417
C  C110  1  0.77430000  0.93410000  0.30462000  1.0 0.1007108417
C  C111  1  0.43410000  0.72570000  0.80462000  1.0 0.1007108417
C  C112  1  0.56590000  0.27430000  0.80462000  1.0 0.1007108417
C  C113  1  0.64130000  0.43090000  0.30306000  1.0 -0.0586487288
C  C114  1  0.06910000  0.14130000  0.80306000  1.0 -0.0586487288
C  C115  1  0.35870000  0.56910000  0.30306000  1.0 -0.0586487288
C  C116  1  0.93090000  0.85870000  0.80306000  1.0 -0.0586487288
C  C117  1  0.14130000  0.06910000  0.19694000  1.0 -0.0586487288
C  C118  1  0.85870000  0.93090000  0.19694000  1.0 -0.0586487288
C  C119  1  0.43090000  0.64130000  0.69694000  1.0 -0.0586487288
C  C120  1  0.56910000  0.35870000  0.69694000  1.0 -0.0586487288
C  C121  1  0.94710000  0.28150000  0.11117000  1.0 -0.0684814077
C  C122  1  0.21850000  0.44710000  0.61117000  1.0 -0.0684814077
C  C123  1  0.05290000  0.71850000  0.11117000  1.0 -0.0684814077
C  C124  1  0.78150000  0.55290000  0.61117000  1.0 -0.0684814077
C  C125  1  0.44710000  0.21850000  0.38883000  1.0 -0.0684814077
C  C126  1  0.55290000  0.78150000  0.38883000  1.0 -0.0684814077
C  C127  1  0.28150000  0.94710000  0.88883000  1.0 -0.0684814077
C  C128  1  0.71850000  0.05290000  0.88883000  1.0 -0.0684814077
C  C129  1  0.69880000  0.38490000  0.29442000  1.0 -0.1088895485
C  C130  1  0.11510000  0.19880000  0.79442000  1.0 -0.1088895485
C  C131  1  0.30120000  0.61510000  0.29442000  1.0 -0.1088895485
C  C132  1  0.88490000  0.80120000  0.79442000  1.0 -0.1088895485
C  C133  1  0.19880000  0.11510000  0.20558000  1.0 -0.1088895485
C  C134  1  0.80120000  0.88490000  0.20558000  1.0 -0.1088895485
C  C135  1  0.38490000  0.69880000  0.70558000  1.0 -0.1088895485
C  C136  1  0.61510000  0.30120000  0.70558000  1.0 -0.1088895485
C  C137  1  0.72250000  0.39280000  0.26120000  1.0 -0.140875721
C  C138  1  0.10720000  0.22250000  0.76120000  1.0 -0.140875721
C  C139  1  0.27750000  0.60720000  0.26120000  1.0 -0.140875721
C  C140  1  0.89280000  0.77750000  0.76120000  1.0 -0.140875721
C  C141  1  0.22250000  0.10720000  0.23880000  1.0 -0.140875721
C  C142  1  0.77750000  0.89280000  0.23880000  1.0 -0.140875721
C  C143  1  0.39280000  0.72250000  0.73880000  1.0 -0.140875721
C  C144  1  0.60720000  0.27750000  0.73880000  1.0 -0.140875721
C  C145  1  0.83750000  0.31900000  0.13577000  1.0 0.0452328277
C  C146  1  0.18100000  0.33750000  0.63577000  1.0 0.0452328277
C  C147  1  0.16250000  0.68100000  0.13577000  1.0 0.0452328277
C  C148  1  0.81900000  0.66250000  0.63577000  1.0 0.0452328277
C  C149  1  0.33750000  0.18100000  0.36423000  1.0 0.0452328277
C  C150  1  0.66250000  0.81900000  0.36423000  1.0 0.0452328277
C  C151  1  0.31900000  0.83750000  0.86423000  1.0 0.0452328277
C  C152  1  0.68100000  0.16250000  0.86423000  1.0 0.0452328277
C  C153  1  0.63120000  0.46890000  0.24065000  1.0 -0.1259033485
C  C154  1  0.03110000  0.13120000  0.74065000  1.0 -0.1259033485
C  C155  1  0.36880000  0.53110000  0.24065000  1.0 -0.1259033485
C  C156  1  0.96890000  0.86880000  0.74065000  1.0 -0.1259033485
C  C157  1  0.13120000  0.03110000  0.25935000  1.0 -0.1259033485
C  C158  1  0.86880000  0.96890000  0.25935000  1.0 -0.1259033485
C  C159  1  0.46890000  0.63120000  0.75935000  1.0 -0.1259033485
C  C160  1  0.53110000  0.36880000  0.75935000  1.0 -0.1259033485
C  C161  1  0.71760000  0.49480000  0.17432000  1.0 -0.2162698499
C  C162  1  0.00520000  0.21760000  0.67432000  1.0 -0.2162698499
C  C163  1  0.28240000  0.50520000  0.17432000  1.0 -0.2162698499
C  C164  1  0.99480000  0.78240000  0.67432000  1.0 -0.2162698499
C  C165  1  0.21760000  0.00520000  0.32568000  1.0 -0.2162698499
C  C166  1  0.78240000  0.99480000  0.32568000  1.0 -0.2162698499
C  C167  1  0.49480000  0.71760000  0.82568000  1.0 -0.2162698499
C  C168  1  0.50520000  0.28240000  0.82568000  1.0 -0.2162698499
C  C169  1  0.90520000  0.33350000  0.12006000  1.0 -0.140875721
C  C170  1  0.16650000  0.40520000  0.62006000  1.0 -0.140875721
C  C171  1  0.09480000  0.66650000  0.12006000  1.0 -0.140875721
C  C172  1  0.83350000  0.59480000  0.62006000  1.0 -0.140875721
C  C173  1  0.40520000  0.16650000  0.37994000  1.0 -0.140875721
C  C174  1  0.59480000  0.83350000  0.37994000  1.0 -0.140875721
C  C175  1  0.33350000  0.90520000  0.87994000  1.0 -0.140875721
C  C176  1  0.66650000  0.09480000  0.87994000  1.0 -0.140875721
C  C177  1  0.79290000  0.37780000  0.14765000  1.0 0.0803288253
C  C178  1  0.12220000  0.29290000  0.64765000  1.0 0.0803288253
C  C179  1  0.20710000  0.62220000  0.14765000  1.0 0.0803288253
C  C180  1  0.87780000  0.70710000  0.64765000  1.0 0.0803288253
C  C181  1  0.29290000  0.12220000  0.35235000  1.0 0.0803288253
C  C182  1  0.70710000  0.87780000  0.35235000  1.0 0.0803288253
C  C183  1  0.37780000  0.79290000  0.85235000  1.0 0.0803288253
C  C184  1  0.62220000  0.20710000  0.85235000  1.0 0.0803288253
C  C185  1  0.82460000  0.24610000  0.14418000  1.0 -0.1088895485
C  C186  1  0.25390000  0.32460000  0.64418000  1.0 -0.1088895485
C  C187  1  0.17540000  0.75390000  0.14418000  1.0 -0.1088895485
C  C188  1  0.74610000  0.67540000  0.64418000  1.0 -0.1088895485
C  C189  1  0.32460000  0.25390000  0.35582000  1.0 -0.1088895485
C  C190  1  0.67540000  0.74610000  0.35582000  1.0 -0.1088895485
C  C191  1  0.24610000  0.82460000  0.85582000  1.0 -0.1088895485
C  C192  1  0.75390000  0.17540000  0.85582000  1.0 -0.1088895485
C  C193  1  0.74670000  0.49300000  0.13938000  1.0 0.0803288253
C  C194  1  0.00700000  0.24670000  0.63938000  1.0 0.0803288253
C  C195  1  0.25330000  0.50700000  0.13938000  1.0 0.0803288253
C  C196  1  0.99300000  0.75330000  0.63938000  1.0 0.0803288253
C  C197  1  0.24670000  0.00700000  0.36062000  1.0 0.0803288253
C  C198  1  0.75330000  0.99300000  0.36062000  1.0 0.0803288253
C  C199  1  0.49300000  0.74670000  0.86062000  1.0 0.0803288253
C  C200  1  0.50700000  0.25330000  0.86062000  1.0 0.0803288253
C  C201  1  0.78640000  0.44070000  0.12716000  1.0 -0.1887261375
C  C202  1  0.05930000  0.28640000  0.62716000  1.0 -0.1887261375
C  C203  1  0.21360000  0.55930000  0.12716000  1.0 -0.1887261375
C  C204  1  0.94070000  0.71360000  0.62716000  1.0 -0.1887261375
C  C205  1  0.28640000  0.05930000  0.37284000  1.0 -0.1887261375
C  C206  1  0.71360000  0.94070000  0.37284000  1.0 -0.1887261375
C  C207  1  0.44070000  0.78640000  0.87284000  1.0 -0.1887261375
C  C208  1  0.55930000  0.21360000  0.87284000  1.0 -0.1887261375
C  C209  1  0.75950000  0.36970000  0.18238000  1.0 -0.2482468068
C  C210  1  0.13030000  0.25950000  0.68238000  1.0 -0.2482468068
C  C211  1  0.24050000  0.63030000  0.18238000  1.0 -0.2482468068
C  C212  1  0.86970000  0.74050000  0.68238000  1.0 -0.2482468068
C  C213  1  0.25950000  0.13030000  0.31762000  1.0 -0.2482468068
C  C214  1  0.74050000  0.86970000  0.31762000  1.0 -0.2482468068
C  C215  1  0.36970000  0.75950000  0.81762000  1.0 -0.2482468068
C  C216  1  0.63030000  0.24050000  0.81762000  1.0 -0.2482468068
C  C217  1  0.74780000  0.42860000  0.45328000  1.0 0.6332778976
C  C218  1  0.07140000  0.24780000  0.95328000  1.0 0.6332778976
C  C219  1  0.25220000  0.57140000  0.45328000  1.0 0.6332778976
C  C220  1  0.92860000  0.75220000  0.95328000  1.0 0.6332778976
C  C221  1  0.24780000  0.07140000  0.04672000  1.0 0.6332778976
C  C222  1  0.75220000  0.92860000  0.04672000  1.0 0.6332778976
C  C223  1  0.42860000  0.74780000  0.54672000  1.0 0.6332778976
C  C224  1  0.57140000  0.25220000  0.54672000  1.0 0.6332778976
C  C225  1  0.84720000  0.48130000  0.41767000  1.0 -0.0923580779
C  C226  1  0.01870000  0.34720000  0.91767000  1.0 -0.0923580779
C  C227  1  0.15280000  0.51870000  0.41767000  1.0 -0.0923580779
C  C228  1  0.98130000  0.65280000  0.91767000  1.0 -0.0923580779
C  C229  1  0.34720000  0.01870000  0.08233000  1.0 -0.0923580779
C  C230  1  0.65280000  0.98130000  0.08233000  1.0 -0.0923580779
C  C231  1  0.48130000  0.84720000  0.58233000  1.0 -0.0923580779
C  C232  1  0.51870000  0.15280000  0.58233000  1.0 -0.0923580779
C  C233  1  0.82210000  0.45070000  0.44794000  1.0 -0.0586487288
C  C234  1  0.04930000  0.32210000  0.94794000  1.0 -0.0586487288
C  C235  1  0.17790000  0.54930000  0.44794000  1.0 -0.0586487288
C  C236  1  0.95070000  0.67790000  0.94794000  1.0 -0.0586487288
C  C237  1  0.32210000  0.04930000  0.05206000  1.0 -0.0586487288
C  C238  1  0.67790000  0.95070000  0.05206000  1.0 -0.0586487288
C  C239  1  0.45070000  0.82210000  0.55206000  1.0 -0.0586487288
C  C240  1  0.54930000  0.17790000  0.55206000  1.0 -0.0586487288
C  C241  1  0.91680000  0.49540000  0.41600000  1.0 -0.1545894335
C  C242  1  0.00460000  0.41680000  0.91600000  1.0 -0.1545894335
C  C243  1  0.08320000  0.50460000  0.41600000  1.0 -0.1545894335
C  C244  1  0.99540000  0.58320000  0.91600000  1.0 -0.1545894335
C  C245  1  0.41680000  0.00460000  0.08400000  1.0 -0.1588764952
C  C246  1  0.58320000  0.99540000  0.08400000  1.0 -0.1545894335
C  C247  1  0.49540000  0.91680000  0.58400000  1.0 -0.1545894335
C  C248  1  0.50460000  0.08320000  0.58400000  1.0 -0.1545894335
C  C249  1  0.86770000  0.43940000  0.47890000  1.0 -0.0969831674
C  C250  1  0.06060000  0.36770000  0.97890000  1.0 -0.0969831674
C  C251  1  0.13230000  0.56060000  0.47890000  1.0 -0.0969831674
C  C252  1  0.93940000  0.63230000  0.97890000  1.0 -0.0969831674
C  C253  1  0.36770000  0.06060000  0.02110000  1.0 -0.0969831674
C  C254  1  0.63230000  0.93940000  0.02110000  1.0 -0.0969831674
C  C255  1  0.43940000  0.86770000  0.52110000  1.0 -0.0969831674
C  C256  1  0.56060000  0.13230000  0.52110000  1.0 -0.0969831674
C  C257  1  0.95750000  0.49200000  0.44635000  1.0 0.0721306412
C  C258  1  0.00800000  0.45750000  0.94635000  1.0 0.0721306412
C  C259  1  0.04250000  0.50800000  0.44635000  1.0 0.0721306412
C  C260  1  0.99200000  0.54250000  0.94635000  1.0 0.0721306412
C  C261  1  0.45750000  0.00800000  0.05365000  1.0 0.0721306412
C  C262  1  0.54250000  0.99200000  0.05365000  1.0 0.0721306412
C  C263  1  0.49200000  0.95750000  0.55365000  1.0 0.0721306412
C  C264  1  0.50800000  0.04250000  0.55365000  1.0 0.0721306412
C  C265  1  0.93670000  0.45440000  0.47570000  1.0 -0.140875721
C  C266  1  0.04560000  0.43670000  0.97570000  1.0 -0.140875721
C  C267  1  0.06330000  0.54560000  0.47570000  1.0 -0.140875721
C  C268  1  0.95440000  0.56330000  0.97570000  1.0 -0.140875721
C  C269  1  0.43670000  0.04560000  0.02430000  1.0 -0.140875721
C  C270  1  0.56330000  0.95440000  0.02430000  1.0 -0.140875721
C  C271  1  0.45440000  0.93670000  0.52430000  1.0 -0.140875721
C  C272  1  0.54560000  0.06330000  0.52430000  1.0 -0.140875721
O  O1  1  0.56830000  0.47070000  0.41763000  1.0 -0.9949305012
O  O2  1  0.02930000  0.06830000  0.91763000  1.0 -0.9949305012
O  O3  1  0.43170000  0.52930000  0.41763000  1.0 -0.9949305012
O  O4  1  0.97070000  0.93170000  0.91763000  1.0 -1.0016792252
O  O5  1  0.06830000  0.02930000  0.08237000  1.0 -1.0016792252
O  O6  1  0.93170000  0.97070000  0.08237000  1.0 -0.9949305012
O  O7  1  0.47070000  0.56830000  0.58237000  1.0 -0.9949305012
O  O8  1  0.52930000  0.43170000  0.58237000  1.0 -0.9949305012
O  O9  1  0.63910000  0.39610000  0.36623000  1.0 -0.5641758992
O  O10  1  0.10390000  0.13910000  0.86623000  1.0 -0.5641758992
O  O11  1  0.36090000  0.60390000  0.36623000  1.0 -0.5641758992
O  O12  1  0.89610000  0.86090000  0.86623000  1.0 -0.5641758992
O  O13  1  0.13910000  0.10390000  0.13377000  1.0 -0.5641758992
O  O14  1  0.86090000  0.89610000  0.13377000  1.0 -0.5641758992
O  O15  1  0.39610000  0.63910000  0.63377000  1.0 -0.5641758992
O  O16  1  0.60390000  0.36090000  0.63377000  1.0 -0.5641758992
O  O17  1  0.60130000  0.36450000  0.46488000  1.0 -1.0016792252
O  O18  1  0.13550000  0.10130000  0.96488000  1.0 -1.0016792252
O  O19  1  0.39870000  0.63550000  0.46488000  1.0 -1.0016792252
O  O20  1  0.86450000  0.89870000  0.96488000  1.0 -1.0016792252
O  O21  1  0.10130000  0.13550000  0.03512000  1.0 -1.0016792252
O  O22  1  0.89870000  0.86450000  0.03512000  1.0 -1.0016792252
O  O23  1  0.36450000  0.60130000  0.53512000  1.0 -1.0016792252
O  O24  1  0.63550000  0.39870000  0.53512000  1.0 -1.0016792252
O  O25  1  0.55630000  0.47020000  0.34610000  1.0 -0.5865031808
O  O26  1  0.02980000  0.05630000  0.84610000  1.0 -0.5865031808
O  O27  1  0.44370000  0.52980000  0.34610000  1.0 -0.5865031808
O  O28  1  0.97020000  0.94370000  0.84610000  1.0 -0.5865031808
O  O29  1  0.05630000  0.02980000  0.15390000  1.0 -0.5865031808
O  O30  1  0.94370000  0.97020000  0.15390000  1.0 -0.5865031808
O  O31  1  0.47020000  0.55630000  0.65390000  1.0 -0.5865031808
O  O32  1  0.52980000  0.44370000  0.65390000  1.0 -0.5865031808
O  O33  1  0.82550000  0.80480000  0.08854000  1.0 -0.5465846761
O  O34  1  0.69520000  0.32550000  0.58854000  1.0 -0.5465846761
O  O35  1  0.17450000  0.19520000  0.08854000  1.0 -0.5465846761
O  O36  1  0.30480000  0.67450000  0.58854000  1.0 -0.5465846761
O  O37  1  0.32550000  0.69520000  0.41146000  1.0 -0.5465846761
O  O38  1  0.67450000  0.30480000  0.41146000  1.0 -0.5465846761
O  O39  1  0.80480000  0.82550000  0.91146000  1.0 -0.5465846761
O  O40  1  0.19520000  0.17450000  0.91146000  1.0 -0.5465846761
O  O41  1  0.73430000  0.39530000  0.48191000  1.0 -0.5741359546
O  O42  1  0.10470000  0.23430000  0.98191000  1.0 -0.5741359546
O  O43  1  0.26570000  0.60470000  0.48191000  1.0 -0.5741359546
O  O44  1  0.89530000  0.76570000  0.98191000  1.0 -0.5741359546
O  O45  1  0.23430000  0.10470000  0.01809000  1.0 -0.5741359546
O  O46  1  0.76570000  0.89530000  0.01809000  1.0 -0.5741359546
O  O47  1  0.39530000  0.73430000  0.51809000  1.0 -0.5741359546
O  O48  1  0.60470000  0.26570000  0.51809000  1.0 -0.5741359546
O  O49  1  0.04220000  0.16640000  0.09808000  1.0 -0.668359588
O  O50  1  0.33360000  0.54220000  0.59808000  1.0 -0.668359588
O  O51  1  0.95780000  0.83360000  0.09808000  1.0 -0.668359588
O  O52  1  0.66640000  0.45780000  0.59808000  1.0 -0.668359588
O  O53  1  0.54220000  0.33360000  0.40192000  1.0 -0.668359588
O  O54  1  0.45780000  0.66640000  0.40192000  1.0 -0.668359588
O  O55  1  0.16640000  0.04220000  0.90192000  1.0 -0.668359588
O  O56  1  0.83360000  0.95780000  0.90192000  1.0 -0.668359588
O  O57  1  0.95930000  0.08910000  0.11635000  1.0 -0.5342324479
O  O58  1  0.41090000  0.45930000  0.61635000  1.0 -0.5342324479
O  O59  1  0.04070000  0.91090000  0.11635000  1.0 -0.5342324479
O  O60  1  0.58910000  0.54070000  0.61635000  1.0 -0.5342324479
O  O61  1  0.45930000  0.41090000  0.38365000  1.0 -0.5342324479
O  O62  1  0.54070000  0.58910000  0.38365000  1.0 -0.5342324479
O  O63  1  0.08910000  0.95930000  0.88365000  1.0 -0.5342324479
O  O64  1  0.91090000  0.04070000  0.88365000  1.0 -0.5342324479
O  O65  1  0.70490000  0.43390000  0.42537000  1.0 -0.6110349848
O  O66  1  0.06610000  0.20490000  0.92537000  1.0 -0.6110349848
O  O67  1  0.29510000  0.56610000  0.42537000  1.0 -0.6110349848
O  O68  1  0.93390000  0.79510000  0.92537000  1.0 -0.6110349848
O  O69  1  0.20490000  0.06610000  0.07463000  1.0 -0.6110349848
O  O70  1  0.79510000  0.93390000  0.07463000  1.0 -0.6110349848
O  O71  1  0.43390000  0.70490000  0.57463000  1.0 -0.6110349848
O  O72  1  0.56610000  0.29510000  0.57463000  1.0 -0.6110349848
O  O73  1  0.80380000  0.76250000  0.03187000  1.0 -0.576285
O  O74  1  0.73750000  0.30380000  0.53187000  1.0 -0.576285
O  O75  1  0.19620000  0.23750000  0.03187000  1.0 -0.576285
O  O76  1  0.26250000  0.69620000  0.53187000  1.0 -0.576285
O  O77  1  0.30380000  0.73750000  0.46813000  1.0 -0.576285
O  O78  1  0.69620000  0.26250000  0.46813000  1.0 -0.576285
O  O79  1  0.76250000  0.80380000  0.96813000  1.0 -0.576285
O  O80  1  0.23750000  0.19620000  0.96813000  1.0 -0.576285
