# DDEC6 charges by PACMAN v1.1 (https://github.com/mtap-research/PACMAN-charge/)
data_2016[Ga][nan]3[FSR]1
_chemical_formula_sum              "Ga8 H32 C64 O40"
_cell_length_a       15.1675
_cell_length_b       15.1675
_cell_length_c       11.9197
_cell_angle_alpha    90
_cell_angle_beta     90
_cell_angle_gamma    90

_symmetry_space_group_name_H-M    "P 1"
_symmetry_Int_Tables_number       1

loop_
  _symmetry_equiv_pos_as_xyz
  'x, y, z'

loop_
  _atom_site_type_symbol
  _atom_site_label
  _atom_site_symmetry_multiplicity
  _atom_site_fract_x
  _atom_site_fract_y
  _atom_site_fract_z
  _atom_site_occupancy
  _atom_site_charge
Ga  Ga1       1.0  0.19430  0.19430  0.00000  1.0000 1.4390103426
Ga  Ga2       1.0  0.30570  0.30570  0.50000  1.0000 1.4390103426
Ga  Ga3       1.0  0.80570  0.69430  0.25000  1.0000 1.4390103426
Ga  Ga4       1.0  0.69430  0.80570  0.75000  1.0000 1.4390103426
Ga  Ga5       1.0  0.30570  0.19430  0.75000  1.0000 1.4390103426
Ga  Ga6       1.0  0.19430  0.30570  0.25000  1.0000 1.4390103426
Ga  Ga7       1.0  0.69430  0.69430  0.50000  1.0000 1.4390103426
Ga  Ga8       1.0  0.80570  0.80570  0.00000  1.0000 1.4390103426
H   H1        1.0  0.30830  0.25000  0.12500  1.0000 0.4067823123
H   H2        1.0  0.19170  0.25000  0.62500  1.0000 0.4067823123
H   H3        1.0  0.75000  0.80830  0.37500  1.0000 0.4067823123
H   H4        1.0  0.75000  0.69170  0.87500  1.0000 0.4067823123
H   H5        1.0  0.80830  0.75000  0.62500  1.0000 0.4067823123
H   H6        1.0  0.69170  0.75000  0.12500  1.0000 0.4067823123
H   H7        1.0  0.25000  0.30830  0.87500  1.0000 0.4067823123
H   H8        1.0  0.25000  0.19170  0.37500  1.0000 0.4067823123
H   H9        1.0  0.00000  0.50000  0.12600  1.0000 0.1399430688
H   H10       1.0  0.50000  0.00000  0.62600  1.0000 0.1399430688
H   H11       1.0  0.50000  0.50000  0.37600  1.0000 0.1399430688
H   H12       1.0  0.00000  0.00000  0.87600  1.0000 0.1399430688
H   H13       1.0  0.50000  0.50000  0.62400  1.0000 0.1399430688
H   H14       1.0  0.00000  0.00000  0.12400  1.0000 0.1399430688
H   H15       1.0  0.00000  0.50000  0.37400  1.0000 0.1399430688
H   H16       1.0  0.50000  0.00000  0.87400  1.0000 0.1399430688
H   H17       1.0  0.06420  0.38440  0.83220  1.0000 0.1206501257
H   H18       1.0  0.43580  0.11560  0.33220  1.0000 0.1206501257
H   H19       1.0  0.61560  0.56420  0.08220  1.0000 0.1206501257
H   H20       1.0  0.88440  0.93580  0.58220  1.0000 0.1206501257
H   H21       1.0  0.43580  0.38440  0.91780  1.0000 0.1206501257
H   H22       1.0  0.06420  0.11560  0.41780  1.0000 0.1206501257
H   H23       1.0  0.88440  0.56420  0.66780  1.0000 0.1206501257
H   H24       1.0  0.61560  0.93580  0.16780  1.0000 0.1206501257
H   H25       1.0  0.56420  0.88440  0.33220  1.0000 0.1206501257
H   H26       1.0  0.93580  0.61560  0.83220  1.0000 0.1206501257
H   H27       1.0  0.11560  0.06420  0.58220  1.0000 0.1206501257
H   H28       1.0  0.38440  0.43580  0.08220  1.0000 0.1206501257
H   H29       1.0  0.93580  0.88440  0.41780  1.0000 0.1206501257
H   H30       1.0  0.56420  0.61560  0.91780  1.0000 0.1206501257
H   H31       1.0  0.38440  0.06420  0.16780  1.0000 0.1206501257
H   H32       1.0  0.11560  0.43580  0.66780  1.0000 0.1206501257
C   C1        1.0  0.00000  0.50000  0.04800  1.0000 -0.1112778876
C   C2        1.0  0.50000  0.00000  0.54800  1.0000 -0.1112778876
C   C3        1.0  0.50000  0.50000  0.29800  1.0000 -0.1112778876
C   C4        1.0  0.00000  0.00000  0.79800  1.0000 -0.1112778876
C   C5        1.0  0.50000  0.50000  0.70200  1.0000 -0.1112778876
C   C6        1.0  0.00000  0.00000  0.20200  1.0000 -0.1112778876
C   C7        1.0  0.00000  0.50000  0.45200  1.0000 -0.1112778876
C   C8        1.0  0.50000  0.00000  0.95200  1.0000 -0.1112778876
C   C9        1.0  0.09210  0.36000  0.04880  1.0000 0.6138056535
C   C10       1.0  0.40790  0.14000  0.54880  1.0000 0.6138056535
C   C11       1.0  0.64000  0.59210  0.29880  1.0000 0.6138056535
C   C12       1.0  0.86000  0.90790  0.79880  1.0000 0.6138056535
C   C13       1.0  0.40790  0.36000  0.70120  1.0000 0.6138056535
C   C14       1.0  0.09210  0.14000  0.20120  1.0000 0.6138056535
C   C15       1.0  0.86000  0.59210  0.45120  1.0000 0.6138056535
C   C16       1.0  0.64000  0.90790  0.95120  1.0000 0.6138056535
C   C17       1.0  0.59210  0.86000  0.54880  1.0000 0.6138056535
C   C18       1.0  0.90790  0.64000  0.04880  1.0000 0.6138056535
C   C19       1.0  0.14000  0.09210  0.79880  1.0000 0.6138056535
C   C20       1.0  0.36000  0.40790  0.29880  1.0000 0.6138056535
C   C21       1.0  0.90790  0.86000  0.20120  1.0000 0.6138056535
C   C22       1.0  0.59210  0.64000  0.70120  1.0000 0.6138056535
C   C23       1.0  0.36000  0.09210  0.95120  1.0000 0.6138056535
C   C24       1.0  0.14000  0.40790  0.45120  1.0000 0.6138056535
C   C25       1.0  0.04080  0.43100  0.99010  1.0000 -0.0231816368
C   C26       1.0  0.45920  0.06900  0.49010  1.0000 -0.0231816368
C   C27       1.0  0.56900  0.54080  0.24010  1.0000 -0.0231816368
C   C28       1.0  0.93100  0.95920  0.74010  1.0000 -0.0231816368
C   C29       1.0  0.45920  0.43100  0.75990  1.0000 -0.0231816368
C   C30       1.0  0.04080  0.06900  0.25990  1.0000 -0.0231816368
C   C31       1.0  0.93100  0.54080  0.50990  1.0000 -0.0231816368
C   C32       1.0  0.56900  0.95920  0.00990  1.0000 -0.0231816368
C   C33       1.0  0.54080  0.93100  0.49010  1.0000 -0.0231816368
C   C34       1.0  0.95920  0.56900  0.99010  1.0000 -0.0231816368
C   C35       1.0  0.06900  0.04080  0.74010  1.0000 -0.0231816368
C   C36       1.0  0.43100  0.45920  0.24010  1.0000 -0.0231816368
C   C37       1.0  0.95920  0.93100  0.25990  1.0000 -0.0231816368
C   C38       1.0  0.54080  0.56900  0.75990  1.0000 -0.0231816368
C   C39       1.0  0.43100  0.04080  0.00990  1.0000 -0.0231816368
C   C40       1.0  0.06900  0.45920  0.50990  1.0000 -0.0231816368
C   C41       1.0  0.00000  0.50000  0.81320  1.0000 0.0717113726
C   C42       1.0  0.50000  0.00000  0.31320  1.0000 0.0717113726
C   C43       1.0  0.50000  0.50000  0.06320  1.0000 0.0717113726
C   C44       1.0  0.00000  0.00000  0.56320  1.0000 0.0717113726
C   C45       1.0  0.50000  0.50000  0.93680  1.0000 0.0717113726
C   C46       1.0  0.00000  0.00000  0.43680  1.0000 0.0717113726
C   C47       1.0  0.00000  0.50000  0.68680  1.0000 0.0717113726
C   C48       1.0  0.50000  0.00000  0.18680  1.0000 0.0717113726
C   C49       1.0  0.03900  0.43100  0.87150  1.0000 -0.1506851092
C   C50       1.0  0.46100  0.06900  0.37150  1.0000 -0.1506851092
C   C51       1.0  0.56900  0.53900  0.12150  1.0000 -0.1506851092
C   C52       1.0  0.93100  0.96100  0.62150  1.0000 -0.1506851092
C   C53       1.0  0.46100  0.43100  0.87850  1.0000 -0.1506851092
C   C54       1.0  0.03900  0.06900  0.37850  1.0000 -0.1506851092
C   C55       1.0  0.93100  0.53900  0.62850  1.0000 -0.1506851092
C   C56       1.0  0.56900  0.96100  0.12850  1.0000 -0.1506851092
C   C57       1.0  0.53900  0.93100  0.37150  1.0000 -0.1506851092
C   C58       1.0  0.96100  0.56900  0.87150  1.0000 -0.1506851092
C   C59       1.0  0.06900  0.03900  0.62150  1.0000 -0.1506851092
C   C60       1.0  0.43100  0.46100  0.12150  1.0000 -0.1506851092
C   C61       1.0  0.96100  0.93100  0.37850  1.0000 -0.1506851092
C   C62       1.0  0.53900  0.56900  0.87850  1.0000 -0.1506851092
C   C63       1.0  0.43100  0.03900  0.12850  1.0000 -0.1506851092
C   C64       1.0  0.06900  0.46100  0.62850  1.0000 -0.1506851092
O   O1        1.0  0.09990  0.28670  0.99850  1.0000 -0.5680697951
O   O2        1.0  0.40010  0.21330  0.49850  1.0000 -0.5680697951
O   O3        1.0  0.71330  0.59990  0.24850  1.0000 -0.5680697951
O   O4        1.0  0.78670  0.90010  0.74850  1.0000 -0.5680697951
O   O5        1.0  0.40010  0.28670  0.75150  1.0000 -0.5680697951
O   O6        1.0  0.09990  0.21330  0.25150  1.0000 -0.5680697951
O   O7        1.0  0.78670  0.59990  0.50150  1.0000 -0.5680697951
O   O8        1.0  0.71330  0.90010  0.00150  1.0000 -0.5680697951
O   O9        1.0  0.59990  0.78670  0.49850  1.0000 -0.5680697951
O   O10       1.0  0.90010  0.71330  0.99850  1.0000 -0.5680697951
O   O11       1.0  0.21330  0.09990  0.74850  1.0000 -0.5680697951
O   O12       1.0  0.28670  0.40010  0.24850  1.0000 -0.5680697951
O   O13       1.0  0.90010  0.78670  0.25150  1.0000 -0.5680697951
O   O14       1.0  0.59990  0.71330  0.75150  1.0000 -0.5680697951
O   O15       1.0  0.28670  0.09990  0.00150  1.0000 -0.5680697951
O   O16       1.0  0.21330  0.40010  0.50150  1.0000 -0.5680697951
O   O17       1.0  0.25270  0.25000  0.12500  1.0000 -0.8667693231
O   O18       1.0  0.24730  0.25000  0.62500  1.0000 -0.8667693231
O   O19       1.0  0.75000  0.75270  0.37500  1.0000 -0.8667693231
O   O20       1.0  0.75000  0.74730  0.87500  1.0000 -0.8667693231
O   O21       1.0  0.75270  0.75000  0.62500  1.0000 -0.8667693231
O   O22       1.0  0.74730  0.75000  0.12500  1.0000 -0.8667693231
O   O23       1.0  0.25000  0.25270  0.87500  1.0000 -0.8667693231
O   O24       1.0  0.25000  0.24730  0.37500  1.0000 -0.8667693231
O   O25       1.0  0.12520  0.11990  0.10680  1.0000 -0.5322191809
O   O26       1.0  0.37480  0.38010  0.60680  1.0000 -0.5322191809
O   O27       1.0  0.88010  0.62520  0.35680  1.0000 -0.5322191809
O   O28       1.0  0.61990  0.87480  0.85680  1.0000 -0.5322191809
O   O29       1.0  0.37480  0.11990  0.64320  1.0000 -0.5322191809
O   O30       1.0  0.12520  0.38010  0.14320  1.0000 -0.5322191809
O   O31       1.0  0.61990  0.62520  0.39320  1.0000 -0.5322191809
O   O32       1.0  0.88010  0.87480  0.89320  1.0000 -0.5322191809
O   O33       1.0  0.62520  0.61990  0.60680  1.0000 -0.5322191809
O   O34       1.0  0.87480  0.88010  0.10680  1.0000 -0.5322191809
O   O35       1.0  0.38010  0.12520  0.85680  1.0000 -0.5322191809
O   O36       1.0  0.11990  0.37480  0.35680  1.0000 -0.5322191809
O   O37       1.0  0.87480  0.61990  0.14320  1.0000 -0.5322191809
O   O38       1.0  0.62520  0.88010  0.64320  1.0000 -0.5322191809
O   O39       1.0  0.11990  0.12520  0.89320  1.0000 -0.5322191809
O   O40       1.0  0.38010  0.37480  0.39320  1.0000 -0.5322191809
