# DDEC6 charges by PACMAN v1.1 (https://github.com/mtap-research/PACMAN-charge/)
data_d3dt00422h2_2_ASR_pacman
_symmetry_space_group_name_H-M   'P 1'
_cell_length_a   32.00500000
_cell_length_b   16.56300000
_cell_length_c   28.85010000
_cell_angle_alpha   90.00000000
_cell_angle_beta   90.00000000
_cell_angle_gamma   90.00000000
_symmetry_Int_Tables_number   1
_chemical_formula_structural   Ca5H39C83O20F9
_chemical_formula_sum   'Ca20 H156 C332 O80 F36'
_cell_volume   15293.40382263
_cell_formula_units_Z   4
loop_
 _symmetry_equiv_pos_site_id
 _symmetry_equiv_pos_as_xyz
  1  'x, y, z'
loop_
 _atom_site_type_symbol
 _atom_site_label
 _atom_site_symmetry_multiplicity
 _atom_site_fract_x
 _atom_site_fract_y
 _atom_site_fract_z
 _atom_site_occupancy
 _atom_site_charge
Ca  Ca1  1  0.25000000  0.09415000  0.42559000  1.0 1.4065543775
Ca  Ca2  1  0.75000000  0.90585000  0.42559000  1.0 1.4065543775
Ca  Ca3  1  0.75000000  0.59415000  0.92559000  1.0 1.4065543775
Ca  Ca4  1  0.25000000  0.40585000  0.92559000  1.0 1.4065543775
Ca  Ca5  1  0.35220000  0.09977000  0.48920000  1.0 1.3770394985
Ca  Ca6  1  0.64780000  0.90023000  0.48920000  1.0 1.3770394985
Ca  Ca7  1  0.85220000  0.90023000  0.48920000  1.0 1.3770394985
Ca  Ca8  1  0.14780000  0.09977000  0.48920000  1.0 1.3770394985
Ca  Ca9  1  0.85220000  0.59977000  0.98920000  1.0 1.3770394985
Ca  Ca10  1  0.14780000  0.40023000  0.98920000  1.0 1.3770394985
Ca  Ca11  1  0.35220000  0.40023000  0.98920000  1.0 1.3770394985
Ca  Ca12  1  0.64780000  0.59977000  0.98920000  1.0 1.3770394985
Ca  Ca13  1  0.44234000  0.53225000  0.95704000  1.0 1.3684142594
Ca  Ca14  1  0.55766000  0.46775000  0.95704000  1.0 1.3684142594
Ca  Ca15  1  0.94234000  0.46775000  0.95704000  1.0 1.3684142594
Ca  Ca16  1  0.05766000  0.53225000  0.95704000  1.0 1.3684142594
Ca  Ca17  1  0.94234000  0.03225000  0.45704000  1.0 1.3684142594
Ca  Ca18  1  0.05766000  0.96775000  0.45704000  1.0 1.3684142594
Ca  Ca19  1  0.44234000  0.96775000  0.45704000  1.0 1.3684142594
Ca  Ca20  1  0.55766000  0.03225000  0.45704000  1.0 1.3684142594
H  H1  1  0.41855000  0.26545000  0.49229000  1.0 0.1116654013
H  H2  1  0.58145000  0.73455000  0.49229000  1.0 0.1116654013
H  H3  1  0.91855000  0.73455000  0.49229000  1.0 0.1116654013
H  H4  1  0.08145000  0.26545000  0.49229000  1.0 0.1116654013
H  H5  1  0.91855000  0.76546000  0.99229000  1.0 0.1116654013
H  H6  1  0.08145000  0.23455000  0.99229000  1.0 0.1116654013
H  H7  1  0.41855000  0.23455000  0.99229000  1.0 0.1116654013
H  H8  1  0.58145000  0.76546000  0.99229000  1.0 0.1116654013
H  H9  1  0.52640000  0.17461000  0.54072000  1.0 0.1185102415
H  H10  1  0.47360000  0.82539000  0.54072000  1.0 0.1185102415
H  H11  1  0.02640000  0.82539000  0.54072000  1.0 0.1185102415
H  H12  1  0.97360000  0.17461000  0.54072000  1.0 0.1185102415
H  H13  1  0.02640000  0.67461000  0.04072000  1.0 0.1185102415
H  H14  1  0.97360000  0.32539000  0.04072000  1.0 0.1185102415
H  H15  1  0.52640000  0.32539000  0.04072000  1.0 0.1185102415
H  H16  1  0.47360000  0.67461000  0.04072000  1.0 0.1185102415
H  H17  1  0.53756000  0.29144000  0.58205000  1.0 0.1185102415
H  H18  1  0.46244000  0.70856000  0.58205000  1.0 0.1185102415
H  H19  1  0.03756000  0.70856000  0.58205000  1.0 0.1185102415
H  H20  1  0.96244000  0.29144000  0.58205000  1.0 0.1185102415
H  H21  1  0.03756000  0.79144000  0.08205000  1.0 0.1185102415
H  H22  1  0.96244000  0.20856000  0.08205000  1.0 0.1185102415
H  H23  1  0.53756000  0.20856000  0.08205000  1.0 0.1185102415
H  H24  1  0.46244000  0.79144000  0.08205000  1.0 0.1185102415
H  H25  1  0.43181000  0.38580000  0.53011000  1.0 0.1116654013
H  H26  1  0.56819000  0.61420000  0.53011000  1.0 0.1116654013
H  H27  1  0.93181000  0.61420000  0.53011000  1.0 0.1116654013
H  H28  1  0.06819000  0.38580000  0.53011000  1.0 0.1116654013
H  H29  1  0.93181000  0.88580000  0.03011000  1.0 0.1116654013
H  H30  1  0.06819000  0.11420000  0.03011000  1.0 0.1116654013
H  H31  1  0.43181000  0.11420000  0.03011000  1.0 0.1116654013
H  H32  1  0.56819000  0.88580000  0.03011000  1.0 0.1116654013
H  H65  1  0.29032000  0.73818000  0.37039000  1.0 0.1116654013
H  H66  1  0.70968000  0.26182000  0.37039000  1.0 0.1116654013
H  H67  1  0.79032000  0.26182000  0.37039000  1.0 0.1116654013
H  H68  1  0.20968000  0.73818000  0.37039000  1.0 0.1116654013
H  H69  1  0.79032000  0.23818000  0.87039000  1.0 0.1116654013
H  H70  1  0.20968000  0.76182000  0.87039000  1.0 0.1116654013
H  H71  1  0.29032000  0.76182000  0.87039000  1.0 0.1116654013
H  H72  1  0.70968000  0.23818000  0.87039000  1.0 0.1116654013
H  H73  1  0.28571000  0.86018000  0.40743000  1.0 0.1116654013
H  H74  1  0.71428000  0.13982000  0.40743000  1.0 0.1116654013
H  H75  1  0.78571000  0.13982000  0.40743000  1.0 0.1116654013
H  H76  1  0.21428000  0.86018000  0.40743000  1.0 0.1116654013
H  H77  1  0.78571000  0.36018000  0.90743000  1.0 0.1116654013
H  H78  1  0.21428000  0.63982000  0.90743000  1.0 0.1116654013
H  H79  1  0.28571000  0.63982000  0.90743000  1.0 0.1116654013
H  H80  1  0.71428000  0.36018000  0.90743000  1.0 0.1116654013
H  H81  1  0.39704000  0.92382000  0.35585000  1.0 0.0998832844
H  H82  1  0.60296000  0.07618000  0.35585000  1.0 0.0998832844
H  H83  1  0.89704000  0.07618000  0.35585000  1.0 0.0998832844
H  H84  1  0.10296000  0.92382000  0.35585000  1.0 0.0998832844
H  H85  1  0.89704000  0.42382000  0.85585000  1.0 0.0998832844
H  H86  1  0.10296000  0.57618000  0.85585000  1.0 0.0998832844
H  H87  1  0.39704000  0.57618000  0.85585000  1.0 0.0998832844
H  H88  1  0.60296000  0.42382000  0.85585000  1.0 0.0998832844
H  H89  1  0.39968000  0.80534000  0.31415000  1.0 0.1116654013
H  H90  1  0.60032000  0.19466000  0.31415000  1.0 0.1116654013
H  H91  1  0.89968000  0.19466000  0.31415000  1.0 0.1116654013
H  H92  1  0.10032000  0.80534000  0.31415000  1.0 0.1116654013
H  H93  1  0.89968000  0.30534000  0.81415000  1.0 0.1116654013
H  H94  1  0.10032000  0.69466000  0.81415000  1.0 0.1116654013
H  H95  1  0.39968000  0.69466000  0.81415000  1.0 0.1116654013
H  H96  1  0.60032000  0.30534000  0.81415000  1.0 0.1116654013
H  H97  1  0.31794000  0.52090000  0.18073000  1.0 0.1185102415
H  H98  1  0.68206000  0.47910000  0.18073000  1.0 0.1185102415
H  H99  1  0.81794000  0.47910000  0.18073000  1.0 0.1185102415
H  H100  1  0.18206000  0.52090000  0.18073000  1.0 0.1185102415
H  H101  1  0.81794000  0.02090000  0.68073000  1.0 0.1185102415
H  H102  1  0.18206000  0.97910000  0.68073000  1.0 0.1185102415
H  H103  1  0.31794000  0.97910000  0.68073000  1.0 0.1185102415
H  H104  1  0.68206000  0.02090000  0.68073000  1.0 0.1185102415
H  H105  1  0.32942000  0.50448000  0.10312000  1.0 0.1116654013
H  H106  1  0.67058000  0.49552000  0.10312000  1.0 0.1116654013
H  H107  1  0.82942000  0.49552000  0.10312000  1.0 0.1116654013
H  H108  1  0.17058000  0.50448000  0.10312000  1.0 0.1116654013
H  H109  1  0.82942000  0.00448000  0.60312000  1.0 0.1116654013
H  H110  1  0.17058000  0.99552000  0.60312000  1.0 0.1116654013
H  H111  1  0.32942000  0.99552000  0.60312000  1.0 0.1116654013
H  H112  1  0.67058000  0.00448000  0.60312000  1.0 0.1116654013
H  H113  1  0.43351000  0.63648000  0.11288000  1.0 0.0998832844
H  H114  1  0.56649000  0.36352000  0.11288000  1.0 0.0998832844
H  H115  1  0.93351000  0.36352000  0.11288000  1.0 0.0998832844
H  H116  1  0.06649000  0.63648000  0.11288000  1.0 0.0998832844
H  H117  1  0.93351000  0.13647000  0.61288000  1.0 0.0998832844
H  H118  1  0.06649000  0.86352000  0.61288000  1.0 0.0998832844
H  H119  1  0.43351000  0.86352000  0.61288000  1.0 0.0998832844
H  H120  1  0.56649000  0.13647000  0.61288000  1.0 0.0998832844
H  H121  1  0.42093000  0.65510000  0.19061000  1.0 0.0998832844
H  H122  1  0.57907000  0.34490000  0.19061000  1.0 0.0998832844
H  H123  1  0.92093000  0.34490000  0.19061000  1.0 0.0998832844
H  H124  1  0.07907000  0.65510000  0.19061000  1.0 0.0998832844
H  H125  1  0.92093000  0.15510000  0.69061000  1.0 0.0998832844
H  H126  1  0.07907000  0.84490000  0.69061000  1.0 0.0998832844
H  H127  1  0.42093000  0.84490000  0.69061000  1.0 0.0998832844
H  H128  1  0.57907000  0.15510000  0.69061000  1.0 0.0998832844
H  H129  1  0.29702000  0.40695000  0.30835000  1.0 0.1116654013
H  H130  1  0.70298000  0.59305000  0.30835000  1.0 0.1116654013
H  H131  1  0.79702000  0.59305000  0.30835000  1.0 0.1116654013
H  H132  1  0.20298000  0.40695000  0.30835000  1.0 0.1116654013
H  H133  1  0.79702000  0.90695000  0.80835000  1.0 0.1116654013
H  H134  1  0.20298000  0.09305000  0.80835000  1.0 0.1116654013
H  H135  1  0.29702000  0.09305000  0.80835000  1.0 0.1116654013
H  H136  1  0.70298000  0.90695000  0.80835000  1.0 0.1116654013
H  H137  1  0.28899000  0.29008000  0.35133000  1.0 0.1185102415
H  H138  1  0.71101000  0.70992000  0.35133000  1.0 0.1185102415
H  H139  1  0.78899000  0.70992000  0.35133000  1.0 0.1185102415
H  H140  1  0.21101000  0.29008000  0.35133000  1.0 0.1185102415
H  H141  1  0.78899000  0.79008000  0.85133000  1.0 0.1185102415
H  H142  1  0.21101000  0.20992000  0.85133000  1.0 0.1185102415
H  H143  1  0.28899000  0.20992000  0.85133000  1.0 0.1185102415
H  H144  1  0.71101000  0.79008000  0.85133000  1.0 0.1185102415
H  H145  1  0.37902000  0.36044000  0.43570000  1.0 0.1116654013
H  H146  1  0.62098000  0.63956000  0.43570000  1.0 0.1116654013
H  H147  1  0.87902000  0.63956000  0.43570000  1.0 0.1116654013
H  H148  1  0.12098000  0.36044000  0.43570000  1.0 0.1116654013
H  H149  1  0.87902000  0.86044000  0.93570000  1.0 0.1116654013
H  H150  1  0.12098000  0.13956000  0.93570000  1.0 0.1116654013
H  H151  1  0.37902000  0.13956000  0.93570000  1.0 0.1116654013
H  H152  1  0.62098000  0.86044000  0.93570000  1.0 0.1116654013
H  H153  1  0.38655000  0.47862000  0.39390000  1.0 0.1116654013
H  H154  1  0.61345000  0.52138000  0.39390000  1.0 0.1116654013
H  H155  1  0.88655000  0.52138000  0.39390000  1.0 0.1116654013
H  H156  1  0.11345000  0.47862000  0.39390000  1.0 0.1116654013
H  H157  1  0.88655000  0.97862000  0.89390000  1.0 0.1116654013
H  H158  1  0.11345000  0.02138000  0.89390000  1.0 0.1116654013
H  H159  1  0.38655000  0.02138000  0.89390000  1.0 0.1116654013
H  H160  1  0.61345000  0.97862000  0.89390000  1.0 0.1116654013
H  H49  1  0.43832000  0.48713000  0.72112000  0.283 0.0920532533
H  H50  1  0.56168000  0.51287000  0.72112000  0.283 0.0920532533
H  H51  1  0.93832000  0.51287000  0.72112000  0.283 0.0920532533
H  H52  1  0.06168000  0.48713000  0.72112000  0.283 0.0920532533
H  H53  1  0.93832000  0.98713000  0.22112000  0.283 0.0920532533
H  H54  1  0.06168000  0.01287000  0.22112000  0.283 0.0920532533
H  H55  1  0.43832000  0.01287000  0.22112000  0.283 0.0920532533
H  H56  1  0.56168000  0.98713000  0.22112000  0.283 0.0920532533
H  H57  1  0.43869000  0.49787000  0.80074000  0.283 0.0998832844
H  H58  1  0.56131000  0.50213000  0.80074000  0.283 0.0998832844
H  H59  1  0.93869000  0.50213000  0.80074000  0.283 0.0998832844
H  H60  1  0.06131000  0.49787000  0.80074000  0.283 0.0998832844
H  H61  1  0.93869000  0.99787000  0.30074000  0.283 0.0998832844
H  H62  1  0.06131000  0.00213000  0.30074000  0.283 0.0998832844
H  H63  1  0.43869000  0.00213000  0.30074000  0.283 0.0998832844
H  H64  1  0.56131000  0.99787000  0.30074000  0.283 0.0998832844
H  H161  1  0.27403000  0.09578000  0.59348000  0.5 0.0998832844
H  H162  1  0.72597000  0.90422000  0.59348000  0.5 0.0998832844
H  H163  1  0.77403000  0.90422000  0.59348000  0.5 0.0998832844
H  H164  1  0.22597000  0.09578000  0.59348000  0.5 0.0998832844
H  H165  1  0.77403000  0.59578000  0.09348000  0.5 0.0998832844
H  H166  1  0.22597000  0.40422000  0.09348000  0.5 0.0998832844
H  H167  1  0.27403000  0.40422000  0.09348000  0.5 0.0998832844
H  H168  1  0.72597000  0.59578000  0.09348000  0.5 0.0998832844
H  H169  1  0.22508000  0.09874000  0.59334000  0.5 0.0998832844
H  H170  1  0.77492000  0.90126000  0.59334000  0.5 0.0998832844
H  H171  1  0.72508000  0.90126000  0.59334000  0.5 0.0998832844
H  H172  1  0.27492000  0.09874000  0.59334000  0.5 0.0998832844
H  H173  1  0.72508000  0.59874000  0.09334000  0.5 0.0998832844
H  H174  1  0.27492000  0.40126000  0.09334000  0.5 0.0998832844
H  H175  1  0.22508000  0.40126000  0.09334000  0.5 0.0998832844
H  H176  1  0.77492000  0.59874000  0.09334000  0.5 0.0998832844
H  H177  1  0.25089000  0.17889000  0.58941000  0.5 0.1332540836
H  H178  1  0.74911000  0.82111000  0.58941000  0.5 0.1332540836
H  H179  1  0.75089000  0.82111000  0.58941000  0.5 0.1332540836
H  H180  1  0.24911000  0.17889000  0.58941000  0.5 0.1332540836
H  H181  1  0.75089000  0.67889000  0.08941000  0.5 0.1332540836
H  H182  1  0.24911000  0.32111000  0.08941000  0.5 0.1332540836
H  H183  1  0.25089000  0.32111000  0.08941000  0.5 0.1332540836
H  H184  1  0.74911000  0.67889000  0.08941000  0.5 0.1332540836
H  H33  1  0.45548000  0.58446000  0.72162000  0.717 0.0920532533
H  H34  1  0.54452000  0.41554000  0.72162000  0.717 0.0920532533
H  H35  1  0.95548000  0.41554000  0.72162000  0.717 0.0920532533
H  H36  1  0.04452000  0.58446000  0.72162000  0.717 0.0920532533
H  H37  1  0.95548000  0.08446000  0.22162000  0.717 0.0920532533
H  H38  1  0.04452000  0.91554000  0.22162000  0.717 0.0920532533
H  H39  1  0.45548000  0.91554000  0.22162000  0.717 0.0920532533
H  H40  1  0.54452000  0.08446000  0.22162000  0.717 0.0920532533
H  H41  1  0.45450000  0.58260000  0.80110000  0.717 0.0920532533
H  H42  1  0.54550000  0.41740000  0.80110000  0.717 0.0920532533
H  H43  1  0.95450000  0.41740000  0.80110000  0.717 0.0920532533
H  H44  1  0.04550000  0.58260000  0.80110000  0.717 0.0920532533
H  H45  1  0.95450000  0.08260000  0.30110000  0.717 0.0920532533
H  H46  1  0.04550000  0.91740000  0.30110000  0.717 0.0920532533
H  H47  1  0.45450000  0.91740000  0.30110000  0.717 0.0920532533
H  H48  1  0.54550000  0.08260000  0.30110000  0.717 0.0920532533
C  C1  1  0.46207000  0.12947000  0.48837000  1.0 0.6117140193
C  C2  1  0.53793000  0.87053000  0.48837000  1.0 0.6117140193
C  C3  1  0.96207000  0.87053000  0.48837000  1.0 0.6117140193
C  C4  1  0.03793000  0.12947000  0.48837000  1.0 0.6117140193
C  C5  1  0.96207000  0.62947000  0.98837000  1.0 0.6117140193
C  C6  1  0.03793000  0.37053000  0.98837000  1.0 0.6117140193
C  C7  1  0.46207000  0.37053000  0.98837000  1.0 0.6117140193
C  C8  1  0.53793000  0.62947000  0.98837000  1.0 0.6117140193
C  C9  1  0.50000000  0.50000000  0.71248000  1.0 0.0328658511
C  C10  1  0.00000000  0.50000000  0.71248000  1.0 0.0328658511
C  C11  1  0.00000000  0.00000000  0.21248000  1.0 0.0328658511
C  C12  1  0.50000000  0.00000000  0.21248000  1.0 0.0328658511
C  C13  1  0.50000000  0.50000000  0.80970000  1.0 -0.037274599
C  C14  1  0.00000000  0.50000000  0.80970000  1.0 -0.037274599
C  C15  1  0.00000000  0.00000000  0.30970000  1.0 -0.037274599
C  C16  1  0.50000000  0.00000000  0.30970000  1.0 -0.037274599
C  C17  1  0.50000000  0.50000000  0.86198000  1.0 0.5711386864
C  C18  1  0.00000000  0.50000000  0.86198000  1.0 0.5711386864
C  C19  1  0.00000000  0.00000000  0.36198000  1.0 0.5711386864
C  C20  1  0.50000000  0.00000000  0.36198000  1.0 0.5711386864
C  C21  1  0.44274000  0.27116000  0.50985000  1.0 -0.1092928584
C  C22  1  0.55726000  0.72884000  0.50985000  1.0 -0.1092928584
C  C23  1  0.94274000  0.72884000  0.50985000  1.0 -0.1092928584
C  C24  1  0.05726000  0.27116000  0.50985000  1.0 -0.1092928584
C  C25  1  0.94274000  0.77116000  0.00985000  1.0 -0.1092928584
C  C26  1  0.05726000  0.22884000  0.00985000  1.0 -0.1092928584
C  C27  1  0.44274000  0.22884000  0.00985000  1.0 -0.1092928584
C  C28  1  0.55726000  0.77116000  0.00985000  1.0 -0.1092928584
C  C29  1  0.47107000  0.20740000  0.51270000  1.0 -0.037274599
C  C30  1  0.52893000  0.79260000  0.51270000  1.0 -0.037274599
C  C31  1  0.97107000  0.79260000  0.51270000  1.0 -0.037274599
C  C32  1  0.02893000  0.20740000  0.51270000  1.0 -0.037274599
C  C33  1  0.97107000  0.70740000  0.01270000  1.0 -0.037274599
C  C34  1  0.02893000  0.29260000  0.01270000  1.0 -0.037274599
C  C35  1  0.47107000  0.29260000  0.01270000  1.0 -0.037274599
C  C36  1  0.52893000  0.70740000  0.01270000  1.0 -0.037274599
C  C37  1  0.50698000  0.21630000  0.53928000  1.0 -0.0995082805
C  C38  1  0.49302000  0.78370000  0.53928000  1.0 -0.0995082805
C  C39  1  0.00698000  0.78370000  0.53928000  1.0 -0.0995082805
C  C40  1  0.99302000  0.21630000  0.53928000  1.0 -0.0995082805
C  C41  1  0.00698000  0.71630000  0.03928000  1.0 -0.0995082805
C  C42  1  0.99302000  0.28370000  0.03928000  1.0 -0.0995082805
C  C43  1  0.50698000  0.28370000  0.03928000  1.0 -0.0995082805
C  C44  1  0.49302000  0.71630000  0.03928000  1.0 -0.0995082805
C  C45  1  0.51390000  0.28680000  0.56353000  1.0 -0.1397913364
C  C46  1  0.48610000  0.71320000  0.56353000  1.0 -0.1397913364
C  C47  1  0.01390000  0.71320000  0.56353000  1.0 -0.1397913364
C  C48  1  0.98610000  0.28680000  0.56353000  1.0 -0.1397913364
C  C49  1  0.01390000  0.78680000  0.06353000  1.0 -0.1397913364
C  C50  1  0.98610000  0.21320000  0.06353000  1.0 -0.1397913364
C  C51  1  0.51390000  0.21320000  0.06353000  1.0 -0.1397913364
C  C52  1  0.48610000  0.78680000  0.06353000  1.0 -0.1397913364
C  C53  1  0.48622000  0.35075000  0.56077000  1.0 0.0998832844
C  C54  1  0.51378000  0.64925000  0.56077000  1.0 0.0998832844
C  C55  1  0.98622000  0.64925000  0.56077000  1.0 0.0998832844
C  C56  1  0.01378000  0.35075000  0.56077000  1.0 0.0998832844
C  C57  1  0.98622000  0.85075000  0.06077000  1.0 0.0998832844
C  C58  1  0.01378000  0.14925000  0.06077000  1.0 0.0998832844
C  C59  1  0.48622000  0.14925000  0.06077000  1.0 0.0998832844
C  C60  1  0.51378000  0.85075000  0.06077000  1.0 0.0998832844
C  C61  1  0.45037000  0.34288000  0.53296000  1.0 -0.1397913364
C  C62  1  0.54963000  0.65712000  0.53296000  1.0 -0.1397913364
C  C63  1  0.95037000  0.65712000  0.53296000  1.0 -0.1397913364
C  C64  1  0.04963000  0.34288000  0.53296000  1.0 -0.1397913364
C  C65  1  0.95037000  0.84288000  0.03296000  1.0 -0.1397913364
C  C66  1  0.04963000  0.15712000  0.03296000  1.0 -0.1397913364
C  C67  1  0.45037000  0.15712000  0.03296000  1.0 -0.1397913364
C  C68  1  0.54963000  0.84288000  0.03296000  1.0 -0.1397913364
C  C69  1  0.49372000  0.42638000  0.58719000  1.0 -0.1687488949
C  C70  1  0.50628000  0.57362000  0.58719000  1.0 -0.1687488949
C  C71  1  0.99372000  0.57362000  0.58719000  1.0 -0.1687488949
C  C72  1  0.00628000  0.42638000  0.58719000  1.0 -0.1687488949
C  C73  1  0.99372000  0.92638000  0.08719000  1.0 -0.1687488949
C  C74  1  0.00628000  0.07362000  0.08719000  1.0 -0.1647703137
C  C75  1  0.49372000  0.07362000  0.08719000  1.0 -0.1687488949
C  C76  1  0.50628000  0.92638000  0.08719000  1.0 -0.1687488949
C  C77  1  0.49424000  0.43044000  0.63502000  1.0 0.2021979139
C  C78  1  0.50576000  0.56956000  0.63502000  1.0 0.2021979139
C  C79  1  0.99424000  0.56956000  0.63502000  1.0 0.2021979139
C  C80  1  0.00576000  0.43044000  0.63502000  1.0 0.2021979139
C  C81  1  0.99424000  0.93044000  0.13502000  1.0 0.2021979139
C  C82  1  0.00576000  0.06956000  0.13502000  1.0 0.2021979139
C  C83  1  0.49424000  0.06956000  0.13502000  1.0 0.2021979139
C  C84  1  0.50576000  0.93044000  0.13502000  1.0 0.2021979139
C  C85  1  0.50000000  0.50000000  0.66123000  1.0 -0.1895957823
C  C86  1  0.00000000  0.50000000  0.66123000  1.0 -0.1895957823
C  C87  1  0.00000000  0.00000000  0.16123000  1.0 -0.1895957823
C  C88  1  0.50000000  0.00000000  0.16123000  1.0 -0.1895957823
C  C89  1  0.50000000  0.50000000  0.56463000  1.0 0.2212578681
C  C90  1  0.00000000  0.50000000  0.56463000  1.0 0.2212578681
C  C91  1  0.00000000  0.00000000  0.06463000  1.0 0.2212578681
C  C92  1  0.50000000  0.00000000  0.06463000  1.0 0.2212578681
C  C125  1  0.32806000  0.23740000  0.42530000  1.0 0.6027981703
C  C126  1  0.67194000  0.76260000  0.42530000  1.0 0.6027981703
C  C127  1  0.82806000  0.76260000  0.42530000  1.0 0.6027981703
C  C128  1  0.17194000  0.23740000  0.42530000  1.0 0.6027981703
C  C129  1  0.82806000  0.73740000  0.92530000  1.0 0.6027981703
C  C130  1  0.17194000  0.26260000  0.92530000  1.0 0.6027981703
C  C131  1  0.32806000  0.26260000  0.92530000  1.0 0.6027981703
C  C132  1  0.67194000  0.73740000  0.92530000  1.0 0.6027981703
C  C133  1  0.34530000  0.75890000  0.33737000  1.0 0.1116654013
C  C134  1  0.65470000  0.24110000  0.33737000  1.0 0.1116654013
C  C135  1  0.84530000  0.24110000  0.33737000  1.0 0.1116654013
C  C136  1  0.15470000  0.75890000  0.33737000  1.0 0.1116654013
C  C137  1  0.84530000  0.25890000  0.83737000  1.0 0.1116654013
C  C138  1  0.15470000  0.74110000  0.83737000  1.0 0.1116654013
C  C139  1  0.34530000  0.74110000  0.83737000  1.0 0.1116654013
C  C140  1  0.65470000  0.25890000  0.83737000  1.0 0.1116654013
C  C141  1  0.31141000  0.77620000  0.36653000  1.0 -0.1464819439
C  C142  1  0.68859000  0.22380000  0.36653000  1.0 -0.1464819439
C  C143  1  0.81141000  0.22380000  0.36653000  1.0 -0.1464819439
C  C144  1  0.18859000  0.77620000  0.36653000  1.0 -0.1464819439
C  C145  1  0.81141000  0.27620000  0.86653000  1.0 -0.1464819439
C  C146  1  0.18859000  0.72380000  0.86653000  1.0 -0.1464819439
C  C147  1  0.31141000  0.72380000  0.86653000  1.0 -0.1464819439
C  C148  1  0.68859000  0.27620000  0.86653000  1.0 -0.1464819439
C  C149  1  0.30905000  0.84860000  0.38941000  1.0 -0.0995082805
C  C150  1  0.69095000  0.15140000  0.38941000  1.0 -0.0995082805
C  C151  1  0.80905000  0.15140000  0.38941000  1.0 -0.0995082805
C  C152  1  0.19095000  0.84860000  0.38941000  1.0 -0.0995082805
C  C153  1  0.80905000  0.34860000  0.88941000  1.0 -0.0995082805
C  C154  1  0.19095000  0.65140000  0.88941000  1.0 -0.0995082805
C  C155  1  0.30905000  0.65140000  0.88941000  1.0 -0.0995082805
C  C156  1  0.69095000  0.34860000  0.88941000  1.0 -0.0995082805
C  C157  1  0.34081000  0.90436000  0.38605000  1.0 -0.0472027751
C  C158  1  0.65919000  0.09564000  0.38605000  1.0 -0.0472027751
C  C159  1  0.84081000  0.09564000  0.38605000  1.0 -0.0472027751
C  C160  1  0.15919000  0.90436000  0.38605000  1.0 -0.0472027751
C  C161  1  0.84081000  0.40436000  0.88605000  1.0 -0.0472027751
C  C162  1  0.15919000  0.59564000  0.88605000  1.0 -0.0472027751
C  C163  1  0.34081000  0.59564000  0.88605000  1.0 -0.0472027751
C  C164  1  0.65919000  0.40436000  0.88605000  1.0 -0.0472027751
C  C165  1  0.37519000  0.88700000  0.35800000  1.0 -0.1092928584
C  C166  1  0.62481000  0.11300000  0.35800000  1.0 -0.1092928584
C  C167  1  0.87519000  0.11300000  0.35800000  1.0 -0.1092928584
C  C168  1  0.12481000  0.88700000  0.35800000  1.0 -0.1092928584
C  C169  1  0.87519000  0.38700000  0.85800000  1.0 -0.1092928584
C  C170  1  0.12481000  0.61300000  0.85800000  1.0 -0.1092928584
C  C171  1  0.37519000  0.61300000  0.85800000  1.0 -0.1092928584
C  C172  1  0.62481000  0.38700000  0.85800000  1.0 -0.1092928584
C  C173  1  0.37702000  0.81560000  0.33346000  1.0 -0.1464819439
C  C174  1  0.62298000  0.18440000  0.33346000  1.0 -0.1464819439
C  C175  1  0.87702000  0.18440000  0.33346000  1.0 -0.1464819439
C  C176  1  0.12298000  0.81560000  0.33346000  1.0 -0.1464819439
C  C177  1  0.87702000  0.31560000  0.83346000  1.0 -0.1464819439
C  C178  1  0.12298000  0.68440000  0.83346000  1.0 -0.1464819439
C  C179  1  0.37702000  0.68440000  0.83346000  1.0 -0.1464819439
C  C180  1  0.62298000  0.31560000  0.83346000  1.0 -0.1464819439
C  C181  1  0.34079000  0.97801000  0.41569000  1.0 0.6027981703
C  C182  1  0.65921000  0.02199000  0.41569000  1.0 0.6027981703
C  C183  1  0.84079000  0.02199000  0.41569000  1.0 0.6027981703
C  C184  1  0.15921000  0.97801000  0.41569000  1.0 0.6027981703
C  C185  1  0.84079000  0.47801000  0.91569000  1.0 0.6027981703
C  C186  1  0.15921000  0.52199000  0.91569000  1.0 0.6027981703
C  C187  1  0.34079000  0.52199000  0.91569000  1.0 0.6027981703
C  C188  1  0.65921000  0.47801000  0.91569000  1.0 0.6027981703
C  C189  1  0.36791000  0.58930000  0.19395000  1.0 0.0693349082
C  C190  1  0.63209000  0.41070000  0.19395000  1.0 0.0693349082
C  C191  1  0.86791000  0.41070000  0.19395000  1.0 0.0693349082
C  C192  1  0.13209000  0.58930000  0.19395000  1.0 0.0693349082
C  C193  1  0.86791000  0.08930000  0.69395000  1.0 0.0693349082
C  C194  1  0.13209000  0.91070000  0.69395000  1.0 0.0693349082
C  C195  1  0.36791000  0.91070000  0.69395000  1.0 0.0693349082
C  C196  1  0.63209000  0.08930000  0.69395000  1.0 0.0693349082
C  C197  1  0.34129000  0.54450000  0.16715000  1.0 -0.1244734983
C  C198  1  0.65871000  0.45550000  0.16715000  1.0 -0.1244734983
C  C199  1  0.84129000  0.45550000  0.16715000  1.0 -0.1244734983
C  C200  1  0.15871000  0.54450000  0.16715000  1.0 -0.1244734983
C  C201  1  0.84129000  0.04450000  0.66715000  1.0 -0.1244734983
C  C202  1  0.15871000  0.95550000  0.66715000  1.0 -0.1244734983
C  C203  1  0.34129000  0.95550000  0.66715000  1.0 -0.1244734983
C  C204  1  0.65871000  0.04450000  0.66715000  1.0 -0.1244734983
C  C205  1  0.34836000  0.53380000  0.12086000  1.0 -0.0898236643
C  C206  1  0.65164000  0.46620000  0.12086000  1.0 -0.0898236643
C  C207  1  0.84836000  0.46620000  0.12086000  1.0 -0.0898236643
C  C208  1  0.15164000  0.53380000  0.12086000  1.0 -0.0898236643
C  C209  1  0.84836000  0.03380000  0.62086000  1.0 -0.0898236643
C  C210  1  0.15164000  0.96620000  0.62086000  1.0 -0.0898236643
C  C211  1  0.34836000  0.96620000  0.62086000  1.0 -0.0898236643
C  C212  1  0.65164000  0.03380000  0.62086000  1.0 -0.0898236643
C  C213  1  0.38355000  0.56630000  0.10027000  1.0 -0.0279352387
C  C214  1  0.61645000  0.43370000  0.10027000  1.0 -0.0279352387
C  C215  1  0.88355000  0.43370000  0.10027000  1.0 -0.0279352387
C  C216  1  0.11645000  0.56630000  0.10027000  1.0 -0.0279352387
C  C217  1  0.88355000  0.06630000  0.60027000  1.0 -0.0279352387
C  C218  1  0.11645000  0.93370000  0.60027000  1.0 -0.0279352387
C  C219  1  0.38355000  0.93370000  0.60027000  1.0 -0.0279352387
C  C220  1  0.61645000  0.06630000  0.60027000  1.0 -0.0279352387
C  C221  1  0.41026000  0.61270000  0.12659000  1.0 -0.0995082805
C  C222  1  0.58974000  0.38730000  0.12659000  1.0 -0.0995082805
C  C223  1  0.91026000  0.38730000  0.12659000  1.0 -0.0995082805
C  C224  1  0.08974000  0.61270000  0.12659000  1.0 -0.0995082805
C  C225  1  0.91026000  0.11270000  0.62659000  1.0 -0.0995082805
C  C226  1  0.08974000  0.88730000  0.62659000  1.0 -0.0995082805
C  C227  1  0.41026000  0.88730000  0.62659000  1.0 -0.0995082805
C  C228  1  0.58974000  0.11270000  0.62659000  1.0 -0.0995082805
C  C229  1  0.40266000  0.62400000  0.17303000  1.0 -0.1397913364
C  C230  1  0.59734000  0.37600000  0.17303000  1.0 -0.1397913364
C  C231  1  0.90266000  0.37600000  0.17303000  1.0 -0.1397913364
C  C232  1  0.09734000  0.62400000  0.17303000  1.0 -0.1397913364
C  C233  1  0.90266000  0.12400000  0.67303000  1.0 -0.1397913364
C  C234  1  0.09734000  0.87600000  0.67303000  1.0 -0.1397913364
C  C235  1  0.40266000  0.87600000  0.67303000  1.0 -0.1397913364
C  C236  1  0.59734000  0.12400000  0.67303000  1.0 -0.1397913364
C  C237  1  0.39212000  0.54960000  0.05031000  1.0 0.5921738361
C  C238  1  0.60788000  0.45040000  0.05031000  1.0 0.5921738361
C  C239  1  0.89212000  0.45040000  0.05031000  1.0 0.5921738361
C  C240  1  0.10788000  0.54960000  0.05031000  1.0 0.5921738361
C  C241  1  0.89212000  0.04960000  0.55031000  1.0 0.5921738361
C  C242  1  0.10788000  0.95040000  0.55031000  1.0 0.5921738361
C  C243  1  0.39212000  0.95040000  0.55031000  1.0 0.5921738361
C  C244  1  0.60788000  0.04960000  0.55031000  1.0 0.5921738361
C  C245  1  0.34817000  0.53140000  0.31963000  1.0 -0.180191883
C  C246  1  0.65183000  0.46860000  0.31963000  1.0 -0.180191883
C  C247  1  0.84817000  0.46860000  0.31963000  1.0 -0.180191883
C  C248  1  0.15183000  0.53140000  0.31963000  1.0 -0.180191883
C  C249  1  0.84817000  0.03140000  0.81963000  1.0 -0.180191883
C  C250  1  0.15183000  0.96860000  0.81963000  1.0 -0.180191883
C  C251  1  0.34817000  0.96860000  0.81963000  1.0 -0.180191883
C  C252  1  0.65183000  0.03140000  0.81963000  1.0 -0.180191883
C  C253  1  0.34499000  0.60750000  0.33890000  1.0 0.2339812349
C  C254  1  0.65501000  0.39250000  0.33890000  1.0 0.2339812349
C  C255  1  0.84499000  0.39250000  0.33890000  1.0 0.2339812349
C  C256  1  0.15501000  0.60750000  0.33890000  1.0 0.2339812349
C  C257  1  0.84499000  0.10750000  0.83890000  1.0 0.2339812349
C  C258  1  0.15501000  0.89250000  0.83890000  1.0 0.2339812349
C  C259  1  0.34499000  0.89250000  0.83890000  1.0 0.2339812349
C  C260  1  0.65501000  0.10750000  0.83890000  1.0 0.2339812349
C  C261  1  0.34927000  0.67960000  0.31482000  1.0 -0.1895957823
C  C262  1  0.65073000  0.32040000  0.31482000  1.0 -0.1895957823
C  C263  1  0.84927000  0.32040000  0.31482000  1.0 -0.1895957823
C  C264  1  0.15073000  0.67960000  0.31482000  1.0 -0.1895957823
C  C265  1  0.84927000  0.17960000  0.81482000  1.0 -0.1895957823
C  C266  1  0.15073000  0.82040000  0.81482000  1.0 -0.1895957823
C  C267  1  0.34927000  0.82040000  0.81482000  1.0 -0.1895957823
C  C268  1  0.65073000  0.17960000  0.81482000  1.0 -0.1895957823
C  C269  1  0.35693000  0.67100000  0.26742000  1.0 0.2489177276
C  C270  1  0.64307000  0.32900000  0.26742000  1.0 0.2489177276
C  C271  1  0.85693000  0.32900000  0.26742000  1.0 0.2489177276
C  C272  1  0.14307000  0.67100000  0.26742000  1.0 0.2489177276
C  C273  1  0.85693000  0.17100000  0.76742000  1.0 0.2489177276
C  C274  1  0.14307000  0.82900000  0.76742000  1.0 0.2489177276
C  C275  1  0.35693000  0.82900000  0.76742000  1.0 0.2489177276
C  C276  1  0.64307000  0.17100000  0.76742000  1.0 0.2489177276
C  C277  1  0.36073000  0.59680000  0.24470000  1.0 -0.1687488949
C  C278  1  0.63927000  0.40320000  0.24470000  1.0 -0.1687488949
C  C279  1  0.86073000  0.40320000  0.24470000  1.0 -0.1687488949
C  C280  1  0.13927000  0.59680000  0.24470000  1.0 -0.1687488949
C  C281  1  0.86073000  0.09680000  0.74470000  1.0 -0.1687488949
C  C282  1  0.13927000  0.90320000  0.74470000  1.0 -0.1687488949
C  C283  1  0.36073000  0.90320000  0.74470000  1.0 -0.1687488949
C  C284  1  0.63927000  0.09680000  0.74470000  1.0 -0.1687488949
C  C285  1  0.35593000  0.52960000  0.27243000  1.0 0.2339812349
C  C286  1  0.64407000  0.47040000  0.27243000  1.0 0.2339812349
C  C287  1  0.85593000  0.47040000  0.27243000  1.0 0.2339812349
C  C288  1  0.14407000  0.52960000  0.27243000  1.0 0.2339812349
C  C289  1  0.85593000  0.02960000  0.77243000  1.0 0.2339812349
C  C290  1  0.14407000  0.97040000  0.77243000  1.0 0.2339812349
C  C291  1  0.35593000  0.97040000  0.77243000  1.0 0.2339812349
C  C292  1  0.64407000  0.02960000  0.77243000  1.0 0.2339812349
C  C293  1  0.34261000  0.45560000  0.34671000  1.0 0.0920532533
C  C294  1  0.65739000  0.54440000  0.34671000  1.0 0.0920532533
C  C295  1  0.84261000  0.54440000  0.34671000  1.0 0.0920532533
C  C296  1  0.15739000  0.45560000  0.34671000  1.0 0.0920532533
C  C297  1  0.84261000  0.95560000  0.84671000  1.0 0.0920532533
C  C298  1  0.15739000  0.04440000  0.84671000  1.0 0.0920532533
C  C299  1  0.34261000  0.04440000  0.84671000  1.0 0.0920532533
C  C300  1  0.65739000  0.95560000  0.84671000  1.0 0.0920532533
C  C301  1  0.31367000  0.39850000  0.33430000  1.0 -0.1464819439
C  C302  1  0.68633000  0.60150000  0.33430000  1.0 -0.1464819439
C  C303  1  0.81367000  0.60150000  0.33430000  1.0 -0.1464819439
C  C304  1  0.18633000  0.39850000  0.33430000  1.0 -0.1464819439
C  C305  1  0.81367000  0.89850000  0.83430000  1.0 -0.1464819439
C  C306  1  0.18633000  0.10150000  0.83430000  1.0 -0.1464819439
C  C307  1  0.31367000  0.10150000  0.83430000  1.0 -0.1464819439
C  C308  1  0.68633000  0.89850000  0.83430000  1.0 -0.1464819439
C  C309  1  0.30887000  0.32800000  0.36020000  1.0 -0.0898236643
C  C310  1  0.69113000  0.67200000  0.36020000  1.0 -0.0898236643
C  C311  1  0.80887000  0.67200000  0.36020000  1.0 -0.0898236643
C  C312  1  0.19113000  0.32800000  0.36020000  1.0 -0.0898236643
C  C313  1  0.80887000  0.82800000  0.86020000  1.0 -0.0898236643
C  C314  1  0.19113000  0.17200000  0.86020000  1.0 -0.0898236643
C  C315  1  0.30887000  0.17200000  0.86020000  1.0 -0.0898236643
C  C316  1  0.69113000  0.82800000  0.86020000  1.0 -0.0898236643
C  C317  1  0.33228000  0.31420000  0.39734000  1.0 -0.037274599
C  C318  1  0.66772000  0.68580000  0.39734000  1.0 -0.037274599
C  C319  1  0.83228000  0.68580000  0.39734000  1.0 -0.037274599
C  C320  1  0.16772000  0.31420000  0.39734000  1.0 -0.037274599
C  C321  1  0.83228000  0.81420000  0.89734000  1.0 -0.037274599
C  C322  1  0.16772000  0.18580000  0.89734000  1.0 -0.037274599
C  C323  1  0.33228000  0.18580000  0.89734000  1.0 -0.037274599
C  C324  1  0.66772000  0.81420000  0.89734000  1.0 -0.037274599
C  C325  1  0.36206000  0.37010000  0.41010000  1.0 -0.0995082805
C  C326  1  0.63794000  0.62990000  0.41010000  1.0 -0.0995082805
C  C327  1  0.86206000  0.62990000  0.41010000  1.0 -0.0995082805
C  C328  1  0.13794000  0.37010000  0.41010000  1.0 -0.0995082805
C  C329  1  0.86206000  0.87010000  0.91010000  1.0 -0.0995082805
C  C330  1  0.13794000  0.12990000  0.91010000  1.0 -0.0995082805
C  C331  1  0.36206000  0.12990000  0.91010000  1.0 -0.0995082805
C  C332  1  0.63794000  0.87010000  0.91010000  1.0 -0.0995082805
C  C333  1  0.36671000  0.44080000  0.38478000  1.0 -0.1397913364
C  C334  1  0.63329000  0.55920000  0.38478000  1.0 -0.1397913364
C  C335  1  0.86671000  0.55920000  0.38478000  1.0 -0.1397913364
C  C336  1  0.13329000  0.44080000  0.38478000  1.0 -0.1397913364
C  C337  1  0.86671000  0.94080000  0.88478000  1.0 -0.1397913364
C  C338  1  0.13329000  0.05920000  0.88478000  1.0 -0.1397913364
C  C339  1  0.36671000  0.05920000  0.88478000  1.0 -0.1397913364
C  C340  1  0.63329000  0.94080000  0.88478000  1.0 -0.1397913364
C  C341  1  0.25000000  0.11510000  0.52887000  1.0 0.6479457979
C  C342  1  0.75000000  0.88490000  0.52887000  1.0 0.6479457979
C  C343  1  0.75000000  0.61510000  0.02887000  1.0 0.6479457979
C  C344  1  0.25000000  0.38490000  0.02887000  1.0 0.6479457979
C  C345  1  0.25000000  0.12280000  0.58100000  1.0 -0.5364154314
C  C346  1  0.75000000  0.87720000  0.58100000  1.0 -0.5364154314
C  C347  1  0.75000000  0.62280000  0.08100000  1.0 -0.5364154314
C  C348  1  0.25000000  0.37720000  0.08100000  1.0 -0.5349081095
C  C109  1  0.46350000  0.49380000  0.73680000  0.283 -0.0615396317
C  C110  1  0.53650000  0.50620000  0.73680000  0.283 -0.0615396317
C  C111  1  0.96350000  0.50620000  0.73680000  0.283 -0.0615396317
C  C112  1  0.03650000  0.49380000  0.73680000  0.283 -0.0615396317
C  C113  1  0.96350000  0.99380000  0.23680000  0.283 -0.0615396317
C  C114  1  0.03650000  0.00620000  0.23680000  0.283 -0.0615396317
C  C115  1  0.46350000  0.00620000  0.23680000  0.283 -0.0615396317
C  C116  1  0.53650000  0.99380000  0.23680000  0.283 -0.0615396317
C  C117  1  0.46400000  0.49700000  0.78490000  0.283 -0.0615396317
C  C118  1  0.53600000  0.50300000  0.78490000  0.283 -0.0615396317
C  C119  1  0.96400000  0.50300000  0.78490000  0.283 -0.0615396317
C  C120  1  0.03600000  0.49700000  0.78490000  0.283 -0.0615396317
C  C121  1  0.96400000  0.99700000  0.28490000  0.283 -0.0615396317
C  C122  1  0.03600000  0.00300000  0.28490000  0.283 -0.0615396317
C  C123  1  0.46400000  0.00300000  0.28490000  0.283 -0.0615396317
C  C124  1  0.53600000  0.99700000  0.28490000  0.283 -0.0615396317
C  C93  1  0.47340000  0.54990000  0.73745000  0.717 -0.0472027751
C  C94  1  0.52660000  0.45010000  0.73745000  0.717 -0.0472027751
C  C95  1  0.97340000  0.45010000  0.73745000  0.717 -0.0472027751
C  C96  1  0.02660000  0.54990000  0.73745000  0.717 -0.0472027751
C  C97  1  0.97340000  0.04990000  0.23745000  0.717 -0.0472027751
C  C98  1  0.02660000  0.95010000  0.23745000  0.717 -0.0472027751
C  C99  1  0.47340000  0.95010000  0.23745000  0.717 -0.0472027751
C  C100  1  0.52660000  0.04990000  0.23745000  0.717 -0.0472027751
C  C101  1  0.47300000  0.54940000  0.78519000  0.717 -0.0743718381
C  C102  1  0.52700000  0.45060000  0.78519000  0.717 -0.0743718381
C  C103  1  0.97300000  0.45060000  0.78519000  0.717 -0.0743718381
C  C104  1  0.02700000  0.54940000  0.78519000  0.717 -0.0743718381
C  C105  1  0.97300000  0.04940000  0.28519000  0.717 -0.0743718381
C  C106  1  0.02700000  0.95060000  0.28519000  0.717 -0.0743718381
C  C107  1  0.47300000  0.95060000  0.28519000  0.717 -0.0743718381
C  C108  1  0.52700000  0.04940000  0.28519000  0.717 -0.0743718381
O  O1  1  0.49172000  0.08432000  0.47702000  1.0 -0.6411458227
O  O2  1  0.50828000  0.91568000  0.47702000  1.0 -0.6411458227
O  O3  1  0.99172000  0.91568000  0.47702000  1.0 -0.6411458227
O  O4  1  0.00828000  0.08432000  0.47702000  1.0 -0.6411458227
O  O5  1  0.99172000  0.58432000  0.97702000  1.0 -0.6411458227
O  O6  1  0.00828000  0.41568000  0.97702000  1.0 -0.6411458227
O  O7  1  0.49172000  0.41568000  0.97702000  1.0 -0.6411458227
O  O8  1  0.50828000  0.58432000  0.97702000  1.0 -0.6411458227
O  O9  1  0.46737000  0.52214000  0.88167000  1.0 -0.5944467719
O  O10  1  0.53263000  0.47786000  0.88167000  1.0 -0.5944467719
O  O11  1  0.96737000  0.47786000  0.88167000  1.0 -0.5944467719
O  O12  1  0.03263000  0.52214000  0.88167000  1.0 -0.5944467719
O  O13  1  0.96737000  0.02214000  0.38167000  1.0 -0.5944467719
O  O14  1  0.03263000  0.97786000  0.38167000  1.0 -0.5944467719
O  O15  1  0.46737000  0.97786000  0.38167000  1.0 -0.5944467719
O  O16  1  0.53263000  0.02214000  0.38167000  1.0 -0.5944467719
O  O17  1  0.42498000  0.10980000  0.48107000  1.0 -0.6411458227
O  O18  1  0.57502000  0.89020000  0.48107000  1.0 -0.6411458227
O  O19  1  0.92498000  0.89020000  0.48107000  1.0 -0.6411458227
O  O20  1  0.07502000  0.10980000  0.48107000  1.0 -0.6411458227
O  O21  1  0.92498000  0.60980000  0.98107000  1.0 -0.6411458227
O  O22  1  0.07502000  0.39020000  0.98107000  1.0 -0.6411458227
O  O23  1  0.42498000  0.39020000  0.98107000  1.0 -0.6411458227
O  O24  1  0.57502000  0.60980000  0.98107000  1.0 -0.6411458227
O  O25  1  0.37541000  0.01016000  0.42541000  1.0 -0.6625134285
O  O26  1  0.62459000  0.98984000  0.42541000  1.0 -0.6625134285
O  O27  1  0.87541000  0.98984000  0.42541000  1.0 -0.6625134285
O  O28  1  0.12459000  0.01016000  0.42541000  1.0 -0.6625134285
O  O29  1  0.87541000  0.51016000  0.92541000  1.0 -0.6625134285
O  O30  1  0.12459000  0.48984000  0.92541000  1.0 -0.6625134285
O  O31  1  0.37541000  0.48984000  0.92541000  1.0 -0.6625134285
O  O32  1  0.62459000  0.51016000  0.92541000  1.0 -0.6625134285
O  O33  1  0.30696000  0.00556000  0.43162000  1.0 -0.6460797872
O  O34  1  0.69304000  0.99444000  0.43162000  1.0 -0.6460797872
O  O35  1  0.80696000  0.99444000  0.43162000  1.0 -0.6460797872
O  O36  1  0.19304000  0.00556000  0.43162000  1.0 -0.6460797872
O  O37  1  0.80696000  0.50556000  0.93162000  1.0 -0.6460797872
O  O38  1  0.19304000  0.49444000  0.93162000  1.0 -0.6460797872
O  O39  1  0.30696000  0.49444000  0.93162000  1.0 -0.6460797872
O  O40  1  0.69304000  0.50556000  0.93162000  1.0 -0.6460797872
O  O41  1  0.42856000  0.56300000  0.03581000  1.0 -0.6411458227
O  O42  1  0.57144000  0.43700000  0.03581000  1.0 -0.6411458227
O  O43  1  0.92856000  0.43700000  0.03581000  1.0 -0.6411458227
O  O44  1  0.07144000  0.56300000  0.03581000  1.0 -0.6411458227
O  O45  1  0.92856000  0.06300000  0.53581000  1.0 -0.6411458227
O  O46  1  0.07144000  0.93700000  0.53581000  1.0 -0.6411458227
O  O47  1  0.42856000  0.93700000  0.53581000  1.0 -0.6411458227
O  O48  1  0.57144000  0.06300000  0.53581000  1.0 -0.6411458227
O  O49  1  0.36377000  0.52090000  0.02610000  1.0 -0.6326384927
O  O50  1  0.63623000  0.47910000  0.02610000  1.0 -0.6326384927
O  O51  1  0.86377000  0.47910000  0.02610000  1.0 -0.6326384927
O  O52  1  0.13623000  0.52090000  0.02610000  1.0 -0.6326384927
O  O53  1  0.86377000  0.02090000  0.52610000  1.0 -0.6326384927
O  O54  1  0.13623000  0.97910000  0.52610000  1.0 -0.6326384927
O  O55  1  0.36377000  0.97910000  0.52610000  1.0 -0.6326384927
O  O56  1  0.63623000  0.02090000  0.52610000  1.0 -0.6326384927
O  O57  1  0.30116000  0.18770000  0.41214000  1.0 -0.6411458227
O  O58  1  0.69884000  0.81230000  0.41214000  1.0 -0.6411458227
O  O59  1  0.80116000  0.81230000  0.41214000  1.0 -0.6411458227
O  O60  1  0.19884000  0.18770000  0.41214000  1.0 -0.6411458227
O  O61  1  0.80116000  0.68770000  0.91214000  1.0 -0.6411458227
O  O62  1  0.19884000  0.31230000  0.91214000  1.0 -0.6411458227
O  O63  1  0.30116000  0.31230000  0.91214000  1.0 -0.6411458227
O  O64  1  0.69884000  0.68770000  0.91214000  1.0 -0.6411458227
O  O65  1  0.35066000  0.22800000  0.45861000  1.0 -0.572839589
O  O66  1  0.64934000  0.77200000  0.45861000  1.0 -0.572839589
O  O67  1  0.85066000  0.77200000  0.45861000  1.0 -0.572839589
O  O68  1  0.14934000  0.22800000  0.45861000  1.0 -0.572839589
O  O69  1  0.85066000  0.72800000  0.95861000  1.0 -0.572839589
O  O70  1  0.14934000  0.27200000  0.95861000  1.0 -0.572839589
O  O71  1  0.35066000  0.27200000  0.95861000  1.0 -0.572839589
O  O72  1  0.64934000  0.72800000  0.95861000  1.0 -0.572839589
O  O73  1  0.21724000  0.11010000  0.50764000  1.0 -0.6692081104
O  O74  1  0.78276000  0.88990000  0.50764000  1.0 -0.6692081104
O  O75  1  0.71724000  0.88990000  0.50764000  1.0 -0.6692081104
O  O76  1  0.28276000  0.11010000  0.50764000  1.0 -0.6692081104
O  O77  1  0.71724000  0.61010000  0.00764000  1.0 -0.6692081104
O  O78  1  0.28276000  0.38990000  0.00764000  1.0 -0.6692081104
O  O79  1  0.21724000  0.38990000  0.00764000  1.0 -0.6692081104
O  O80  1  0.78276000  0.61010000  0.00764000  1.0 -0.6692081104
F  F1  1  0.50000000  0.50000000  0.51801000  1.0 -0.1397913364
F  F2  1  0.00000000  0.50000000  0.51801000  1.0 -0.1397913364
F  F3  1  0.00000000  0.00000000  0.01801000  1.0 -0.1397913364
F  F4  1  0.50000000  0.00000000  0.01801000  1.0 -0.1397913364
F  F5  1  0.48795000  0.36027000  0.65839000  1.0 -0.1464819439
F  F6  1  0.51205000  0.63973000  0.65839000  1.0 -0.1464819439
F  F7  1  0.98795000  0.63973000  0.65839000  1.0 -0.1464819439
F  F8  1  0.01205000  0.36027000  0.65839000  1.0 -0.1464819439
F  F9  1  0.98795000  0.86027000  0.15839000  1.0 -0.1464819439
F  F10  1  0.01205000  0.13973000  0.15839000  1.0 -0.1464819439
F  F11  1  0.48795000  0.13973000  0.15839000  1.0 -0.1464819439
F  F12  1  0.51205000  0.86027000  0.15839000  1.0 -0.1464819439
F  F13  1  0.33714000  0.61219000  0.38479000  1.0 -0.1397913364
F  F14  1  0.66286000  0.38781000  0.38479000  1.0 -0.1397913364
F  F15  1  0.83714000  0.38781000  0.38479000  1.0 -0.1397913364
F  F16  1  0.16286000  0.61219000  0.38479000  1.0 -0.1397913364
F  F17  1  0.83714000  0.11219000  0.88479000  1.0 -0.1397913364
F  F18  1  0.16286000  0.88781000  0.88479000  1.0 -0.1397913364
F  F19  1  0.33714000  0.88781000  0.88479000  1.0 -0.1397913364
F  F20  1  0.66286000  0.11219000  0.88479000  1.0 -0.1397913364
F  F21  1  0.36052000  0.73884000  0.24179000  1.0 -0.1397913364
F  F22  1  0.63948000  0.26116000  0.24179000  1.0 -0.1397913364
F  F23  1  0.86052000  0.26116000  0.24179000  1.0 -0.1397913364
F  F24  1  0.13948000  0.73884000  0.24179000  1.0 -0.1397913364
F  F25  1  0.86052000  0.23884000  0.74179000  1.0 -0.1397913364
F  F26  1  0.13948000  0.76116000  0.74179000  1.0 -0.1397913364
F  F27  1  0.36052000  0.76116000  0.74179000  1.0 -0.1397913364
F  F28  1  0.63948000  0.23884000  0.74179000  1.0 -0.1397913364
F  F29  1  0.36067000  0.45654000  0.25240000  1.0 -0.1343730205
F  F30  1  0.63933000  0.54346000  0.25240000  1.0 -0.1343730205
F  F31  1  0.86067000  0.54346000  0.25240000  1.0 -0.1343730205
F  F32  1  0.13933000  0.45654000  0.25240000  1.0 -0.1343730205
F  F33  1  0.86067000  0.95654000  0.75240000  1.0 -0.1343730205
F  F34  1  0.13933000  0.04346000  0.75240000  1.0 -0.1343730205
F  F35  1  0.36067000  0.04346000  0.75240000  1.0 -0.1343730205
F  F36  1  0.63933000  0.95654000  0.75240000  1.0 -0.1343730205
