# DDEC6 charges by PACMAN v1.1 (https://github.com/mtap-research/PACMAN-charge/)
data_2015[Zn][ith]3[FSR]4
_chemical_formula_sum              "Zn24 H444 C450 O78"
_cell_length_a       29.8116
_cell_length_b       29.8116
_cell_length_c       29.8116
_cell_angle_alpha    90
_cell_angle_beta     90
_cell_angle_gamma    90

_symmetry_space_group_name_H-M    "P 1"
_symmetry_Int_Tables_number       1

loop_
  _symmetry_equiv_pos_as_xyz
  'x, y, z'

loop_
  _atom_site_type_symbol
  _atom_site_label
  _atom_site_symmetry_multiplicity
  _atom_site_fract_x
  _atom_site_fract_y
  _atom_site_fract_z
  _atom_site_occupancy
  _atom_site_charge
Zn  Zn1       1.0  0.44648  0.32283  0.00000  1.0000 0.9434283224
Zn  Zn2       1.0  0.55352  0.67717  0.00000  1.0000 0.9434283224
Zn  Zn3       1.0  0.55352  0.32283  0.00000  1.0000 0.9434283224
Zn  Zn4       1.0  0.44648  0.67717  0.00000  1.0000 0.9434283224
Zn  Zn5       1.0  0.00000  0.44648  0.32283  1.0000 0.9434283224
Zn  Zn6       1.0  0.00000  0.55352  0.67717  1.0000 0.9434283224
Zn  Zn7       1.0  0.00000  0.55352  0.32283  1.0000 0.9434283224
Zn  Zn8       1.0  0.00000  0.44648  0.67717  1.0000 0.9434283224
Zn  Zn9       1.0  0.32283  0.00000  0.44648  1.0000 0.9434283224
Zn  Zn10      1.0  0.67717  0.00000  0.55352  1.0000 0.9434283224
Zn  Zn11      1.0  0.32283  0.00000  0.55352  1.0000 0.9434283224
Zn  Zn12      1.0  0.67717  0.00000  0.44648  1.0000 0.9434283224
Zn  Zn13      1.0  0.50000  0.24863  0.05292  1.0000 0.9464408604
Zn  Zn14      1.0  0.50000  0.75137  0.05292  1.0000 0.9464408604
Zn  Zn15      1.0  0.50000  0.24863  0.94708  1.0000 0.9464408604
Zn  Zn16      1.0  0.50000  0.75137  0.94708  1.0000 0.9464408604
Zn  Zn17      1.0  0.05292  0.50000  0.24863  1.0000 0.9464408604
Zn  Zn18      1.0  0.05292  0.50000  0.75137  1.0000 0.9464408604
Zn  Zn19      1.0  0.94708  0.50000  0.24863  1.0000 0.9464408604
Zn  Zn20      1.0  0.94708  0.50000  0.75137  1.0000 0.9464408604
Zn  Zn21      1.0  0.24863  0.05292  0.50000  1.0000 0.9464408604
Zn  Zn22      1.0  0.75137  0.05292  0.50000  1.0000 0.9464408604
Zn  Zn23      1.0  0.24863  0.94708  0.50000  1.0000 0.9464408604
Zn  Zn24      1.0  0.75137  0.94708  0.50000  1.0000 0.9464408604
H   H1        1.0  0.43310  0.46150  0.00000  1.0000 0.1257300449
H   H2        1.0  0.56690  0.53850  0.00000  1.0000 0.1257300449
H   H3        1.0  0.56690  0.46150  0.00000  1.0000 0.1257300449
H   H4        1.0  0.43310  0.53850  0.00000  1.0000 0.1257300449
H   H5        1.0  0.00000  0.43310  0.46150  1.0000 0.1257300449
H   H6        1.0  0.00000  0.56690  0.53850  1.0000 0.1257300449
H   H7        1.0  0.00000  0.56690  0.46150  1.0000 0.1257300449
H   H8        1.0  0.00000  0.43310  0.53850  1.0000 0.1257300449
H   H9        1.0  0.46150  0.00000  0.43310  1.0000 0.1257300449
H   H10       1.0  0.53850  0.00000  0.56690  1.0000 0.1257300449
H   H11       1.0  0.46150  0.00000  0.56690  1.0000 0.1257300449
H   H12       1.0  0.53850  0.00000  0.43310  1.0000 0.1257300449
H   H13       1.0  0.40370  0.23290  0.15190  1.0000 0.1376298564
H   H14       1.0  0.59630  0.76710  0.15190  1.0000 0.1376298564
H   H15       1.0  0.59630  0.23290  0.84810  1.0000 0.1376298564
H   H16       1.0  0.40370  0.76710  0.84810  1.0000 0.1376298564
H   H17       1.0  0.15190  0.40370  0.23290  1.0000 0.1376298564
H   H18       1.0  0.15190  0.59630  0.76710  1.0000 0.1376298564
H   H19       1.0  0.84810  0.59630  0.23290  1.0000 0.1376298564
H   H20       1.0  0.84810  0.40370  0.76710  1.0000 0.1376298564
H   H21       1.0  0.23290  0.15190  0.40370  1.0000 0.1376298564
H   H22       1.0  0.76710  0.15190  0.59630  1.0000 0.1376298564
H   H23       1.0  0.23290  0.84810  0.59630  1.0000 0.1376298564
H   H24       1.0  0.76710  0.84810  0.40370  1.0000 0.1376298564
H   H25       1.0  0.59630  0.76710  0.84810  1.0000 0.1376298564
H   H26       1.0  0.40370  0.23290  0.84810  1.0000 0.1376298564
H   H27       1.0  0.40370  0.76710  0.15190  1.0000 0.1376298564
H   H28       1.0  0.59630  0.23290  0.15190  1.0000 0.1376298564
H   H29       1.0  0.84810  0.59630  0.76710  1.0000 0.1376298564
H   H30       1.0  0.84810  0.40370  0.23290  1.0000 0.1376298564
H   H31       1.0  0.15190  0.40370  0.76710  1.0000 0.1376298564
H   H32       1.0  0.15190  0.59630  0.23290  1.0000 0.1376298564
H   H33       1.0  0.76710  0.84810  0.59630  1.0000 0.1376298564
H   H34       1.0  0.23290  0.84810  0.40370  1.0000 0.1376298564
H   H35       1.0  0.76710  0.15190  0.40370  1.0000 0.1376298564
H   H36       1.0  0.23290  0.15190  0.59630  1.0000 0.1376298564
H   H37       1.0  0.34480  0.33930  0.09450  1.0000 0.1208707986
H   H38       1.0  0.65520  0.66070  0.09450  1.0000 0.1208707986
H   H39       1.0  0.65520  0.33930  0.90550  1.0000 0.1208707986
H   H40       1.0  0.34480  0.66070  0.90550  1.0000 0.1208707986
H   H41       1.0  0.09450  0.34480  0.33930  1.0000 0.1208707986
H   H42       1.0  0.09450  0.65520  0.66070  1.0000 0.1208707986
H   H43       1.0  0.90550  0.65520  0.33930  1.0000 0.1208707986
H   H44       1.0  0.90550  0.34480  0.66070  1.0000 0.1208707986
H   H45       1.0  0.33930  0.09450  0.34480  1.0000 0.1208707986
H   H46       1.0  0.66070  0.09450  0.65520  1.0000 0.1208707986
H   H47       1.0  0.33930  0.90550  0.65520  1.0000 0.1208707986
H   H48       1.0  0.66070  0.90550  0.34480  1.0000 0.1208707986
H   H49       1.0  0.65520  0.66070  0.90550  1.0000 0.1208707986
H   H50       1.0  0.34480  0.33930  0.90550  1.0000 0.1208707986
H   H51       1.0  0.34480  0.66070  0.09450  1.0000 0.1208707986
H   H52       1.0  0.65520  0.33930  0.09450  1.0000 0.1208707986
H   H53       1.0  0.90550  0.65520  0.66070  1.0000 0.1208707986
H   H54       1.0  0.90550  0.34480  0.33930  1.0000 0.1208707986
H   H55       1.0  0.09450  0.34480  0.66070  1.0000 0.1208707986
H   H56       1.0  0.09450  0.65520  0.33930  1.0000 0.1208707986
H   H57       1.0  0.66070  0.90550  0.65520  1.0000 0.1208707986
H   H58       1.0  0.33930  0.90550  0.34480  1.0000 0.1208707986
H   H59       1.0  0.66070  0.09450  0.34480  1.0000 0.1208707986
H   H60       1.0  0.33930  0.09450  0.65520  1.0000 0.1208707986
H   H61       1.0  0.50000  0.10910  0.06660  1.0000 0.1376298564
H   H62       1.0  0.50000  0.89090  0.06660  1.0000 0.1376298564
H   H63       1.0  0.50000  0.10910  0.93340  1.0000 0.1376298564
H   H64       1.0  0.50000  0.89090  0.93340  1.0000 0.1376298564
H   H65       1.0  0.06660  0.50000  0.10910  1.0000 0.1376298564
H   H66       1.0  0.06660  0.50000  0.89090  1.0000 0.1376298564
H   H67       1.0  0.93340  0.50000  0.10910  1.0000 0.1376298564
H   H68       1.0  0.93340  0.50000  0.89090  1.0000 0.1376298564
H   H69       1.0  0.10910  0.06660  0.50000  1.0000 0.1376298564
H   H70       1.0  0.89090  0.06660  0.50000  1.0000 0.1376298564
H   H71       1.0  0.10910  0.93340  0.50000  1.0000 0.1376298564
H   H72       1.0  0.89090  0.93340  0.50000  1.0000 0.1376298564
H   H73       1.0  0.28940  0.34000  0.14870  1.0000 0.1208707986
H   H74       1.0  0.71060  0.66000  0.14870  1.0000 0.1208707986
H   H75       1.0  0.71060  0.34000  0.85130  1.0000 0.1208707986
H   H76       1.0  0.28940  0.66000  0.85130  1.0000 0.1208707986
H   H77       1.0  0.14870  0.28940  0.34000  1.0000 0.1208707986
H   H78       1.0  0.14870  0.71060  0.66000  1.0000 0.1208707986
H   H79       1.0  0.85130  0.71060  0.34000  1.0000 0.1208707986
H   H80       1.0  0.85130  0.28940  0.66000  1.0000 0.1208707986
H   H81       1.0  0.34000  0.14870  0.28940  1.0000 0.1208707986
H   H82       1.0  0.66000  0.14870  0.71060  1.0000 0.1208707986
H   H83       1.0  0.34000  0.85130  0.71060  1.0000 0.1208707986
H   H84       1.0  0.66000  0.85130  0.28940  1.0000 0.1208707986
H   H85       1.0  0.71060  0.66000  0.85130  1.0000 0.1208707986
H   H86       1.0  0.28940  0.34000  0.85130  1.0000 0.1208707986
H   H87       1.0  0.28940  0.66000  0.14870  1.0000 0.1208707986
H   H88       1.0  0.71060  0.34000  0.14870  1.0000 0.1208707986
H   H89       1.0  0.85130  0.71060  0.66000  1.0000 0.1208707986
H   H90       1.0  0.85130  0.28940  0.34000  1.0000 0.1208707986
H   H91       1.0  0.14870  0.28940  0.66000  1.0000 0.1208707986
H   H92       1.0  0.14870  0.71060  0.34000  1.0000 0.1208707986
H   H93       1.0  0.66000  0.85130  0.71060  1.0000 0.1208707986
H   H94       1.0  0.34000  0.85130  0.28940  1.0000 0.1208707986
H   H95       1.0  0.66000  0.14870  0.28940  1.0000 0.1208707986
H   H96       1.0  0.34000  0.14870  0.71060  1.0000 0.1208707986
H   H97       1.0  0.50000  0.03290  0.06440  1.0000 0.1208707986
H   H98       1.0  0.50000  0.96710  0.06440  1.0000 0.1208707986
H   H99       1.0  0.50000  0.03290  0.93560  1.0000 0.1208707986
H   H100      1.0  0.50000  0.96710  0.93560  1.0000 0.1208707986
H   H101      1.0  0.06440  0.50000  0.03290  1.0000 0.1208707986
H   H102      1.0  0.06440  0.50000  0.96710  1.0000 0.1208707986
H   H103      1.0  0.93560  0.50000  0.03290  1.0000 0.1208707986
H   H104      1.0  0.93560  0.50000  0.96710  1.0000 0.1208707986
H   H105      1.0  0.03290  0.06440  0.50000  1.0000 0.1208707986
H   H106      1.0  0.96710  0.06440  0.50000  1.0000 0.1208707986
H   H107      1.0  0.03290  0.93560  0.50000  1.0000 0.1208707986
H   H108      1.0  0.96710  0.93560  0.50000  1.0000 0.1208707986
H   H109      1.0  0.41000  0.21580  0.23640  1.0000 0.11216774
H   H110      1.0  0.59000  0.78420  0.23640  1.0000 0.11216774
H   H111      1.0  0.59000  0.21580  0.76360  1.0000 0.11216774
H   H112      1.0  0.41000  0.78420  0.76360  1.0000 0.11216774
H   H113      1.0  0.23640  0.41000  0.21580  1.0000 0.11216774
H   H114      1.0  0.23640  0.59000  0.78420  1.0000 0.11216774
H   H115      1.0  0.76360  0.59000  0.21580  1.0000 0.11216774
H   H116      1.0  0.76360  0.41000  0.78420  1.0000 0.11216774
H   H117      1.0  0.21580  0.23640  0.41000  1.0000 0.11216774
H   H118      1.0  0.78420  0.23640  0.59000  1.0000 0.11216774
H   H119      1.0  0.21580  0.76360  0.59000  1.0000 0.11216774
H   H120      1.0  0.78420  0.76360  0.41000  1.0000 0.11216774
H   H121      1.0  0.59000  0.78420  0.76360  1.0000 0.11216774
H   H122      1.0  0.41000  0.21580  0.76360  1.0000 0.11216774
H   H123      1.0  0.41000  0.78420  0.23640  1.0000 0.11216774
H   H124      1.0  0.59000  0.21580  0.23640  1.0000 0.11216774
H   H125      1.0  0.76360  0.59000  0.78420  1.0000 0.11216774
H   H126      1.0  0.76360  0.41000  0.21580  1.0000 0.11216774
H   H127      1.0  0.23640  0.41000  0.78420  1.0000 0.11216774
H   H128      1.0  0.23640  0.59000  0.21580  1.0000 0.11216774
H   H129      1.0  0.78420  0.76360  0.59000  1.0000 0.11216774
H   H130      1.0  0.21580  0.76360  0.41000  1.0000 0.11216774
H   H131      1.0  0.78420  0.23640  0.41000  1.0000 0.11216774
H   H132      1.0  0.21580  0.23640  0.59000  1.0000 0.11216774
H   H133      1.0  0.37990  0.20320  0.27780  1.0000 0.1009761248
H   H134      1.0  0.62010  0.79680  0.27780  1.0000 0.1009761248
H   H135      1.0  0.62010  0.20320  0.72220  1.0000 0.1009761248
H   H136      1.0  0.37990  0.79680  0.72220  1.0000 0.1009761248
H   H137      1.0  0.27780  0.37990  0.20320  1.0000 0.1009761248
H   H138      1.0  0.27780  0.62010  0.79680  1.0000 0.1009761248
H   H139      1.0  0.72220  0.62010  0.20320  1.0000 0.1009761248
H   H140      1.0  0.72220  0.37990  0.79680  1.0000 0.1009761248
H   H141      1.0  0.20320  0.27780  0.37990  1.0000 0.1009761248
H   H142      1.0  0.79680  0.27780  0.62010  1.0000 0.1009761248
H   H143      1.0  0.20320  0.72220  0.62010  1.0000 0.1009761248
H   H144      1.0  0.79680  0.72220  0.37990  1.0000 0.1009761248
H   H145      1.0  0.62010  0.79680  0.72220  1.0000 0.1009761248
H   H146      1.0  0.37990  0.20320  0.72220  1.0000 0.1009761248
H   H147      1.0  0.37990  0.79680  0.27780  1.0000 0.1009761248
H   H148      1.0  0.62010  0.20320  0.27780  1.0000 0.1009761248
H   H149      1.0  0.72220  0.62010  0.79680  1.0000 0.1009761248
H   H150      1.0  0.72220  0.37990  0.20320  1.0000 0.1009761248
H   H151      1.0  0.27780  0.37990  0.79680  1.0000 0.1009761248
H   H152      1.0  0.27780  0.62010  0.20320  1.0000 0.1009761248
H   H153      1.0  0.79680  0.72220  0.62010  1.0000 0.1009761248
H   H154      1.0  0.20320  0.72220  0.37990  1.0000 0.1009761248
H   H155      1.0  0.79680  0.27780  0.37990  1.0000 0.1009761248
H   H156      1.0  0.20320  0.27780  0.62010  1.0000 0.1009761248
H   H157      1.0  0.36100  0.16590  0.18430  1.0000 0.1009761248
H   H158      1.0  0.63900  0.83410  0.18430  1.0000 0.1009761248
H   H159      1.0  0.63900  0.16590  0.81570  1.0000 0.1009761248
H   H160      1.0  0.36100  0.83410  0.81570  1.0000 0.1009761248
H   H161      1.0  0.18430  0.36100  0.16590  1.0000 0.1009761248
H   H162      1.0  0.18430  0.63900  0.83410  1.0000 0.1009761248
H   H163      1.0  0.81570  0.63900  0.16590  1.0000 0.1009761248
H   H164      1.0  0.81570  0.36100  0.83410  1.0000 0.1009761248
H   H165      1.0  0.16590  0.18430  0.36100  1.0000 0.1009761248
H   H166      1.0  0.83410  0.18430  0.63900  1.0000 0.1009761248
H   H167      1.0  0.16590  0.81570  0.63900  1.0000 0.1009761248
H   H168      1.0  0.83410  0.81570  0.36100  1.0000 0.1009761248
H   H169      1.0  0.63900  0.83410  0.81570  1.0000 0.1009761248
H   H170      1.0  0.36100  0.16590  0.81570  1.0000 0.1009761248
H   H171      1.0  0.36100  0.83410  0.18430  1.0000 0.1009761248
H   H172      1.0  0.63900  0.16590  0.18430  1.0000 0.1009761248
H   H173      1.0  0.81570  0.63900  0.83410  1.0000 0.1009761248
H   H174      1.0  0.81570  0.36100  0.16590  1.0000 0.1009761248
H   H175      1.0  0.18430  0.36100  0.83410  1.0000 0.1009761248
H   H176      1.0  0.18430  0.63900  0.16590  1.0000 0.1009761248
H   H177      1.0  0.83410  0.81570  0.63900  1.0000 0.1009761248
H   H178      1.0  0.16590  0.81570  0.36100  1.0000 0.1009761248
H   H179      1.0  0.83410  0.18430  0.36100  1.0000 0.1009761248
H   H180      1.0  0.16590  0.18430  0.63900  1.0000 0.1009761248
H   H181      1.0  0.33000  0.15260  0.22440  1.0000 0.1009761248
H   H182      1.0  0.67000  0.84740  0.22440  1.0000 0.1009761248
H   H183      1.0  0.67000  0.15260  0.77560  1.0000 0.1009761248
H   H184      1.0  0.33000  0.84740  0.77560  1.0000 0.1009761248
H   H185      1.0  0.22440  0.33000  0.15260  1.0000 0.1009761248
H   H186      1.0  0.22440  0.67000  0.84740  1.0000 0.1009761248
H   H187      1.0  0.77560  0.67000  0.15260  1.0000 0.1009761248
H   H188      1.0  0.77560  0.33000  0.84740  1.0000 0.1009761248
H   H189      1.0  0.15260  0.22440  0.33000  1.0000 0.1009761248
H   H190      1.0  0.84740  0.22440  0.67000  1.0000 0.1009761248
H   H191      1.0  0.15260  0.77560  0.67000  1.0000 0.1009761248
H   H192      1.0  0.84740  0.77560  0.33000  1.0000 0.1009761248
H   H193      1.0  0.67000  0.84740  0.77560  1.0000 0.1009761248
H   H194      1.0  0.33000  0.15260  0.77560  1.0000 0.1009761248
H   H195      1.0  0.33000  0.84740  0.22440  1.0000 0.1009761248
H   H196      1.0  0.67000  0.15260  0.22440  1.0000 0.1009761248
H   H197      1.0  0.77560  0.67000  0.84740  1.0000 0.1009761248
H   H198      1.0  0.77560  0.33000  0.15260  1.0000 0.1009761248
H   H199      1.0  0.22440  0.33000  0.84740  1.0000 0.1009761248
H   H200      1.0  0.22440  0.67000  0.15260  1.0000 0.1009761248
H   H201      1.0  0.84740  0.77560  0.67000  1.0000 0.1009761248
H   H202      1.0  0.15260  0.77560  0.33000  1.0000 0.1009761248
H   H203      1.0  0.84740  0.22440  0.33000  1.0000 0.1009761248
H   H204      1.0  0.15260  0.22440  0.67000  1.0000 0.1009761248
H   H205      1.0  0.29700  0.19290  0.14590  1.0000 0.09087869
H   H206      1.0  0.70300  0.80710  0.14590  1.0000 0.09087869
H   H207      1.0  0.70300  0.19290  0.85410  1.0000 0.09087869
H   H208      1.0  0.29700  0.80710  0.85410  1.0000 0.09087869
H   H209      1.0  0.14590  0.29700  0.19290  1.0000 0.09087869
H   H210      1.0  0.14590  0.70300  0.80710  1.0000 0.09087869
H   H211      1.0  0.85410  0.70300  0.19290  1.0000 0.09087869
H   H212      1.0  0.85410  0.29700  0.80710  1.0000 0.09087869
H   H213      1.0  0.19290  0.14590  0.29700  1.0000 0.09087869
H   H214      1.0  0.80710  0.14590  0.70300  1.0000 0.09087869
H   H215      1.0  0.19290  0.85410  0.70300  1.0000 0.09087869
H   H216      1.0  0.80710  0.85410  0.29700  1.0000 0.09087869
H   H217      1.0  0.70300  0.80710  0.85410  1.0000 0.09087869
H   H218      1.0  0.29700  0.19290  0.85410  1.0000 0.09087869
H   H219      1.0  0.29700  0.80710  0.14590  1.0000 0.09087869
H   H220      1.0  0.70300  0.19290  0.14590  1.0000 0.09087869
H   H221      1.0  0.85410  0.70300  0.80710  1.0000 0.09087869
H   H222      1.0  0.85410  0.29700  0.19290  1.0000 0.09087869
H   H223      1.0  0.14590  0.29700  0.80710  1.0000 0.09087869
H   H224      1.0  0.14590  0.70300  0.19290  1.0000 0.09087869
H   H225      1.0  0.80710  0.85410  0.70300  1.0000 0.09087869
H   H226      1.0  0.19290  0.85410  0.29700  1.0000 0.09087869
H   H227      1.0  0.80710  0.14590  0.29700  1.0000 0.09087869
H   H228      1.0  0.19290  0.14590  0.70300  1.0000 0.09087869
H   H229      1.0  0.26720  0.17490  0.18520  1.0000 0.09087869
H   H230      1.0  0.73280  0.82510  0.18520  1.0000 0.09087869
H   H231      1.0  0.73280  0.17490  0.81480  1.0000 0.09087869
H   H232      1.0  0.26720  0.82510  0.81480  1.0000 0.09087869
H   H233      1.0  0.18520  0.26720  0.17490  1.0000 0.09087869
H   H234      1.0  0.18520  0.73280  0.82510  1.0000 0.09087869
H   H235      1.0  0.81480  0.73280  0.17490  1.0000 0.09087869
H   H236      1.0  0.81480  0.26720  0.82510  1.0000 0.09087869
H   H237      1.0  0.17490  0.18520  0.26720  1.0000 0.09087869
H   H238      1.0  0.82510  0.18520  0.73280  1.0000 0.09087869
H   H239      1.0  0.17490  0.81480  0.73280  1.0000 0.09087869
H   H240      1.0  0.82510  0.81480  0.26720  1.0000 0.09087869
H   H241      1.0  0.73280  0.82510  0.81480  1.0000 0.09087869
H   H242      1.0  0.26720  0.17490  0.81480  1.0000 0.09087869
H   H243      1.0  0.26720  0.82510  0.18520  1.0000 0.09087869
H   H244      1.0  0.73280  0.17490  0.18520  1.0000 0.09087869
H   H245      1.0  0.81480  0.73280  0.82510  1.0000 0.09087869
H   H246      1.0  0.81480  0.26720  0.17490  1.0000 0.09087869
H   H247      1.0  0.18520  0.26720  0.82510  1.0000 0.09087869
H   H248      1.0  0.18520  0.73280  0.17490  1.0000 0.09087869
H   H249      1.0  0.82510  0.81480  0.73280  1.0000 0.09087869
H   H250      1.0  0.17490  0.81480  0.26720  1.0000 0.09087869
H   H251      1.0  0.82510  0.18520  0.26720  1.0000 0.09087869
H   H252      1.0  0.17490  0.18520  0.73280  1.0000 0.09087869
H   H253      1.0  0.26430  0.12240  0.12450  1.0000 0.0795893438
H   H254      1.0  0.73570  0.87760  0.12450  1.0000 0.0795893438
H   H255      1.0  0.73570  0.12240  0.87550  1.0000 0.0795893438
H   H256      1.0  0.26430  0.87760  0.87550  1.0000 0.0795893438
H   H257      1.0  0.12450  0.26430  0.12240  1.0000 0.0795893438
H   H258      1.0  0.12450  0.73570  0.87760  1.0000 0.0795893438
H   H259      1.0  0.87550  0.73570  0.12240  1.0000 0.0795893438
H   H260      1.0  0.87550  0.26430  0.87760  1.0000 0.0795893438
H   H261      1.0  0.12240  0.12450  0.26430  1.0000 0.0795893438
H   H262      1.0  0.87760  0.12450  0.73570  1.0000 0.0795893438
H   H263      1.0  0.12240  0.87550  0.73570  1.0000 0.0795893438
H   H264      1.0  0.87760  0.87550  0.26430  1.0000 0.0795893438
H   H265      1.0  0.73570  0.87760  0.87550  1.0000 0.0795893438
H   H266      1.0  0.26430  0.12240  0.87550  1.0000 0.0795893438
H   H267      1.0  0.26430  0.87760  0.12450  1.0000 0.0795893438
H   H268      1.0  0.73570  0.12240  0.12450  1.0000 0.0795893438
H   H269      1.0  0.87550  0.73570  0.87760  1.0000 0.0795893438
H   H270      1.0  0.87550  0.26430  0.12240  1.0000 0.0795893438
H   H271      1.0  0.12450  0.26430  0.87760  1.0000 0.0795893438
H   H272      1.0  0.12450  0.73570  0.12240  1.0000 0.0795893438
H   H273      1.0  0.87760  0.87550  0.73570  1.0000 0.0795893438
H   H274      1.0  0.12240  0.87550  0.26430  1.0000 0.0795893438
H   H275      1.0  0.87760  0.12450  0.26430  1.0000 0.0795893438
H   H276      1.0  0.12240  0.12450  0.73570  1.0000 0.0795893438
H   H277      1.0  0.28750  0.09880  0.16540  1.0000 0.0795893438
H   H278      1.0  0.71250  0.90120  0.16540  1.0000 0.0795893438
H   H279      1.0  0.71250  0.09880  0.83460  1.0000 0.0795893438
H   H280      1.0  0.28750  0.90120  0.83460  1.0000 0.0795893438
H   H281      1.0  0.16540  0.28750  0.09880  1.0000 0.0795893438
H   H282      1.0  0.16540  0.71250  0.90120  1.0000 0.0795893438
H   H283      1.0  0.83460  0.71250  0.09880  1.0000 0.0795893438
H   H284      1.0  0.83460  0.28750  0.90120  1.0000 0.0795893438
H   H285      1.0  0.09880  0.16540  0.28750  1.0000 0.0795893438
H   H286      1.0  0.90120  0.16540  0.71250  1.0000 0.0795893438
H   H287      1.0  0.09880  0.83460  0.71250  1.0000 0.0795893438
H   H288      1.0  0.90120  0.83460  0.28750  1.0000 0.0795893438
H   H289      1.0  0.71250  0.90120  0.83460  1.0000 0.0795893438
H   H290      1.0  0.28750  0.09880  0.83460  1.0000 0.0795893438
H   H291      1.0  0.28750  0.90120  0.16540  1.0000 0.0795893438
H   H292      1.0  0.71250  0.09880  0.16540  1.0000 0.0795893438
H   H293      1.0  0.83460  0.71250  0.90120  1.0000 0.0795893438
H   H294      1.0  0.83460  0.28750  0.09880  1.0000 0.0795893438
H   H295      1.0  0.16540  0.28750  0.90120  1.0000 0.0795893438
H   H296      1.0  0.16540  0.71250  0.09880  1.0000 0.0795893438
H   H297      1.0  0.90120  0.83460  0.71250  1.0000 0.0795893438
H   H298      1.0  0.09880  0.83460  0.28750  1.0000 0.0795893438
H   H299      1.0  0.90120  0.16540  0.28750  1.0000 0.0795893438
H   H300      1.0  0.09880  0.16540  0.71250  1.0000 0.0795893438
H   H301      1.0  0.31660  0.11710  0.12560  1.0000 0.0744115335
H   H302      1.0  0.68340  0.88290  0.12560  1.0000 0.0795893438
H   H303      1.0  0.68340  0.11710  0.87440  1.0000 0.0795893438
H   H304      1.0  0.31660  0.88290  0.87440  1.0000 0.0795893438
H   H305      1.0  0.12560  0.31660  0.11710  1.0000 0.0744115335
H   H306      1.0  0.12560  0.68340  0.88290  1.0000 0.0795893438
H   H307      1.0  0.87440  0.68340  0.11710  1.0000 0.0795893438
H   H308      1.0  0.87440  0.31660  0.88290  1.0000 0.0795893438
H   H309      1.0  0.11710  0.12560  0.31660  1.0000 0.0744115335
H   H310      1.0  0.88290  0.12560  0.68340  1.0000 0.0795893438
H   H311      1.0  0.11710  0.87440  0.68340  1.0000 0.0744115335
H   H312      1.0  0.88290  0.87440  0.31660  1.0000 0.0795893438
H   H313      1.0  0.68340  0.88290  0.87440  1.0000 0.0795893438
H   H314      1.0  0.31660  0.11710  0.87440  1.0000 0.0795893438
H   H315      1.0  0.31660  0.88290  0.12560  1.0000 0.0744115335
H   H316      1.0  0.68340  0.11710  0.12560  1.0000 0.0795893438
H   H317      1.0  0.87440  0.68340  0.88290  1.0000 0.0795893438
H   H318      1.0  0.87440  0.31660  0.11710  1.0000 0.0795893438
H   H319      1.0  0.12560  0.31660  0.88290  1.0000 0.0795893438
H   H320      1.0  0.12560  0.68340  0.11710  1.0000 0.0744115335
H   H321      1.0  0.88290  0.87440  0.68340  1.0000 0.0795893438
H   H322      1.0  0.11710  0.87440  0.31660  1.0000 0.0744115335
H   H323      1.0  0.88290  0.12560  0.31660  1.0000 0.0795893438
H   H324      1.0  0.11710  0.12560  0.68340  1.0000 0.0795893438
H   H325      1.0  0.39350  0.29810  0.24880  1.0000 0.1009761248
H   H326      1.0  0.60650  0.70190  0.24880  1.0000 0.1009761248
H   H327      1.0  0.60650  0.29810  0.75120  1.0000 0.1009761248
H   H328      1.0  0.39350  0.70190  0.75120  1.0000 0.1009761248
H   H329      1.0  0.24880  0.39350  0.29810  1.0000 0.1009761248
H   H330      1.0  0.24880  0.60650  0.70190  1.0000 0.1009761248
H   H331      1.0  0.75120  0.60650  0.29810  1.0000 0.1009761248
H   H332      1.0  0.75120  0.39350  0.70190  1.0000 0.1009761248
H   H333      1.0  0.29810  0.24880  0.39350  1.0000 0.1009761248
H   H334      1.0  0.70190  0.24880  0.60650  1.0000 0.1009761248
H   H335      1.0  0.29810  0.75120  0.60650  1.0000 0.1009761248
H   H336      1.0  0.70190  0.75120  0.39350  1.0000 0.1009761248
H   H337      1.0  0.60650  0.70190  0.75120  1.0000 0.1009761248
H   H338      1.0  0.39350  0.29810  0.75120  1.0000 0.1009761248
H   H339      1.0  0.39350  0.70190  0.24880  1.0000 0.1009761248
H   H340      1.0  0.60650  0.29810  0.24880  1.0000 0.1009761248
H   H341      1.0  0.75120  0.60650  0.70190  1.0000 0.1009761248
H   H342      1.0  0.75120  0.39350  0.29810  1.0000 0.1009761248
H   H343      1.0  0.24880  0.39350  0.70190  1.0000 0.1009761248
H   H344      1.0  0.24880  0.60650  0.29810  1.0000 0.1009761248
H   H345      1.0  0.70190  0.75120  0.60650  1.0000 0.1009761248
H   H346      1.0  0.29810  0.75120  0.39350  1.0000 0.1009761248
H   H347      1.0  0.70190  0.24880  0.39350  1.0000 0.1009761248
H   H348      1.0  0.29810  0.24880  0.60650  1.0000 0.1009761248
H   H349      1.0  0.36230  0.28570  0.29010  1.0000 0.09087869
H   H350      1.0  0.63770  0.71430  0.29010  1.0000 0.09087869
H   H351      1.0  0.63770  0.28570  0.70990  1.0000 0.09087869
H   H352      1.0  0.36230  0.71430  0.70990  1.0000 0.09087869
H   H353      1.0  0.29010  0.36230  0.28570  1.0000 0.09087869
H   H354      1.0  0.29010  0.63770  0.71430  1.0000 0.09087869
H   H355      1.0  0.70990  0.63770  0.28570  1.0000 0.09087869
H   H356      1.0  0.70990  0.36230  0.71430  1.0000 0.09087869
H   H357      1.0  0.28570  0.29010  0.36230  1.0000 0.09087869
H   H358      1.0  0.71430  0.29010  0.63770  1.0000 0.09087869
H   H359      1.0  0.28570  0.70990  0.63770  1.0000 0.09087869
H   H360      1.0  0.71430  0.70990  0.36230  1.0000 0.09087869
H   H361      1.0  0.63770  0.71430  0.70990  1.0000 0.09087869
H   H362      1.0  0.36230  0.28570  0.70990  1.0000 0.09087869
H   H363      1.0  0.36230  0.71430  0.29010  1.0000 0.09087869
H   H364      1.0  0.63770  0.28570  0.29010  1.0000 0.09087869
H   H365      1.0  0.70990  0.63770  0.71430  1.0000 0.09087869
H   H366      1.0  0.70990  0.36230  0.28570  1.0000 0.09087869
H   H367      1.0  0.29010  0.36230  0.71430  1.0000 0.09087869
H   H368      1.0  0.29010  0.63770  0.28570  1.0000 0.09087869
H   H369      1.0  0.71430  0.70990  0.63770  1.0000 0.09087869
H   H370      1.0  0.28570  0.70990  0.36230  1.0000 0.09087869
H   H371      1.0  0.71430  0.29010  0.36230  1.0000 0.09087869
H   H372      1.0  0.28570  0.29010  0.63770  1.0000 0.09087869
H   H373      1.0  0.43790  0.29820  0.31710  1.0000 0.11216774
H   H374      1.0  0.56210  0.70180  0.31710  1.0000 0.11216774
H   H375      1.0  0.56210  0.29820  0.68290  1.0000 0.11216774
H   H376      1.0  0.43790  0.70180  0.68290  1.0000 0.11216774
H   H377      1.0  0.31710  0.43790  0.29820  1.0000 0.11216774
H   H378      1.0  0.31710  0.56210  0.70180  1.0000 0.11216774
H   H379      1.0  0.68290  0.56210  0.29820  1.0000 0.11216774
H   H380      1.0  0.68290  0.43790  0.70180  1.0000 0.11216774
H   H381      1.0  0.29820  0.31710  0.43790  1.0000 0.11216774
H   H382      1.0  0.70180  0.31710  0.56210  1.0000 0.11216774
H   H383      1.0  0.29820  0.68290  0.56210  1.0000 0.11216774
H   H384      1.0  0.70180  0.68290  0.43790  1.0000 0.11216774
H   H385      1.0  0.56210  0.70180  0.68290  1.0000 0.11216774
H   H386      1.0  0.43790  0.29820  0.68290  1.0000 0.11216774
H   H387      1.0  0.43790  0.70180  0.31710  1.0000 0.11216774
H   H388      1.0  0.56210  0.29820  0.31710  1.0000 0.11216774
H   H389      1.0  0.68290  0.56210  0.70180  1.0000 0.11216774
H   H390      1.0  0.68290  0.43790  0.29820  1.0000 0.11216774
H   H391      1.0  0.31710  0.43790  0.70180  1.0000 0.11216774
H   H392      1.0  0.31710  0.56210  0.29820  1.0000 0.11216774
H   H393      1.0  0.70180  0.68290  0.56210  1.0000 0.11216774
H   H394      1.0  0.29820  0.68290  0.43790  1.0000 0.11216774
H   H395      1.0  0.70180  0.31710  0.43790  1.0000 0.11216774
H   H396      1.0  0.29820  0.31710  0.56210  1.0000 0.11216774
H   H397      1.0  0.45540  0.26090  0.28450  1.0000 0.1009761248
H   H398      1.0  0.54460  0.73910  0.28450  1.0000 0.1009761248
H   H399      1.0  0.54460  0.26090  0.71550  1.0000 0.1009761248
H   H400      1.0  0.45540  0.73910  0.71550  1.0000 0.1009761248
H   H401      1.0  0.28450  0.45540  0.26090  1.0000 0.1009761248
H   H402      1.0  0.28450  0.54460  0.73910  1.0000 0.1009761248
H   H403      1.0  0.71550  0.54460  0.26090  1.0000 0.1009761248
H   H404      1.0  0.71550  0.45540  0.73910  1.0000 0.1009761248
H   H405      1.0  0.26090  0.28450  0.45540  1.0000 0.1009761248
H   H406      1.0  0.73910  0.28450  0.54460  1.0000 0.1009761248
H   H407      1.0  0.26090  0.71550  0.54460  1.0000 0.1009761248
H   H408      1.0  0.73910  0.71550  0.45540  1.0000 0.1009761248
H   H409      1.0  0.54460  0.73910  0.71550  1.0000 0.1009761248
H   H410      1.0  0.45540  0.26090  0.71550  1.0000 0.1009761248
H   H411      1.0  0.45540  0.73910  0.28450  1.0000 0.1009761248
H   H412      1.0  0.54460  0.26090  0.28450  1.0000 0.1009761248
H   H413      1.0  0.71550  0.54460  0.73910  1.0000 0.1009761248
H   H414      1.0  0.71550  0.45540  0.26090  1.0000 0.1009761248
H   H415      1.0  0.28450  0.45540  0.73910  1.0000 0.1009761248
H   H416      1.0  0.28450  0.54460  0.26090  1.0000 0.1009761248
H   H417      1.0  0.73910  0.71550  0.54460  1.0000 0.1009761248
H   H418      1.0  0.26090  0.71550  0.45540  1.0000 0.1009761248
H   H419      1.0  0.73910  0.28450  0.45540  1.0000 0.1009761248
H   H420      1.0  0.26090  0.28450  0.54460  1.0000 0.1009761248
H   H421      1.0  0.42470  0.24800  0.32510  1.0000 0.11216774
H   H422      1.0  0.57530  0.75200  0.32510  1.0000 0.11216774
H   H423      1.0  0.57530  0.24800  0.67490  1.0000 0.11216774
H   H424      1.0  0.42470  0.75200  0.67490  1.0000 0.11216774
H   H425      1.0  0.32510  0.42470  0.24800  1.0000 0.11216774
H   H426      1.0  0.32510  0.57530  0.75200  1.0000 0.11216774
H   H427      1.0  0.67490  0.57530  0.24800  1.0000 0.11216774
H   H428      1.0  0.67490  0.42470  0.75200  1.0000 0.11216774
H   H429      1.0  0.24800  0.32510  0.42470  1.0000 0.11216774
H   H430      1.0  0.75200  0.32510  0.57530  1.0000 0.11216774
H   H431      1.0  0.24800  0.67490  0.57530  1.0000 0.11216774
H   H432      1.0  0.75200  0.67490  0.42470  1.0000 0.11216774
H   H433      1.0  0.57530  0.75200  0.67490  1.0000 0.11216774
H   H434      1.0  0.42470  0.24800  0.67490  1.0000 0.11216774
H   H435      1.0  0.42470  0.75200  0.32510  1.0000 0.11216774
H   H436      1.0  0.57530  0.24800  0.32510  1.0000 0.11216774
H   H437      1.0  0.67490  0.57530  0.75200  1.0000 0.11216774
H   H438      1.0  0.67490  0.42470  0.24800  1.0000 0.11216774
H   H439      1.0  0.32510  0.42470  0.75200  1.0000 0.11216774
H   H440      1.0  0.32510  0.57530  0.24800  1.0000 0.11216774
H   H441      1.0  0.75200  0.67490  0.57530  1.0000 0.11216774
H   H442      1.0  0.24800  0.67490  0.42470  1.0000 0.11216774
H   H443      1.0  0.75200  0.32510  0.42470  1.0000 0.11216774
H   H444      1.0  0.24800  0.32510  0.57530  1.0000 0.11216774
C   C1        1.0  0.50000  0.40430  0.00000  1.0000 0.6019966252
C   C2        1.0  0.50000  0.59570  0.00000  1.0000 0.6019966252
C   C3        1.0  0.00000  0.50000  0.40430  1.0000 0.6019966252
C   C4        1.0  0.00000  0.50000  0.59570  1.0000 0.6019966252
C   C5        1.0  0.40430  0.00000  0.50000  1.0000 0.6019966252
C   C6        1.0  0.59570  0.00000  0.50000  1.0000 0.6019966252
C   C7        1.0  0.50000  0.45320  0.00000  1.0000 -0.0772597797
C   C8        1.0  0.50000  0.54680  0.00000  1.0000 -0.0772597797
C   C9        1.0  0.00000  0.50000  0.45320  1.0000 -0.0772597797
C   C10       1.0  0.00000  0.50000  0.54680  1.0000 -0.0772597797
C   C11       1.0  0.45320  0.00000  0.50000  1.0000 -0.0772597797
C   C12       1.0  0.54680  0.00000  0.50000  1.0000 -0.0772597797
C   C13       1.0  0.41513  0.28644  0.08347  1.0000 0.6019966252
C   C14       1.0  0.58487  0.71356  0.08347  1.0000 0.6019966252
C   C15       1.0  0.58487  0.28644  0.91653  1.0000 0.6019966252
C   C16       1.0  0.41513  0.71356  0.91653  1.0000 0.6019966252
C   C17       1.0  0.08347  0.41513  0.28644  1.0000 0.6019966252
C   C18       1.0  0.08347  0.58487  0.71356  1.0000 0.6019966252
C   C19       1.0  0.91653  0.58487  0.28644  1.0000 0.6019966252
C   C20       1.0  0.91653  0.41513  0.71356  1.0000 0.6019966252
C   C21       1.0  0.28644  0.08347  0.41513  1.0000 0.6019966252
C   C22       1.0  0.71356  0.08347  0.58487  1.0000 0.6019966252
C   C23       1.0  0.28644  0.91653  0.58487  1.0000 0.6019966252
C   C24       1.0  0.71356  0.91653  0.41513  1.0000 0.6019966252
C   C25       1.0  0.58487  0.71356  0.91653  1.0000 0.6019966252
C   C26       1.0  0.41513  0.28644  0.91653  1.0000 0.6019966252
C   C27       1.0  0.41513  0.71356  0.08347  1.0000 0.6019966252
C   C28       1.0  0.58487  0.28644  0.08347  1.0000 0.6019966252
C   C29       1.0  0.91653  0.58487  0.71356  1.0000 0.6019966252
C   C30       1.0  0.91653  0.41513  0.28644  1.0000 0.6019966252
C   C31       1.0  0.08347  0.41513  0.71356  1.0000 0.6019966252
C   C32       1.0  0.08347  0.58487  0.28644  1.0000 0.6019966252
C   C33       1.0  0.71356  0.91653  0.58487  1.0000 0.6019966252
C   C34       1.0  0.28644  0.91653  0.41513  1.0000 0.6019966252
C   C35       1.0  0.71356  0.08347  0.41513  1.0000 0.6019966252
C   C36       1.0  0.28644  0.08347  0.58487  1.0000 0.6019966252
C   C37       1.0  0.50000  0.16770  0.00000  1.0000 0.6074544338
C   C38       1.0  0.50000  0.83230  0.00000  1.0000 0.6074544338
C   C39       1.0  0.00000  0.50000  0.16770  1.0000 0.6074544338
C   C40       1.0  0.00000  0.50000  0.83230  1.0000 0.6074544338
C   C41       1.0  0.16770  0.00000  0.50000  1.0000 0.6074544338
C   C42       1.0  0.83230  0.00000  0.50000  1.0000 0.6074544338
C   C43       1.0  0.31260  0.28590  0.18230  1.0000 0.0476316174
C   C44       1.0  0.68740  0.71410  0.18230  1.0000 0.0476316174
C   C45       1.0  0.68740  0.28590  0.81770  1.0000 0.0476316174
C   C46       1.0  0.31260  0.71410  0.81770  1.0000 0.0476316174
C   C47       1.0  0.18230  0.31260  0.28590  1.0000 0.0476316174
C   C48       1.0  0.18230  0.68740  0.71410  1.0000 0.0476316174
C   C49       1.0  0.81770  0.68740  0.28590  1.0000 0.0476316174
C   C50       1.0  0.81770  0.31260  0.71410  1.0000 0.0476316174
C   C51       1.0  0.28590  0.18230  0.31260  1.0000 0.0476316174
C   C52       1.0  0.71410  0.18230  0.68740  1.0000 0.0476316174
C   C53       1.0  0.28590  0.81770  0.68740  1.0000 0.0476316174
C   C54       1.0  0.71410  0.81770  0.31260  1.0000 0.0476316174
C   C55       1.0  0.68740  0.71410  0.81770  1.0000 0.0476316174
C   C56       1.0  0.31260  0.28590  0.81770  1.0000 0.0476316174
C   C57       1.0  0.31260  0.71410  0.18230  1.0000 0.0476316174
C   C58       1.0  0.68740  0.28590  0.18230  1.0000 0.0476316174
C   C59       1.0  0.81770  0.68740  0.71410  1.0000 0.0476316174
C   C60       1.0  0.81770  0.31260  0.28590  1.0000 0.0476316174
C   C61       1.0  0.18230  0.31260  0.71410  1.0000 0.0476316174
C   C62       1.0  0.18230  0.68740  0.28590  1.0000 0.0476316174
C   C63       1.0  0.71410  0.81770  0.68740  1.0000 0.0476316174
C   C64       1.0  0.28590  0.81770  0.31260  1.0000 0.0476316174
C   C65       1.0  0.71410  0.18230  0.31260  1.0000 0.0476316174
C   C66       1.0  0.28590  0.18230  0.68740  1.0000 0.0476316174
C   C67       1.0  0.46030  0.47690  0.00000  1.0000 -0.0772597797
C   C68       1.0  0.53970  0.52310  0.00000  1.0000 -0.0772597797
C   C69       1.0  0.53970  0.47690  0.00000  1.0000 -0.0772597797
C   C70       1.0  0.46030  0.52310  0.00000  1.0000 -0.0772597797
C   C71       1.0  0.00000  0.46030  0.47690  1.0000 -0.0772597797
C   C72       1.0  0.00000  0.53970  0.52310  1.0000 -0.0772597797
C   C73       1.0  0.00000  0.53970  0.47690  1.0000 -0.0772597797
C   C74       1.0  0.00000  0.46030  0.52310  1.0000 -0.0772597797
C   C75       1.0  0.47690  0.00000  0.46030  1.0000 -0.0772597797
C   C76       1.0  0.52310  0.00000  0.53970  1.0000 -0.0772597797
C   C77       1.0  0.47690  0.00000  0.53970  1.0000 -0.0772597797
C   C78       1.0  0.52310  0.00000  0.46030  1.0000 -0.0772597797
C   C79       1.0  0.34550  0.25390  0.18440  1.0000 -0.0012939463
C   C80       1.0  0.65450  0.74610  0.18440  1.0000 -0.0012939463
C   C81       1.0  0.65450  0.25390  0.81560  1.0000 -0.0012939463
C   C82       1.0  0.34550  0.74610  0.81560  1.0000 -0.0012939463
C   C83       1.0  0.18440  0.34550  0.25390  1.0000 -0.0012939463
C   C84       1.0  0.18440  0.65450  0.74610  1.0000 -0.0012939463
C   C85       1.0  0.81560  0.65450  0.25390  1.0000 -0.0012939463
C   C86       1.0  0.81560  0.34550  0.74610  1.0000 -0.0012939463
C   C87       1.0  0.25390  0.18440  0.34550  1.0000 -0.0012939463
C   C88       1.0  0.74610  0.18440  0.65450  1.0000 -0.0012939463
C   C89       1.0  0.25390  0.81560  0.65450  1.0000 -0.0012939463
C   C90       1.0  0.74610  0.81560  0.34550  1.0000 -0.0012939463
C   C91       1.0  0.65450  0.74610  0.81560  1.0000 -0.0012939463
C   C92       1.0  0.34550  0.25390  0.81560  1.0000 -0.0012939463
C   C93       1.0  0.34550  0.74610  0.18440  1.0000 -0.0012939463
C   C94       1.0  0.65450  0.25390  0.18440  1.0000 -0.0012939463
C   C95       1.0  0.81560  0.65450  0.74610  1.0000 -0.0012939463
C   C96       1.0  0.81560  0.34550  0.25390  1.0000 -0.0012939463
C   C97       1.0  0.18440  0.34550  0.74610  1.0000 -0.0012939463
C   C98       1.0  0.18440  0.65450  0.25390  1.0000 -0.0012939463
C   C99       1.0  0.74610  0.81560  0.65450  1.0000 -0.0012939463
C   C100      1.0  0.25390  0.81560  0.34550  1.0000 -0.0012939463
C   C101      1.0  0.74610  0.18440  0.34550  1.0000 -0.0012939463
C   C102      1.0  0.25390  0.18440  0.65450  1.0000 -0.0012939463
C   C103      1.0  0.50000  0.11770  0.00000  1.0000 -0.0589360566
C   C104      1.0  0.50000  0.88230  0.00000  1.0000 -0.0589360566
C   C105      1.0  0.00000  0.50000  0.11770  1.0000 -0.0589360566
C   C106      1.0  0.00000  0.50000  0.88230  1.0000 -0.0589360566
C   C107      1.0  0.11770  0.00000  0.50000  1.0000 -0.0589360566
C   C108      1.0  0.88230  0.00000  0.50000  1.0000 -0.0589360566
C   C109      1.0  0.38070  0.25400  0.15110  1.0000 -0.139889695
C   C110      1.0  0.61930  0.74600  0.15110  1.0000 -0.139889695
C   C111      1.0  0.61930  0.25400  0.84890  1.0000 -0.139889695
C   C112      1.0  0.38070  0.74600  0.84890  1.0000 -0.139889695
C   C113      1.0  0.15110  0.38070  0.25400  1.0000 -0.139889695
C   C114      1.0  0.15110  0.61930  0.74600  1.0000 -0.139889695
C   C115      1.0  0.84890  0.61930  0.25400  1.0000 -0.139889695
C   C116      1.0  0.84890  0.38070  0.74600  1.0000 -0.139889695
C   C117      1.0  0.25400  0.15110  0.38070  1.0000 -0.139889695
C   C118      1.0  0.74600  0.15110  0.61930  1.0000 -0.139889695
C   C119      1.0  0.25400  0.84890  0.61930  1.0000 -0.139889695
C   C120      1.0  0.74600  0.84890  0.38070  1.0000 -0.139889695
C   C121      1.0  0.61930  0.74600  0.84890  1.0000 -0.139889695
C   C122      1.0  0.38070  0.25400  0.84890  1.0000 -0.139889695
C   C123      1.0  0.38070  0.74600  0.15110  1.0000 -0.139889695
C   C124      1.0  0.61930  0.25400  0.15110  1.0000 -0.139889695
C   C125      1.0  0.84890  0.61930  0.74600  1.0000 -0.139889695
C   C126      1.0  0.84890  0.38070  0.25400  1.0000 -0.139889695
C   C127      1.0  0.15110  0.38070  0.74600  1.0000 -0.139889695
C   C128      1.0  0.15110  0.61930  0.25400  1.0000 -0.139889695
C   C129      1.0  0.74600  0.84890  0.61930  1.0000 -0.139889695
C   C130      1.0  0.25400  0.84890  0.38070  1.0000 -0.139889695
C   C131      1.0  0.74600  0.15110  0.38070  1.0000 -0.139889695
C   C132      1.0  0.25400  0.15110  0.61930  1.0000 -0.139889695
C   C133      1.0  0.37920  0.28590  0.11860  1.0000 -0.0205488896
C   C134      1.0  0.62080  0.71410  0.11860  1.0000 -0.0205488896
C   C135      1.0  0.62080  0.28590  0.88140  1.0000 -0.0205488896
C   C136      1.0  0.37920  0.71410  0.88140  1.0000 -0.0205488896
C   C137      1.0  0.11860  0.37920  0.28590  1.0000 -0.0205488896
C   C138      1.0  0.11860  0.62080  0.71410  1.0000 -0.0205488896
C   C139      1.0  0.88140  0.62080  0.28590  1.0000 -0.0205488896
C   C140      1.0  0.88140  0.37920  0.71410  1.0000 -0.0205488896
C   C141      1.0  0.28590  0.11860  0.37920  1.0000 -0.0205488896
C   C142      1.0  0.71410  0.11860  0.62080  1.0000 -0.0205488896
C   C143      1.0  0.28590  0.88140  0.62080  1.0000 -0.0205488896
C   C144      1.0  0.71410  0.88140  0.37920  1.0000 -0.0205488896
C   C145      1.0  0.62080  0.71410  0.88140  1.0000 -0.0205488896
C   C146      1.0  0.37920  0.28590  0.88140  1.0000 -0.0205488896
C   C147      1.0  0.37920  0.71410  0.11860  1.0000 -0.0205488896
C   C148      1.0  0.62080  0.28590  0.11860  1.0000 -0.0205488896
C   C149      1.0  0.88140  0.62080  0.71410  1.0000 -0.0205488896
C   C150      1.0  0.88140  0.37920  0.28590  1.0000 -0.0205488896
C   C151      1.0  0.11860  0.37920  0.71410  1.0000 -0.0205488896
C   C152      1.0  0.11860  0.62080  0.28590  1.0000 -0.0205488896
C   C153      1.0  0.71410  0.88140  0.62080  1.0000 -0.0205488896
C   C154      1.0  0.28590  0.88140  0.37920  1.0000 -0.0205488896
C   C155      1.0  0.71410  0.11860  0.37920  1.0000 -0.0205488896
C   C156      1.0  0.28590  0.11860  0.62080  1.0000 -0.0205488896
C   C157      1.0  0.34510  0.31790  0.11730  1.0000 -0.0960445469
C   C158      1.0  0.65490  0.68210  0.11730  1.0000 -0.0960445469
C   C159      1.0  0.65490  0.31790  0.88270  1.0000 -0.0960445469
C   C160      1.0  0.34510  0.68210  0.88270  1.0000 -0.0960445469
C   C161      1.0  0.11730  0.34510  0.31790  1.0000 -0.0960445469
C   C162      1.0  0.11730  0.65490  0.68210  1.0000 -0.0960445469
C   C163      1.0  0.88270  0.65490  0.31790  1.0000 -0.0960445469
C   C164      1.0  0.88270  0.34510  0.68210  1.0000 -0.0960445469
C   C165      1.0  0.31790  0.11730  0.34510  1.0000 -0.0960445469
C   C166      1.0  0.68210  0.11730  0.65490  1.0000 -0.0960445469
C   C167      1.0  0.31790  0.88270  0.65490  1.0000 -0.0960445469
C   C168      1.0  0.68210  0.88270  0.34510  1.0000 -0.0960445469
C   C169      1.0  0.65490  0.68210  0.88270  1.0000 -0.0960445469
C   C170      1.0  0.34510  0.31790  0.88270  1.0000 -0.0960445469
C   C171      1.0  0.34510  0.68210  0.11730  1.0000 -0.0960445469
C   C172      1.0  0.65490  0.31790  0.11730  1.0000 -0.0960445469
C   C173      1.0  0.88270  0.65490  0.68210  1.0000 -0.0960445469
C   C174      1.0  0.88270  0.34510  0.31790  1.0000 -0.0960445469
C   C175      1.0  0.11730  0.34510  0.68210  1.0000 -0.0960445469
C   C176      1.0  0.11730  0.65490  0.31790  1.0000 -0.0960445469
C   C177      1.0  0.68210  0.88270  0.65490  1.0000 -0.0960445469
C   C178      1.0  0.31790  0.88270  0.34510  1.0000 -0.0960445469
C   C179      1.0  0.68210  0.11730  0.34510  1.0000 -0.0960445469
C   C180      1.0  0.31790  0.11730  0.65490  1.0000 -0.0960445469
C   C181      1.0  0.50000  0.02380  0.00000  1.0000 0.0795893438
C   C182      1.0  0.50000  0.97620  0.00000  1.0000 0.0795893438
C   C183      1.0  0.00000  0.50000  0.02380  1.0000 0.0795893438
C   C184      1.0  0.00000  0.50000  0.97620  1.0000 0.0795893438
C   C185      1.0  0.02380  0.00000  0.50000  1.0000 0.0744115335
C   C186      1.0  0.97620  0.00000  0.50000  1.0000 0.0795893438
C   C187      1.0  0.50000  0.09420  0.03920  1.0000 -0.0886943094
C   C188      1.0  0.50000  0.90580  0.03920  1.0000 -0.0886943094
C   C189      1.0  0.50000  0.09420  0.96080  1.0000 -0.0886943094
C   C190      1.0  0.50000  0.90580  0.96080  1.0000 -0.0886943094
C   C191      1.0  0.03920  0.50000  0.09420  1.0000 -0.0886943094
C   C192      1.0  0.03920  0.50000  0.90580  1.0000 -0.0886943094
C   C193      1.0  0.96080  0.50000  0.09420  1.0000 -0.0886943094
C   C194      1.0  0.96080  0.50000  0.90580  1.0000 -0.0886943094
C   C195      1.0  0.09420  0.03920  0.50000  1.0000 -0.0886943094
C   C196      1.0  0.90580  0.03920  0.50000  1.0000 -0.0886943094
C   C197      1.0  0.09420  0.96080  0.50000  1.0000 -0.0886943094
C   C198      1.0  0.90580  0.96080  0.50000  1.0000 -0.0886943094
C   C199      1.0  0.34090  0.22060  0.22120  1.0000 0.11216774
C   C200      1.0  0.65910  0.77940  0.22120  1.0000 0.11216774
C   C201      1.0  0.65910  0.22060  0.77880  1.0000 0.11216774
C   C202      1.0  0.34090  0.77940  0.77880  1.0000 0.11216774
C   C203      1.0  0.22120  0.34090  0.22060  1.0000 0.11216774
C   C204      1.0  0.22120  0.65910  0.77940  1.0000 0.11216774
C   C205      1.0  0.77880  0.65910  0.22060  1.0000 0.11216774
C   C206      1.0  0.77880  0.34090  0.77940  1.0000 0.11216774
C   C207      1.0  0.22060  0.22120  0.34090  1.0000 0.11216774
C   C208      1.0  0.77940  0.22120  0.65910  1.0000 0.11216774
C   C209      1.0  0.22060  0.77880  0.65910  1.0000 0.11216774
C   C210      1.0  0.77940  0.77880  0.34090  1.0000 0.11216774
C   C211      1.0  0.65910  0.77940  0.77880  1.0000 0.11216774
C   C212      1.0  0.34090  0.22060  0.77880  1.0000 0.11216774
C   C213      1.0  0.34090  0.77940  0.22120  1.0000 0.11216774
C   C214      1.0  0.65910  0.22060  0.22120  1.0000 0.11216774
C   C215      1.0  0.77880  0.65910  0.77940  1.0000 0.11216774
C   C216      1.0  0.77880  0.34090  0.22060  1.0000 0.11216774
C   C217      1.0  0.22120  0.34090  0.77940  1.0000 0.11216774
C   C218      1.0  0.22120  0.65910  0.22060  1.0000 0.11216774
C   C219      1.0  0.77940  0.77880  0.65910  1.0000 0.11216774
C   C220      1.0  0.22060  0.77880  0.34090  1.0000 0.11216774
C   C221      1.0  0.77940  0.22120  0.34090  1.0000 0.11216774
C   C222      1.0  0.22060  0.22120  0.65910  1.0000 0.11216774
C   C223      1.0  0.28120  0.27730  0.22280  1.0000 -0.0301814633
C   C224      1.0  0.71880  0.72270  0.22280  1.0000 -0.0301814633
C   C225      1.0  0.71880  0.27730  0.77720  1.0000 -0.0301814633
C   C226      1.0  0.28120  0.72270  0.77720  1.0000 -0.0301814633
C   C227      1.0  0.22280  0.28120  0.27730  1.0000 -0.0301814633
C   C228      1.0  0.22280  0.71880  0.72270  1.0000 -0.0301814633
C   C229      1.0  0.77720  0.71880  0.27730  1.0000 -0.0301814633
C   C230      1.0  0.77720  0.28120  0.72270  1.0000 -0.0301814633
C   C231      1.0  0.27730  0.22280  0.28120  1.0000 -0.0301814633
C   C232      1.0  0.72270  0.22280  0.71880  1.0000 -0.0301814633
C   C233      1.0  0.27730  0.77720  0.71880  1.0000 -0.0301814633
C   C234      1.0  0.72270  0.77720  0.28120  1.0000 -0.0301814633
C   C235      1.0  0.71880  0.72270  0.77720  1.0000 -0.0301814633
C   C236      1.0  0.28120  0.27730  0.77720  1.0000 -0.0301814633
C   C237      1.0  0.28120  0.72270  0.22280  1.0000 -0.0301814633
C   C238      1.0  0.71880  0.27730  0.22280  1.0000 -0.0301814633
C   C239      1.0  0.77720  0.71880  0.72270  1.0000 -0.0301814633
C   C240      1.0  0.77720  0.28120  0.27730  1.0000 -0.0301814633
C   C241      1.0  0.22280  0.28120  0.72270  1.0000 -0.0301814633
C   C242      1.0  0.22280  0.71880  0.27730  1.0000 -0.0301814633
C   C243      1.0  0.72270  0.77720  0.71880  1.0000 -0.0301814633
C   C244      1.0  0.27730  0.77720  0.28120  1.0000 -0.0301814633
C   C245      1.0  0.72270  0.22280  0.28120  1.0000 -0.0301814633
C   C246      1.0  0.27730  0.22280  0.71880  1.0000 -0.0301814633
C   C247      1.0  0.31190  0.31840  0.14930  1.0000 -0.1501425724
C   C248      1.0  0.68810  0.68160  0.14930  1.0000 -0.1501425724
C   C249      1.0  0.68810  0.31840  0.85070  1.0000 -0.1501425724
C   C250      1.0  0.31190  0.68160  0.85070  1.0000 -0.1501425724
C   C251      1.0  0.14930  0.31190  0.31840  1.0000 -0.1501425724
C   C252      1.0  0.14930  0.68810  0.68160  1.0000 -0.1501425724
C   C253      1.0  0.85070  0.68810  0.31840  1.0000 -0.1501425724
C   C254      1.0  0.85070  0.31190  0.68160  1.0000 -0.1501425724
C   C255      1.0  0.31840  0.14930  0.31190  1.0000 -0.1501425724
C   C256      1.0  0.68160  0.14930  0.68810  1.0000 -0.1501425724
C   C257      1.0  0.31840  0.85070  0.68810  1.0000 -0.1501425724
C   C258      1.0  0.68160  0.85070  0.31190  1.0000 -0.1501425724
C   C259      1.0  0.68810  0.68160  0.85070  1.0000 -0.1501425724
C   C260      1.0  0.31190  0.31840  0.85070  1.0000 -0.1501425724
C   C261      1.0  0.31190  0.68160  0.14930  1.0000 -0.1501425724
C   C262      1.0  0.68810  0.31840  0.14930  1.0000 -0.1501425724
C   C263      1.0  0.85070  0.68810  0.68160  1.0000 -0.1501425724
C   C264      1.0  0.85070  0.31190  0.31840  1.0000 -0.1501425724
C   C265      1.0  0.14930  0.31190  0.68160  1.0000 -0.1501425724
C   C266      1.0  0.14930  0.68810  0.31840  1.0000 -0.1501425724
C   C267      1.0  0.68160  0.85070  0.68810  1.0000 -0.1501425724
C   C268      1.0  0.31840  0.85070  0.31190  1.0000 -0.1501425724
C   C269      1.0  0.68160  0.14930  0.31190  1.0000 -0.1501425724
C   C270      1.0  0.31840  0.14930  0.68810  1.0000 -0.1501425724
C   C271      1.0  0.29810  0.23880  0.24410  1.0000 -0.0301814633
C   C272      1.0  0.70190  0.76120  0.24410  1.0000 -0.0301814633
C   C273      1.0  0.70190  0.23880  0.75590  1.0000 -0.0301814633
C   C274      1.0  0.29810  0.76120  0.75590  1.0000 -0.0301814633
C   C275      1.0  0.24410  0.29810  0.23880  1.0000 -0.0301814633
C   C276      1.0  0.24410  0.70190  0.76120  1.0000 -0.0301814633
C   C277      1.0  0.75590  0.70190  0.23880  1.0000 -0.0301814633
C   C278      1.0  0.75590  0.29810  0.76120  1.0000 -0.0301814633
C   C279      1.0  0.23880  0.24410  0.29810  1.0000 -0.0301814633
C   C280      1.0  0.76120  0.24410  0.70190  1.0000 -0.0301814633
C   C281      1.0  0.23880  0.75590  0.70190  1.0000 -0.0301814633
C   C282      1.0  0.76120  0.75590  0.29810  1.0000 -0.0301814633
C   C283      1.0  0.70190  0.76120  0.75590  1.0000 -0.0301814633
C   C284      1.0  0.29810  0.23880  0.75590  1.0000 -0.0301814633
C   C285      1.0  0.29810  0.76120  0.24410  1.0000 -0.0301814633
C   C286      1.0  0.70190  0.23880  0.24410  1.0000 -0.0301814633
C   C287      1.0  0.75590  0.70190  0.76120  1.0000 -0.0301814633
C   C288      1.0  0.75590  0.29810  0.23880  1.0000 -0.0301814633
C   C289      1.0  0.24410  0.29810  0.76120  1.0000 -0.0301814633
C   C290      1.0  0.24410  0.70190  0.23880  1.0000 -0.0301814633
C   C291      1.0  0.76120  0.75590  0.70190  1.0000 -0.0301814633
C   C292      1.0  0.23880  0.75590  0.29810  1.0000 -0.0301814633
C   C293      1.0  0.76120  0.24410  0.29810  1.0000 -0.0301814633
C   C294      1.0  0.23880  0.24410  0.70190  1.0000 -0.0301814633
C   C295      1.0  0.50000  0.04830  0.03730  1.0000 -0.1725952789
C   C296      1.0  0.50000  0.95170  0.03730  1.0000 -0.1725952789
C   C297      1.0  0.50000  0.04830  0.96270  1.0000 -0.1725952789
C   C298      1.0  0.50000  0.95170  0.96270  1.0000 -0.1725952789
C   C299      1.0  0.03730  0.50000  0.04830  1.0000 -0.1725952789
C   C300      1.0  0.03730  0.50000  0.95170  1.0000 -0.1725952789
C   C301      1.0  0.96270  0.50000  0.04830  1.0000 -0.1725952789
C   C302      1.0  0.96270  0.50000  0.95170  1.0000 -0.1725952789
C   C303      1.0  0.04830  0.03730  0.50000  1.0000 -0.1725952789
C   C304      1.0  0.95170  0.03730  0.50000  1.0000 -0.1725952789
C   C305      1.0  0.04830  0.96270  0.50000  1.0000 -0.1725952789
C   C306      1.0  0.95170  0.96270  0.50000  1.0000 -0.1725952789
C   C307      1.0  0.38320  0.22400  0.25300  1.0000 -0.2637489887
C   C308      1.0  0.61680  0.77600  0.25300  1.0000 -0.2637489887
C   C309      1.0  0.61680  0.22400  0.74700  1.0000 -0.2637489887
C   C310      1.0  0.38320  0.77600  0.74700  1.0000 -0.2637489887
C   C311      1.0  0.25300  0.38320  0.22400  1.0000 -0.2637489887
C   C312      1.0  0.25300  0.61680  0.77600  1.0000 -0.2637489887
C   C313      1.0  0.74700  0.61680  0.22400  1.0000 -0.2637489887
C   C314      1.0  0.74700  0.38320  0.77600  1.0000 -0.2637489887
C   C315      1.0  0.22400  0.25300  0.38320  1.0000 -0.2637489887
C   C316      1.0  0.77600  0.25300  0.61680  1.0000 -0.2637489887
C   C317      1.0  0.22400  0.74700  0.61680  1.0000 -0.2637489887
C   C318      1.0  0.77600  0.74700  0.38320  1.0000 -0.2637489887
C   C319      1.0  0.61680  0.77600  0.74700  1.0000 -0.2637489887
C   C320      1.0  0.38320  0.22400  0.74700  1.0000 -0.2637489887
C   C321      1.0  0.38320  0.77600  0.25300  1.0000 -0.2637489887
C   C322      1.0  0.61680  0.22400  0.25300  1.0000 -0.2637489887
C   C323      1.0  0.74700  0.61680  0.77600  1.0000 -0.2637489887
C   C324      1.0  0.74700  0.38320  0.22400  1.0000 -0.2637489887
C   C325      1.0  0.25300  0.38320  0.77600  1.0000 -0.2637489887
C   C326      1.0  0.25300  0.61680  0.22400  1.0000 -0.2637489887
C   C327      1.0  0.77600  0.74700  0.61680  1.0000 -0.2637489887
C   C328      1.0  0.22400  0.74700  0.38320  1.0000 -0.2637489887
C   C329      1.0  0.77600  0.25300  0.38320  1.0000 -0.2637489887
C   C330      1.0  0.22400  0.25300  0.61680  1.0000 -0.2637489887
C   C331      1.0  0.33390  0.17410  0.20030  1.0000 -0.2469542252
C   C332      1.0  0.66610  0.82590  0.20030  1.0000 -0.2469542252
C   C333      1.0  0.66610  0.17410  0.79970  1.0000 -0.2469542252
C   C334      1.0  0.33390  0.82590  0.79970  1.0000 -0.2469542252
C   C335      1.0  0.20030  0.33390  0.17410  1.0000 -0.2469542252
C   C336      1.0  0.20030  0.66610  0.82590  1.0000 -0.2469542252
C   C337      1.0  0.79970  0.66610  0.17410  1.0000 -0.2469542252
C   C338      1.0  0.79970  0.33390  0.82590  1.0000 -0.2469542252
C   C339      1.0  0.17410  0.20030  0.33390  1.0000 -0.2469542252
C   C340      1.0  0.82590  0.20030  0.66610  1.0000 -0.2469542252
C   C341      1.0  0.17410  0.79970  0.66610  1.0000 -0.2469542252
C   C342      1.0  0.82590  0.79970  0.33390  1.0000 -0.2469542252
C   C343      1.0  0.66610  0.82590  0.79970  1.0000 -0.2469542252
C   C344      1.0  0.33390  0.17410  0.79970  1.0000 -0.2469542252
C   C345      1.0  0.33390  0.82590  0.20030  1.0000 -0.2469542252
C   C346      1.0  0.66610  0.17410  0.20030  1.0000 -0.2469542252
C   C347      1.0  0.79970  0.66610  0.82590  1.0000 -0.2469542252
C   C348      1.0  0.79970  0.33390  0.17410  1.0000 -0.2469542252
C   C349      1.0  0.20030  0.33390  0.82590  1.0000 -0.2469542252
C   C350      1.0  0.20030  0.66610  0.17410  1.0000 -0.2469542252
C   C351      1.0  0.82590  0.79970  0.66610  1.0000 -0.2469542252
C   C352      1.0  0.17410  0.79970  0.33390  1.0000 -0.2469542252
C   C353      1.0  0.82590  0.20030  0.33390  1.0000 -0.2469542252
C   C354      1.0  0.17410  0.20030  0.66610  1.0000 -0.2469542252
C   C355      1.0  0.29460  0.16960  0.16850  1.0000 -0.139889695
C   C356      1.0  0.70540  0.83040  0.16850  1.0000 -0.139889695
C   C357      1.0  0.70540  0.16960  0.83150  1.0000 -0.139889695
C   C358      1.0  0.29460  0.83040  0.83150  1.0000 -0.139889695
C   C359      1.0  0.16850  0.29460  0.16960  1.0000 -0.139889695
C   C360      1.0  0.16850  0.70540  0.83040  1.0000 -0.139889695
C   C361      1.0  0.83150  0.70540  0.16960  1.0000 -0.139889695
C   C362      1.0  0.83150  0.29460  0.83040  1.0000 -0.139889695
C   C363      1.0  0.16960  0.16850  0.29460  1.0000 -0.139889695
C   C364      1.0  0.83040  0.16850  0.70540  1.0000 -0.139889695
C   C365      1.0  0.16960  0.83150  0.70540  1.0000 -0.139889695
C   C366      1.0  0.83040  0.83150  0.29460  1.0000 -0.139889695
C   C367      1.0  0.70540  0.83040  0.83150  1.0000 -0.139889695
C   C368      1.0  0.29460  0.16960  0.83150  1.0000 -0.139889695
C   C369      1.0  0.29460  0.83040  0.16850  1.0000 -0.139889695
C   C370      1.0  0.70540  0.16960  0.16850  1.0000 -0.139889695
C   C371      1.0  0.83150  0.70540  0.83040  1.0000 -0.139889695
C   C372      1.0  0.83150  0.29460  0.16960  1.0000 -0.139889695
C   C373      1.0  0.16850  0.29460  0.83040  1.0000 -0.139889695
C   C374      1.0  0.16850  0.70540  0.16960  1.0000 -0.139889695
C   C375      1.0  0.83040  0.83150  0.70540  1.0000 -0.139889695
C   C376      1.0  0.16960  0.83150  0.29460  1.0000 -0.139889695
C   C377      1.0  0.83040  0.16850  0.29460  1.0000 -0.139889695
C   C378      1.0  0.16960  0.16850  0.70540  1.0000 -0.139889695
C   C379      1.0  0.29030  0.12220  0.14350  1.0000 -0.2988252145
C   C380      1.0  0.70970  0.87780  0.14350  1.0000 -0.2988252145
C   C381      1.0  0.70970  0.12220  0.85650  1.0000 -0.2988252145
C   C382      1.0  0.29030  0.87780  0.85650  1.0000 -0.2988252145
C   C383      1.0  0.14350  0.29030  0.12220  1.0000 -0.2988252145
C   C384      1.0  0.14350  0.70970  0.87780  1.0000 -0.2988252145
C   C385      1.0  0.85650  0.70970  0.12220  1.0000 -0.2988252145
C   C386      1.0  0.85650  0.29030  0.87780  1.0000 -0.2988252145
C   C387      1.0  0.12220  0.14350  0.29030  1.0000 -0.2988252145
C   C388      1.0  0.87780  0.14350  0.70970  1.0000 -0.2988252145
C   C389      1.0  0.12220  0.85650  0.70970  1.0000 -0.2988252145
C   C390      1.0  0.87780  0.85650  0.29030  1.0000 -0.2988252145
C   C391      1.0  0.70970  0.87780  0.85650  1.0000 -0.2988252145
C   C392      1.0  0.29030  0.12220  0.85650  1.0000 -0.2988252145
C   C393      1.0  0.29030  0.87780  0.14350  1.0000 -0.2988252145
C   C394      1.0  0.70970  0.12220  0.14350  1.0000 -0.2988252145
C   C395      1.0  0.85650  0.70970  0.87780  1.0000 -0.2988252145
C   C396      1.0  0.85650  0.29030  0.12220  1.0000 -0.2988252145
C   C397      1.0  0.14350  0.29030  0.87780  1.0000 -0.2988252145
C   C398      1.0  0.14350  0.70970  0.12220  1.0000 -0.2988252145
C   C399      1.0  0.87780  0.85650  0.70970  1.0000 -0.2988252145
C   C400      1.0  0.12220  0.85650  0.29030  1.0000 -0.2988252145
C   C401      1.0  0.87780  0.14350  0.29030  1.0000 -0.2988252145
C   C402      1.0  0.12220  0.14350  0.70970  1.0000 -0.2988252145
C   C403      1.0  0.38830  0.27670  0.27270  1.0000 -0.1295719969
C   C404      1.0  0.61170  0.72330  0.27270  1.0000 -0.1295719969
C   C405      1.0  0.61170  0.27670  0.72730  1.0000 -0.1295719969
C   C406      1.0  0.38830  0.72330  0.72730  1.0000 -0.1295719969
C   C407      1.0  0.27270  0.38830  0.27670  1.0000 -0.1295719969
C   C408      1.0  0.27270  0.61170  0.72330  1.0000 -0.1295719969
C   C409      1.0  0.72730  0.61170  0.27670  1.0000 -0.1295719969
C   C410      1.0  0.72730  0.38830  0.72330  1.0000 -0.1295719969
C   C411      1.0  0.27670  0.27270  0.38830  1.0000 -0.1295719969
C   C412      1.0  0.72330  0.27270  0.61170  1.0000 -0.1295719969
C   C413      1.0  0.27670  0.72730  0.61170  1.0000 -0.1295719969
C   C414      1.0  0.72330  0.72730  0.38830  1.0000 -0.1295719969
C   C415      1.0  0.61170  0.72330  0.72730  1.0000 -0.1295719969
C   C416      1.0  0.38830  0.27670  0.72730  1.0000 -0.1295719969
C   C417      1.0  0.38830  0.72330  0.27270  1.0000 -0.1295719969
C   C418      1.0  0.61170  0.27670  0.27270  1.0000 -0.1295719969
C   C419      1.0  0.72730  0.61170  0.72330  1.0000 -0.1295719969
C   C420      1.0  0.72730  0.38830  0.27670  1.0000 -0.1295719969
C   C421      1.0  0.27270  0.38830  0.72330  1.0000 -0.1295719969
C   C422      1.0  0.27270  0.61170  0.27670  1.0000 -0.1295719969
C   C423      1.0  0.72330  0.72730  0.61170  1.0000 -0.1295719969
C   C424      1.0  0.27670  0.72730  0.38830  1.0000 -0.1295719969
C   C425      1.0  0.72330  0.27270  0.38830  1.0000 -0.1295719969
C   C426      1.0  0.27670  0.27270  0.61170  1.0000 -0.1295719969
C   C427      1.0  0.43060  0.27030  0.30280  1.0000 -0.3492009989
C   C428      1.0  0.56940  0.72970  0.30280  1.0000 -0.3492009989
C   C429      1.0  0.56940  0.27030  0.69720  1.0000 -0.3492009989
C   C430      1.0  0.43060  0.72970  0.69720  1.0000 -0.3492009989
C   C431      1.0  0.30280  0.43060  0.27030  1.0000 -0.3492009989
C   C432      1.0  0.30280  0.56940  0.72970  1.0000 -0.3492009989
C   C433      1.0  0.69720  0.56940  0.27030  1.0000 -0.3492009989
C   C434      1.0  0.69720  0.43060  0.72970  1.0000 -0.3492009989
C   C435      1.0  0.27030  0.30280  0.43060  1.0000 -0.3492009989
C   C436      1.0  0.72970  0.30280  0.56940  1.0000 -0.3492009989
C   C437      1.0  0.27030  0.69720  0.56940  1.0000 -0.3492009989
C   C438      1.0  0.72970  0.69720  0.43060  1.0000 -0.3492009989
C   C439      1.0  0.56940  0.72970  0.69720  1.0000 -0.3492009989
C   C440      1.0  0.43060  0.27030  0.69720  1.0000 -0.3492009989
C   C441      1.0  0.43060  0.72970  0.30280  1.0000 -0.3492009989
C   C442      1.0  0.56940  0.27030  0.30280  1.0000 -0.3492009989
C   C443      1.0  0.69720  0.56940  0.72970  1.0000 -0.3492009989
C   C444      1.0  0.69720  0.43060  0.27030  1.0000 -0.3492009989
C   C445      1.0  0.30280  0.43060  0.72970  1.0000 -0.3492009989
C   C446      1.0  0.30280  0.56940  0.27030  1.0000 -0.3492009989
C   C447      1.0  0.72970  0.69720  0.56940  1.0000 -0.3492009989
C   C448      1.0  0.27030  0.69720  0.43060  1.0000 -0.3492009989
C   C449      1.0  0.72970  0.30280  0.43060  1.0000 -0.3492009989
C   C450      1.0  0.27030  0.30280  0.56940  1.0000 -0.3492009989
O   O1        1.0  0.50000  0.28605  0.00000  1.0000 -1.0301420243
O   O2        1.0  0.50000  0.71395  0.00000  1.0000 -1.0301420243
O   O3        1.0  0.00000  0.50000  0.28605  1.0000 -1.0301420243
O   O4        1.0  0.00000  0.50000  0.71395  1.0000 -1.0301420243
O   O5        1.0  0.28605  0.00000  0.50000  1.0000 -1.0301420243
O   O6        1.0  0.71395  0.00000  0.50000  1.0000 -1.0301420243
O   O7        1.0  0.46307  0.38499  0.00000  1.0000 -0.5219725588
O   O8        1.0  0.53693  0.61501  0.00000  1.0000 -0.5219725588
O   O9        1.0  0.53693  0.38499  0.00000  1.0000 -0.5219725588
O   O10       1.0  0.46307  0.61501  0.00000  1.0000 -0.5219725588
O   O11       1.0  0.00000  0.46307  0.38499  1.0000 -0.5219725588
O   O12       1.0  0.00000  0.53693  0.61501  1.0000 -0.5219725588
O   O13       1.0  0.00000  0.53693  0.38499  1.0000 -0.5219725588
O   O14       1.0  0.00000  0.46307  0.61501  1.0000 -0.5219725588
O   O15       1.0  0.38499  0.00000  0.46307  1.0000 -0.5219725588
O   O16       1.0  0.61501  0.00000  0.53693  1.0000 -0.5219725588
O   O17       1.0  0.38499  0.00000  0.53693  1.0000 -0.5219725588
O   O18       1.0  0.61501  0.00000  0.46307  1.0000 -0.5219725588
O   O19       1.0  0.44743  0.25908  0.08882  1.0000 -0.5474341812
O   O20       1.0  0.55257  0.74092  0.08882  1.0000 -0.5474341812
O   O21       1.0  0.55257  0.25908  0.91118  1.0000 -0.5474341812
O   O22       1.0  0.44743  0.74092  0.91118  1.0000 -0.5474341812
O   O23       1.0  0.08882  0.44743  0.25908  1.0000 -0.5474341812
O   O24       1.0  0.08882  0.55257  0.74092  1.0000 -0.5474341812
O   O25       1.0  0.91118  0.55257  0.25908  1.0000 -0.5474341812
O   O26       1.0  0.91118  0.44743  0.74092  1.0000 -0.5474341812
O   O27       1.0  0.25908  0.08882  0.44743  1.0000 -0.5474341812
O   O28       1.0  0.74092  0.08882  0.55257  1.0000 -0.5474341812
O   O29       1.0  0.25908  0.91118  0.55257  1.0000 -0.5474341812
O   O30       1.0  0.74092  0.91118  0.44743  1.0000 -0.5474341812
O   O31       1.0  0.55257  0.74092  0.91118  1.0000 -0.5474341812
O   O32       1.0  0.44743  0.25908  0.91118  1.0000 -0.5474341812
O   O33       1.0  0.44743  0.74092  0.08882  1.0000 -0.5474341812
O   O34       1.0  0.55257  0.25908  0.08882  1.0000 -0.5474341812
O   O35       1.0  0.91118  0.55257  0.74092  1.0000 -0.5474341812
O   O36       1.0  0.91118  0.44743  0.25908  1.0000 -0.5474341812
O   O37       1.0  0.08882  0.44743  0.74092  1.0000 -0.5474341812
O   O38       1.0  0.08882  0.55257  0.25908  1.0000 -0.5474341812
O   O39       1.0  0.74092  0.91118  0.55257  1.0000 -0.5474341812
O   O40       1.0  0.25908  0.91118  0.44743  1.0000 -0.5474341812
O   O41       1.0  0.74092  0.08882  0.44743  1.0000 -0.5474341812
O   O42       1.0  0.25908  0.08882  0.55257  1.0000 -0.5474341812
O   O43       1.0  0.41015  0.31273  0.05171  1.0000 -0.5219725588
O   O44       1.0  0.58985  0.68727  0.05171  1.0000 -0.5219725588
O   O45       1.0  0.58985  0.31273  0.94829  1.0000 -0.5219725588
O   O46       1.0  0.41015  0.68727  0.94829  1.0000 -0.5219725588
O   O47       1.0  0.05171  0.41015  0.31273  1.0000 -0.5219725588
O   O48       1.0  0.05171  0.58985  0.68727  1.0000 -0.5219725588
O   O49       1.0  0.94829  0.58985  0.31273  1.0000 -0.5219725588
O   O50       1.0  0.94829  0.41015  0.68727  1.0000 -0.5219725588
O   O51       1.0  0.31273  0.05171  0.41015  1.0000 -0.5219725588
O   O52       1.0  0.68727  0.05171  0.58985  1.0000 -0.5219725588
O   O53       1.0  0.31273  0.94829  0.58985  1.0000 -0.5219725588
O   O54       1.0  0.68727  0.94829  0.41015  1.0000 -0.5219725588
O   O55       1.0  0.58985  0.68727  0.94829  1.0000 -0.5219725588
O   O56       1.0  0.41015  0.31273  0.94829  1.0000 -0.5219725588
O   O57       1.0  0.41015  0.68727  0.05171  1.0000 -0.5219725588
O   O58       1.0  0.58985  0.31273  0.05171  1.0000 -0.5219725588
O   O59       1.0  0.94829  0.58985  0.68727  1.0000 -0.5219725588
O   O60       1.0  0.94829  0.41015  0.31273  1.0000 -0.5219725588
O   O61       1.0  0.05171  0.41015  0.68727  1.0000 -0.5219725588
O   O62       1.0  0.05171  0.58985  0.31273  1.0000 -0.5219725588
O   O63       1.0  0.68727  0.94829  0.58985  1.0000 -0.5219725588
O   O64       1.0  0.31273  0.94829  0.41015  1.0000 -0.5219725588
O   O65       1.0  0.68727  0.05171  0.41015  1.0000 -0.5219725588
O   O66       1.0  0.31273  0.05171  0.58985  1.0000 -0.5219725588
O   O67       1.0  0.50000  0.18652  0.03747  1.0000 -0.5276272448
O   O68       1.0  0.50000  0.81348  0.03747  1.0000 -0.5276272448
O   O69       1.0  0.50000  0.18652  0.96253  1.0000 -0.5276272448
O   O70       1.0  0.50000  0.81348  0.96253  1.0000 -0.5276272448
O   O71       1.0  0.03747  0.50000  0.18652  1.0000 -0.5276272448
O   O72       1.0  0.03747  0.50000  0.81348  1.0000 -0.5276272448
O   O73       1.0  0.96253  0.50000  0.18652  1.0000 -0.5276272448
O   O74       1.0  0.96253  0.50000  0.81348  1.0000 -0.5276272448
O   O75       1.0  0.18652  0.03747  0.50000  1.0000 -0.5276272448
O   O76       1.0  0.81348  0.03747  0.50000  1.0000 -0.5276272448
O   O77       1.0  0.18652  0.96253  0.50000  1.0000 -0.5276272448
O   O78       1.0  0.81348  0.96253  0.50000  1.0000 -0.5276272448
