# DDEC6 charges by PACMAN v1.1 (https://github.com/mtap-research/PACMAN-charge/)
data_d1mh01663f2_1_ASR_pacman
_symmetry_space_group_name_H-M   'P 1'
_cell_length_a   16.30690000
_cell_length_b   16.30690000
_cell_length_c   52.85200000
_cell_angle_alpha   90.00000000
_cell_angle_beta   90.00000000
_cell_angle_gamma   90.00000000
_symmetry_Int_Tables_number   1
_chemical_formula_structural   Fe32C200Br23.04O116
_chemical_formula_sum   'Fe32 C200 Br23.04 O116'
_cell_volume   14054.13892516
_cell_formula_units_Z   1
loop_
 _symmetry_equiv_pos_site_id
 _symmetry_equiv_pos_as_xyz
  1  'x, y, z'
loop_
 _atom_site_type_symbol
 _atom_site_label
 _atom_site_symmetry_multiplicity
 _atom_site_fract_x
 _atom_site_fract_y
 _atom_site_fract_z
 _atom_site_occupancy
 _atom_site_charge
Fe  Fe1  1  0.25000000  0.25000000  0.87186000  1.0 1.1124577376
Fe  Fe2  1  0.75000000  0.75000000  0.37186000  1.0 1.3138658258
Fe  Fe3  1  0.25000000  0.75000000  0.62186000  1.0 1.0807359072
Fe  Fe4  1  0.75000000  0.25000000  0.12186000  1.0 1.127263293
Fe  Fe5  1  0.25000000  0.75000000  0.12814000  1.0 1.1124577376
Fe  Fe6  1  0.75000000  0.25000000  0.62814000  1.0 1.3138658258
Fe  Fe7  1  0.25000000  0.25000000  0.37814000  1.0 1.0807359072
Fe  Fe8  1  0.75000000  0.75000000  0.87814000  1.0 1.127263293
Fe  Fe9  1  0.75000000  0.25000000  0.37814000  1.0 0.8300750706
Fe  Fe10  1  0.75000000  0.75000000  0.37814000  1.0 1.3487793061
Fe  Fe11  1  0.75000000  0.75000000  0.62186000  1.0 0.8300750706
Fe  Fe12  1  0.75000000  0.25000000  0.62186000  1.0 1.3487793061
Fe  Fe13  1  0.25000000  0.34983000  0.81720000  1.0 1.1388800594
Fe  Fe14  1  0.75000000  0.65017000  0.31720000  1.0 1.2744062397
Fe  Fe15  1  0.34983000  0.75000000  0.56720000  1.0 1.0257950875
Fe  Fe16  1  0.65017000  0.25000000  0.06720000  1.0 1.0688468072
Fe  Fe17  1  0.25000000  0.65017000  0.18280000  1.0 1.1388800594
Fe  Fe18  1  0.75000000  0.34983000  0.68280000  1.0 1.2744062397
Fe  Fe19  1  0.34983000  0.25000000  0.43280000  1.0 1.0257950875
Fe  Fe20  1  0.65017000  0.75000000  0.93280000  1.0 1.0688468072
Fe  Fe21  1  0.75000000  0.84983000  0.31720000  1.0 1.1489561252
Fe  Fe22  1  0.25000000  0.15017000  0.81720000  1.0 1.1776922795
Fe  Fe23  1  0.84983000  0.25000000  0.06720000  1.0 1.1732846352
Fe  Fe24  1  0.15017000  0.75000000  0.56720000  1.0 1.1558298918
Fe  Fe25  1  0.75000000  0.15017000  0.68280000  1.0 1.1489561252
Fe  Fe26  1  0.25000000  0.84983000  0.18280000  1.0 1.1776922795
Fe  Fe27  1  0.84983000  0.75000000  0.93280000  1.0 1.1732846352
Fe  Fe28  1  0.15017000  0.25000000  0.43280000  1.0 1.1489561252
Fe  Fe29  1  0.65017000  0.25000000  0.43280000  1.0 1.0579665753
Fe  Fe30  1  0.84983000  0.75000000  0.43280000  1.0 0.9803863617
Fe  Fe31  1  0.65017000  0.75000000  0.56720000  1.0 1.0579665753
Fe  Fe32  1  0.84983000  0.25000000  0.56720000  1.0 0.9803863617
C  C1  1  0.13680000  0.39510000  0.85925000  1.0 0.5175142241
C  C2  1  0.86320000  0.60490000  0.35925000  1.0 0.4885067496
C  C3  1  0.39510000  0.86320000  0.60925000  1.0 0.4781592143
C  C4  1  0.60490000  0.13680000  0.10925000  1.0 0.5482092949
C  C5  1  0.13680000  0.60490000  0.14075000  1.0 0.5175142241
C  C6  1  0.86320000  0.39510000  0.64075000  1.0 0.4885067496
C  C7  1  0.39510000  0.13680000  0.39075000  1.0 0.4781592143
C  C8  1  0.60490000  0.86320000  0.89075000  1.0 0.5401785057
C  C9  1  0.63680000  0.89510000  0.35925000  1.0 0.4885067496
C  C10  1  0.36320000  0.10490000  0.85925000  1.0 0.5099016937
C  C11  1  0.89510000  0.36320000  0.10925000  1.0 0.5401785057
C  C12  1  0.10490000  0.63680000  0.60925000  1.0 0.5401785057
C  C13  1  0.63680000  0.10490000  0.64075000  1.0 0.4885067496
C  C14  1  0.36320000  0.89510000  0.14075000  1.0 0.5099016937
C  C15  1  0.89510000  0.63680000  0.89075000  1.0 0.5401785057
C  C16  1  0.10490000  0.36320000  0.39075000  1.0 0.5401785057
C  C17  1  0.86320000  0.10490000  0.64075000  1.0 0.4037779796
C  C18  1  0.13680000  0.89510000  0.14075000  1.0 0.5099016937
C  C19  1  0.10490000  0.13680000  0.39075000  1.0 0.4781592143
C  C20  1  0.89510000  0.86320000  0.89075000  1.0 0.5175142241
C  C21  1  0.86320000  0.89510000  0.35925000  1.0 0.4037779796
C  C22  1  0.13680000  0.10490000  0.85925000  1.0 0.5099016937
C  C23  1  0.10490000  0.86320000  0.60925000  1.0 0.4781592143
C  C24  1  0.89510000  0.13680000  0.10925000  1.0 0.5175142241
C  C25  1  0.36320000  0.60490000  0.14075000  1.0 0.5401785057
C  C26  1  0.63680000  0.39510000  0.64075000  1.0 0.5482092949
C  C27  1  0.60490000  0.13680000  0.39075000  1.0 0.4781592143
C  C28  1  0.89510000  0.86320000  0.39075000  1.0 0.4037779796
C  C29  1  0.36320000  0.39510000  0.85925000  1.0 0.5401785057
C  C30  1  0.63680000  0.60490000  0.35925000  1.0 0.5482092949
C  C31  1  0.60490000  0.86320000  0.60925000  1.0 0.4781592143
C  C32  1  0.89510000  0.13680000  0.60925000  1.0 0.4037779796
C  C33  1  0.07120000  0.45590000  0.86735000  1.0 0.0100752896
C  C34  1  0.92880000  0.54410000  0.36735000  1.0 0.0015500077
C  C35  1  0.45590000  0.92880000  0.61735000  1.0 0.0771818164
C  C36  1  0.54410000  0.07120000  0.11735000  1.0 0.0100752896
C  C37  1  0.07120000  0.54410000  0.13265000  1.0 0.0100752896
C  C38  1  0.92880000  0.45590000  0.63265000  1.0 0.0100752896
C  C39  1  0.45590000  0.07120000  0.38265000  1.0 0.0771818164
C  C40  1  0.54410000  0.92880000  0.88265000  1.0 0.0100752896
C  C41  1  0.57120000  0.95590000  0.36735000  1.0 0.0303038263
C  C42  1  0.42880000  0.04410000  0.86735000  1.0 0.0015500077
C  C43  1  0.95590000  0.42880000  0.11735000  1.0 0.0198467273
C  C44  1  0.04410000  0.57120000  0.61735000  1.0 0.0100752896
C  C45  1  0.57120000  0.04410000  0.63265000  1.0 0.0303038263
C  C46  1  0.42880000  0.95590000  0.13265000  1.0 0.0015500077
C  C47  1  0.95590000  0.57120000  0.88265000  1.0 0.0198467273
C  C48  1  0.04410000  0.42880000  0.38265000  1.0 0.0100752896
C  C49  1  0.92880000  0.04410000  0.63265000  1.0 -0.0022706759
C  C50  1  0.07120000  0.95590000  0.13265000  1.0 -0.0022706759
C  C51  1  0.04410000  0.07120000  0.38265000  1.0 -0.028789252
C  C52  1  0.95590000  0.92880000  0.88265000  1.0 -0.0022706759
C  C53  1  0.92880000  0.95590000  0.36735000  1.0 0.0015500077
C  C54  1  0.07120000  0.04410000  0.86735000  1.0 -0.0022706759
C  C55  1  0.04410000  0.92880000  0.61735000  1.0 -0.028789252
C  C56  1  0.95590000  0.07120000  0.11735000  1.0 -0.0022706759
C  C57  1  0.42880000  0.54410000  0.13265000  1.0 0.0198467273
C  C58  1  0.57120000  0.45590000  0.63265000  1.0 0.0015500077
C  C59  1  0.54410000  0.07120000  0.38265000  1.0 0.0579139171
C  C60  1  0.95590000  0.92880000  0.38265000  1.0 0.0100752896
C  C61  1  0.42880000  0.45590000  0.86735000  1.0 0.0198467273
C  C62  1  0.57120000  0.54410000  0.36735000  1.0 0.0015500077
C  C63  1  0.54410000  0.92880000  0.61735000  1.0 0.0579139171
C  C64  1  0.95590000  0.07120000  0.61735000  1.0 0.0015500077
C  C65  1  0.13620000  0.25000000  0.78512000  1.0 0.5099016937
C  C66  1  0.86380000  0.75000000  0.28512000  1.0 0.4885067496
C  C67  1  0.25000000  0.86380000  0.53512000  1.0 0.5047878179
C  C68  1  0.75000000  0.13620000  0.03512000  1.0 0.5175142241
C  C69  1  0.13620000  0.75000000  0.21488000  1.0 0.5099016937
C  C70  1  0.86380000  0.25000000  0.71488000  1.0 0.4885067496
C  C71  1  0.25000000  0.13620000  0.46488000  1.0 0.5047878179
C  C72  1  0.75000000  0.86380000  0.96488000  1.0 0.5175142241
C  C73  1  0.63620000  0.75000000  0.28512000  1.0 0.5099016937
C  C74  1  0.36380000  0.25000000  0.78512000  1.0 0.5099016937
C  C75  1  0.75000000  0.36380000  0.03512000  1.0 0.358530313
C  C76  1  0.25000000  0.63620000  0.53512000  1.0 0.3712067458
C  C77  1  0.63620000  0.25000000  0.71488000  1.0 0.5099016937
C  C78  1  0.36380000  0.75000000  0.21488000  1.0 0.5099016937
C  C79  1  0.75000000  0.63620000  0.96488000  1.0 0.358530313
C  C80  1  0.25000000  0.36380000  0.46488000  1.0 0.3712067458
C  C81  1  0.75000000  0.13620000  0.46488000  1.0 0.3461151275
C  C82  1  0.75000000  0.86380000  0.46488000  1.0 0.4132086488
C  C83  1  0.75000000  0.86380000  0.53512000  1.0 0.3461151275
C  C84  1  0.75000000  0.13620000  0.53512000  1.0 0.4132086488
C  C85  1  0.06540000  0.25000000  0.76701000  1.0 0.0198467273
C  C86  1  0.93460000  0.75000000  0.26701000  1.0 0.0198467273
C  C87  1  0.25000000  0.93460000  0.51701000  1.0 0.0100752896
C  C88  1  0.75000000  0.06540000  0.01701000  1.0 0.0198467273
C  C89  1  0.06540000  0.75000000  0.23299000  1.0 0.0198467273
C  C90  1  0.93460000  0.25000000  0.73299000  1.0 0.0198467273
C  C91  1  0.25000000  0.06540000  0.48299000  1.0 0.0100752896
C  C92  1  0.75000000  0.93460000  0.98299000  1.0 0.0198467273
C  C93  1  0.56540000  0.75000000  0.26701000  1.0 0.0396094956
C  C94  1  0.43460000  0.25000000  0.76701000  1.0 0.0303038263
C  C95  1  0.75000000  0.43460000  0.01701000  1.0 -0.028789252
C  C96  1  0.25000000  0.56540000  0.51701000  1.0 -0.0406061899
C  C97  1  0.56540000  0.25000000  0.73299000  1.0 0.0396094956
C  C98  1  0.43460000  0.75000000  0.23299000  1.0 0.0303038263
C  C99  1  0.75000000  0.56540000  0.98299000  1.0 -0.0193587125
C  C100  1  0.25000000  0.43460000  0.48299000  1.0 -0.0406061899
C  C101  1  0.75000000  0.06540000  0.48299000  1.0 -0.0675554233
C  C102  1  0.75000000  0.93460000  0.48299000  1.0 -0.0675554233
C  C103  1  0.75000000  0.93460000  0.51701000  1.0 -0.0675554233
C  C104  1  0.75000000  0.06540000  0.51701000  1.0 -0.0675554233
C  C105  1  0.03920000  0.45450000  0.89120000  0.5 0.0015500077
C  C106  1  0.96080000  0.54550000  0.39120000  0.5 -0.028789252
C  C107  1  0.45450000  0.96080000  0.64120000  0.5 0.0469387499
C  C108  1  0.54550000  0.03920000  0.14120000  0.5 0.0100752896
C  C109  1  0.03920000  0.54550000  0.10880000  0.5 -0.0022706759
C  C110  1  0.96080000  0.45450000  0.60880000  0.5 -0.028789252
C  C111  1  0.45450000  0.03920000  0.35880000  0.5 0.0469387499
C  C112  1  0.54550000  0.96080000  0.85880000  0.5 0.0198467273
C  C113  1  0.53920000  0.95450000  0.39120000  0.5 0.0303038263
C  C114  1  0.46080000  0.04550000  0.89120000  0.5 -0.0090868497
C  C115  1  0.95450000  0.46080000  0.14120000  0.5 -0.0022706759
C  C116  1  0.04550000  0.53920000  0.64120000  0.5 0.0100752896
C  C117  1  0.53920000  0.04550000  0.60880000  0.5 0.0303038263
C  C118  1  0.46080000  0.95450000  0.10880000  0.5 -0.0090868497
C  C119  1  0.95450000  0.53920000  0.85880000  0.5 0.0015500077
C  C120  1  0.04550000  0.46080000  0.35880000  0.5 0.0100752896
C  C121  1  0.96080000  0.04550000  0.60880000  0.5 -0.0090868497
C  C122  1  0.03920000  0.95450000  0.10880000  0.5 -0.0090868497
C  C123  1  0.04550000  0.03920000  0.35880000  0.5 -0.0193587125
C  C124  1  0.95450000  0.96080000  0.85880000  0.5 -0.0090868497
C  C125  1  0.96080000  0.95450000  0.39120000  0.5 -0.0090868497
C  C126  1  0.03920000  0.04550000  0.89120000  0.5 -0.0022706759
C  C127  1  0.04550000  0.96080000  0.64120000  0.5 -0.0193587125
C  C128  1  0.95450000  0.03920000  0.14120000  0.5 -0.0090868497
C  C129  1  0.46080000  0.54550000  0.10880000  0.5 0.0198467273
C  C130  1  0.53920000  0.45450000  0.60880000  0.5 -0.028789252
C  C131  1  0.54550000  0.03920000  0.35880000  0.5 -0.0022706759
C  C132  1  0.95450000  0.96080000  0.35880000  0.5 -0.0193587125
C  C133  1  0.46080000  0.45450000  0.89120000  0.5 0.0303038263
C  C134  1  0.53920000  0.54550000  0.39120000  0.5 -0.028789252
C  C135  1  0.54550000  0.96080000  0.64120000  0.5 -0.0022706759
C  C136  1  0.95450000  0.03920000  0.64120000  0.5 -0.0193587125
C  C137  1  0.01060000  0.48090000  0.84974000  0.5 0.0303038263
C  C138  1  0.98940000  0.51910000  0.34974000  0.5 0.0198467273
C  C139  1  0.48090000  0.98940000  0.59974000  0.5 0.0303038263
C  C140  1  0.51910000  0.01060000  0.09974000  0.5 0.0303038263
C  C141  1  0.01060000  0.51910000  0.15026000  0.5 0.0303038263
C  C142  1  0.98940000  0.48090000  0.65026000  0.5 0.0198467273
C  C143  1  0.48090000  0.01060000  0.40026000  0.5 0.0303038263
C  C144  1  0.51910000  0.98940000  0.90026000  0.5 0.0303038263
C  C145  1  0.51060000  0.98090000  0.34974000  0.5 0.0469387499
C  C146  1  0.48940000  0.01910000  0.84974000  0.5 0.0303038263
C  C147  1  0.98090000  0.48940000  0.09974000  0.5 0.0303038263
C  C148  1  0.01910000  0.51060000  0.59974000  0.5 0.0198467273
C  C149  1  0.51060000  0.01910000  0.65026000  0.5 0.0469387499
C  C150  1  0.48940000  0.98090000  0.15026000  0.5 0.0303038263
C  C151  1  0.98090000  0.51060000  0.90026000  0.5 0.0303038263
C  C152  1  0.01910000  0.48940000  0.40026000  0.5 0.0198467273
C  C153  1  0.98940000  0.01910000  0.65026000  0.5 0.0100752896
C  C154  1  0.01060000  0.98090000  0.15026000  0.5 0.0303038263
C  C155  1  0.01910000  0.01060000  0.40026000  0.5 -0.0090868497
C  C156  1  0.98090000  0.98940000  0.90026000  0.5 0.0303038263
C  C157  1  0.98940000  0.98090000  0.34974000  0.5 0.0100752896
C  C158  1  0.01060000  0.01910000  0.84974000  0.5 0.0303038263
C  C159  1  0.01910000  0.98940000  0.59974000  0.5 -0.0090868497
C  C160  1  0.98090000  0.01060000  0.09974000  0.5 0.0303038263
C  C161  1  0.48940000  0.51910000  0.15026000  0.5 0.0015500077
C  C162  1  0.51060000  0.48090000  0.65026000  0.5 0.0015500077
C  C163  1  0.51910000  0.01060000  0.40026000  0.5 -0.0193587125
C  C164  1  0.98090000  0.98940000  0.40026000  0.5 -0.0193587125
C  C165  1  0.48940000  0.48090000  0.84974000  0.5 0.0100752896
C  C166  1  0.51060000  0.51910000  0.34974000  0.5 0.0015500077
C  C167  1  0.51910000  0.98940000  0.59974000  0.5 -0.0193587125
C  C168  1  0.98090000  0.01060000  0.59974000  0.5 -0.0193587125
C  C169  1  0.07450000  0.48510000  0.89260000  0.5 0.0396094956
C  C170  1  0.92550000  0.51490000  0.39260000  0.5 0.0100752896
C  C171  1  0.48510000  0.92550000  0.64260000  0.5 0.0771818164
C  C172  1  0.51490000  0.07450000  0.14260000  0.5 0.0396094956
C  C173  1  0.07450000  0.51490000  0.10740000  0.5 0.0396094956
C  C174  1  0.92550000  0.48510000  0.60740000  0.5 0.0100752896
C  C175  1  0.48510000  0.07450000  0.35740000  0.5 0.0771818164
C  C176  1  0.51490000  0.92550000  0.85740000  0.5 0.0396094956
C  C177  1  0.57450000  0.98510000  0.39260000  0.5 0.0396094956
C  C178  1  0.42550000  0.01490000  0.89260000  0.5 0.0303038263
C  C179  1  0.98510000  0.42550000  0.14260000  0.5 0.0303038263
C  C180  1  0.01490000  0.57450000  0.64260000  0.5 0.0198467273
C  C181  1  0.57450000  0.01490000  0.60740000  0.5 0.0396094956
C  C182  1  0.42550000  0.98510000  0.10740000  0.5 0.0303038263
C  C183  1  0.98510000  0.57450000  0.85740000  0.5 0.0303038263
C  C184  1  0.01490000  0.42550000  0.35740000  0.5 0.0198467273
C  C185  1  0.92550000  0.01490000  0.60740000  0.5 0.0100752896
C  C186  1  0.07450000  0.98510000  0.10740000  0.5 0.0303038263
C  C187  1  0.01490000  0.07450000  0.35740000  0.5 0.0100752896
C  C188  1  0.98510000  0.92550000  0.85740000  0.5 0.0303038263
C  C189  1  0.92550000  0.98510000  0.39260000  0.5 0.0100752896
C  C190  1  0.07450000  0.01490000  0.89260000  0.5 0.0303038263
C  C191  1  0.01490000  0.92550000  0.64260000  0.5 0.0100752896
C  C192  1  0.98510000  0.07450000  0.14260000  0.5 0.0303038263
C  C193  1  0.42550000  0.51490000  0.10740000  0.5 0.0303038263
C  C194  1  0.57450000  0.48510000  0.60740000  0.5 -0.028789252
C  C195  1  0.51490000  0.07450000  0.35740000  0.5 0.0469387499
C  C196  1  0.98510000  0.92550000  0.35740000  0.5 0.0015500077
C  C197  1  0.42550000  0.48510000  0.89260000  0.5 0.0396094956
C  C198  1  0.57450000  0.51490000  0.39260000  0.5 -0.028789252
C  C199  1  0.51490000  0.92550000  0.64260000  0.5 0.0469387499
C  C200  1  0.98510000  0.07450000  0.64260000  0.5 0.0015500077
C  C201  1  0.04270000  0.51370000  0.84990000  0.5 0.0100752896
C  C202  1  0.95730000  0.48630000  0.34990000  0.5 -0.0090868497
C  C203  1  0.51370000  0.95730000  0.59990000  0.5 0.0303038263
C  C204  1  0.48630000  0.04270000  0.09990000  0.5 0.0198467273
C  C205  1  0.04270000  0.48630000  0.15010000  0.5 0.0100752896
C  C206  1  0.95730000  0.51370000  0.65010000  0.5 -0.0090868497
C  C207  1  0.51370000  0.04270000  0.40010000  0.5 0.0303038263
C  C208  1  0.48630000  0.95730000  0.90010000  0.5 0.0198467273
C  C209  1  0.54270000  0.01370000  0.34990000  0.5 0.0396094956
C  C210  1  0.45730000  0.98630000  0.84990000  0.5 0.0198467273
C  C211  1  0.01370000  0.45730000  0.09990000  0.5 0.0100752896
C  C212  1  0.98630000  0.54270000  0.59990000  0.5 0.0100752896
C  C213  1  0.54270000  0.98630000  0.65010000  0.5 0.0396094956
C  C214  1  0.45730000  0.01370000  0.15010000  0.5 0.0198467273
C  C215  1  0.01370000  0.54270000  0.90010000  0.5 0.0198467273
C  C216  1  0.98630000  0.45730000  0.40010000  0.5 0.0100752896
C  C217  1  0.95730000  0.98630000  0.65010000  0.5 0.0396094956
C  C218  1  0.04270000  0.01370000  0.15010000  0.5 0.0100752896
C  C219  1  0.98630000  0.04270000  0.40010000  0.5 0.0100752896
C  C220  1  0.01370000  0.95730000  0.90010000  0.5 0.0100752896
C  C221  1  0.95730000  0.01370000  0.34990000  0.5 0.0396094956
C  C222  1  0.04270000  0.98630000  0.84990000  0.5 0.0100752896
C  C223  1  0.98630000  0.95730000  0.59990000  0.5 0.0100752896
C  C224  1  0.01370000  0.04270000  0.09990000  0.5 0.0100752896
C  C225  1  0.45730000  0.48630000  0.15010000  0.5 -0.0022706759
C  C226  1  0.54270000  0.51370000  0.65010000  0.5 0.0198467273
C  C227  1  0.48630000  0.04270000  0.40010000  0.5 0.0303038263
C  C228  1  0.01370000  0.95730000  0.40010000  0.5 0.0198467273
C  C229  1  0.45730000  0.51370000  0.84990000  0.5 -0.0090868497
C  C230  1  0.54270000  0.48630000  0.34990000  0.5 0.0303038263
C  C231  1  0.48630000  0.95730000  0.59990000  0.5 0.0303038263
C  C232  1  0.01370000  0.04270000  0.59990000  0.5 0.0198467273
C  C233  1  0.01630000  0.32500000  0.76410000  0.5 0.0303038263
C  C234  1  0.98370000  0.67500000  0.26410000  0.5 0.0303038263
C  C235  1  0.32500000  0.98370000  0.51410000  0.5 0.0198467273
C  C236  1  0.67500000  0.01630000  0.01410000  0.5 0.0469387499
C  C237  1  0.01630000  0.67500000  0.23590000  0.5 0.0303038263
C  C238  1  0.98370000  0.32500000  0.73590000  0.5 0.0303038263
C  C239  1  0.32500000  0.01630000  0.48590000  0.5 0.0198467273
C  C240  1  0.67500000  0.98370000  0.98590000  0.5 0.0469387499
C  C241  1  0.51630000  0.82500000  0.26410000  0.5 0.0396094956
C  C242  1  0.48370000  0.17500000  0.76410000  0.5 0.0396094956
C  C243  1  0.82500000  0.48370000  0.01410000  0.5 0.0722083303
C  C244  1  0.17500000  0.51630000  0.51410000  0.5 0.0771818164
C  C245  1  0.51630000  0.17500000  0.73590000  0.5 0.0303038263
C  C246  1  0.48370000  0.82500000  0.23590000  0.5 0.0396094956
C  C247  1  0.82500000  0.51630000  0.98590000  0.5 0.0722083303
C  C248  1  0.17500000  0.48370000  0.48590000  0.5 0.0771818164
C  C249  1  0.98370000  0.17500000  0.73590000  0.5 0.0198467273
C  C250  1  0.01630000  0.82500000  0.23590000  0.5 0.0303038263
C  C251  1  0.17500000  0.01630000  0.48590000  0.5 0.0198467273
C  C252  1  0.82500000  0.98370000  0.98590000  0.5 0.0396094956
C  C253  1  0.98370000  0.82500000  0.26410000  0.5 0.0198467273
C  C254  1  0.01630000  0.17500000  0.76410000  0.5 0.0303038263
C  C255  1  0.17500000  0.98370000  0.51410000  0.5 0.0198467273
C  C256  1  0.82500000  0.01630000  0.01410000  0.5 0.0396094956
C  C257  1  0.48370000  0.67500000  0.23590000  0.5 0.0469387499
C  C258  1  0.51630000  0.32500000  0.73590000  0.5 0.0396094956
C  C259  1  0.67500000  0.01630000  0.48590000  0.5 -0.028789252
C  C260  1  0.82500000  0.98370000  0.48590000  0.5 -0.028789252
C  C261  1  0.48370000  0.32500000  0.76410000  0.5 0.0469387499
C  C262  1  0.51630000  0.67500000  0.26410000  0.5 0.0396094956
C  C263  1  0.67500000  0.98370000  0.51410000  0.5 -0.028789252
C  C264  1  0.82500000  0.01630000  0.51410000  0.5 -0.028789252
C  C265  1  0.04710000  0.32040000  0.75390000  0.5 -0.0193587125
C  C266  1  0.95290000  0.67960000  0.25390000  0.5 -0.0193587125
C  C267  1  0.32040000  0.95290000  0.50390000  0.5 -0.028789252
C  C268  1  0.67960000  0.04710000  0.00390000  0.5 -0.0090868497
C  C269  1  0.04710000  0.67960000  0.24610000  0.5 -0.0193587125
C  C270  1  0.95290000  0.32040000  0.74610000  0.5 -0.0193587125
C  C271  1  0.32040000  0.04710000  0.49610000  0.5 -0.028789252
C  C272  1  0.67960000  0.95290000  0.99610000  0.5 -0.0090868497
C  C273  1  0.54710000  0.82040000  0.25390000  0.5 -0.0090868497
C  C274  1  0.45290000  0.17960000  0.75390000  0.5 0.0015500077
C  C275  1  0.82040000  0.45290000  0.00390000  0.5 0.0198467273
C  C276  1  0.17960000  0.54710000  0.50390000  0.5 0.0100752896
C  C277  1  0.54710000  0.17960000  0.74610000  0.5 -0.0090868497
C  C278  1  0.45290000  0.82040000  0.24610000  0.5 0.0015500077
C  C279  1  0.82040000  0.54710000  0.99610000  0.5 0.0100752896
C  C280  1  0.17960000  0.45290000  0.49610000  0.5 0.0198467273
C  C281  1  0.95290000  0.17960000  0.74610000  0.5 -0.0193587125
C  C282  1  0.04710000  0.82040000  0.24610000  0.5 -0.0193587125
C  C283  1  0.17960000  0.04710000  0.49610000  0.5 -0.0193587125
C  C284  1  0.82040000  0.95290000  0.99610000  0.5 -0.0090868497
C  C285  1  0.95290000  0.82040000  0.25390000  0.5 -0.028789252
C  C286  1  0.04710000  0.17960000  0.75390000  0.5 -0.0193587125
C  C287  1  0.17960000  0.95290000  0.50390000  0.5 -0.0193587125
C  C288  1  0.82040000  0.04710000  0.00390000  0.5 -0.0090868497
C  C289  1  0.45290000  0.67960000  0.24610000  0.5 -0.0090868497
C  C290  1  0.54710000  0.32040000  0.74610000  0.5 -0.0193587125
C  C291  1  0.67960000  0.04710000  0.49610000  0.5 -0.0513588323
C  C292  1  0.82040000  0.95290000  0.49610000  0.5 -0.0598158712
C  C293  1  0.45290000  0.32040000  0.75390000  0.5 -0.0090868497
C  C294  1  0.54710000  0.67960000  0.25390000  0.5 -0.0193587125
C  C295  1  0.67960000  0.95290000  0.50390000  0.5 -0.0513588323
C  C296  1  0.82040000  0.04710000  0.50390000  0.5 -0.0598158712
Br  Br1  1  0.97580000  0.41300000  0.82050000  0.12 -0.0789330088
Br  Br2  1  0.02420000  0.58700000  0.32050000  0.12 -0.0675554233
Br  Br3  1  0.41300000  0.02420000  0.57050000  0.12 -0.0193587125
Br  Br4  1  0.58700000  0.97580000  0.07050000  0.12 -0.0903119933
Br  Br5  1  0.97580000  0.58700000  0.17950000  0.12 -0.0789330088
Br  Br6  1  0.02420000  0.41300000  0.67950000  0.12 -0.0675554233
Br  Br7  1  0.41300000  0.97580000  0.42950000  0.12 -0.0193587125
Br  Br8  1  0.58700000  0.02420000  0.92950000  0.12 -0.0903119933
Br  Br9  1  0.47580000  0.91300000  0.32050000  0.12 -0.0406061899
Br  Br10  1  0.52420000  0.08700000  0.82050000  0.12 -0.0789330088
Br  Br11  1  0.91300000  0.52420000  0.07050000  0.12 -0.0903119933
Br  Br12  1  0.08700000  0.47580000  0.57050000  0.12 -0.0903119933
Br  Br13  1  0.47580000  0.08700000  0.67950000  0.12 -0.0406061899
Br  Br14  1  0.52420000  0.91300000  0.17950000  0.12 -0.0789330088
Br  Br15  1  0.91300000  0.47580000  0.92950000  0.12 -0.0903119933
Br  Br16  1  0.08700000  0.52420000  0.42950000  0.12 -0.0903119933
Br  Br17  1  0.02420000  0.08700000  0.67950000  0.12 -0.0598158712
Br  Br18  1  0.97580000  0.91300000  0.17950000  0.12 -0.0903119933
Br  Br19  1  0.08700000  0.97580000  0.42950000  0.12 -0.0406061899
Br  Br20  1  0.91300000  0.02420000  0.92950000  0.12 -0.0903119933
Br  Br21  1  0.02420000  0.91300000  0.32050000  0.12 -0.0598158712
Br  Br22  1  0.97580000  0.08700000  0.82050000  0.12 -0.0903119933
Br  Br23  1  0.08700000  0.02420000  0.57050000  0.12 -0.0406061899
Br  Br24  1  0.91300000  0.97580000  0.07050000  0.12 -0.0903119933
Br  Br25  1  0.52420000  0.58700000  0.17950000  0.12 -0.0973570716
Br  Br26  1  0.47580000  0.41300000  0.67950000  0.12 -0.0903119933
Br  Br27  1  0.58700000  0.97580000  0.42950000  0.12 0.0015500077
Br  Br28  1  0.91300000  0.02420000  0.42950000  0.12 -0.028789252
Br  Br29  1  0.52420000  0.41300000  0.82050000  0.12 -0.0973570716
Br  Br30  1  0.47580000  0.58700000  0.32050000  0.12 -0.0903119933
Br  Br31  1  0.58700000  0.02420000  0.57050000  0.12 -0.0022706759
Br  Br32  1  0.91300000  0.97580000  0.57050000  0.12 -0.028789252
Br  Br33  1  0.00940000  0.46930000  0.81267000  0.12 -0.0598158712
Br  Br34  1  0.99060000  0.53070000  0.31267000  0.12 -0.0406061899
Br  Br35  1  0.46930000  0.99060000  0.56267000  0.12 -0.0193587125
Br  Br36  1  0.53070000  0.00940000  0.06267000  0.12 -0.0675554233
Br  Br37  1  0.00940000  0.53070000  0.18733000  0.12 -0.0598158712
Br  Br38  1  0.99060000  0.46930000  0.68733000  0.12 -0.0406061899
Br  Br39  1  0.46930000  0.00940000  0.43733000  0.12 -0.0193587125
Br  Br40  1  0.53070000  0.99060000  0.93733000  0.12 -0.0675554233
Br  Br41  1  0.50940000  0.96930000  0.31267000  0.12 -0.0789330088
Br  Br42  1  0.49060000  0.03070000  0.81267000  0.12 -0.0675554233
Br  Br43  1  0.96930000  0.49060000  0.06267000  0.12 -0.0789330088
Br  Br44  1  0.03070000  0.50940000  0.56267000  0.12 -0.0789330088
Br  Br45  1  0.50940000  0.03070000  0.68733000  0.12 -0.0789330088
Br  Br46  1  0.49060000  0.96930000  0.18733000  0.12 -0.0675554233
Br  Br47  1  0.96930000  0.50940000  0.93733000  0.12 -0.0789330088
Br  Br48  1  0.03070000  0.49060000  0.43733000  0.12 -0.0789330088
Br  Br49  1  0.99060000  0.03070000  0.68733000  0.12 -0.0598158712
Br  Br50  1  0.00940000  0.96930000  0.18733000  0.12 -0.0675554233
Br  Br51  1  0.03070000  0.00940000  0.43733000  0.12 -0.0513588323
Br  Br52  1  0.96930000  0.99060000  0.93733000  0.12 -0.0598158712
Br  Br53  1  0.99060000  0.96930000  0.31267000  0.12 -0.0598158712
Br  Br54  1  0.00940000  0.03070000  0.81267000  0.12 -0.0675554233
Br  Br55  1  0.03070000  0.99060000  0.56267000  0.12 -0.0406061899
Br  Br56  1  0.96930000  0.00940000  0.06267000  0.12 -0.0675554233
Br  Br57  1  0.49060000  0.53070000  0.18733000  0.12 -0.0598158712
Br  Br58  1  0.50940000  0.46930000  0.68733000  0.12 -0.0675554233
Br  Br59  1  0.53070000  0.00940000  0.43733000  0.12 0.0198467273
Br  Br60  1  0.96930000  0.99060000  0.43733000  0.12 -0.0022706759
Br  Br61  1  0.49060000  0.46930000  0.81267000  0.12 -0.0598158712
Br  Br62  1  0.50940000  0.53070000  0.31267000  0.12 -0.0598158712
Br  Br63  1  0.53070000  0.99060000  0.56267000  0.12 0.0198467273
Br  Br64  1  0.96930000  0.00940000  0.56267000  0.12 -0.0022706759
Br  Br65  1  0.13930000  0.44780000  0.92209000  0.12 0.0469387499
Br  Br66  1  0.86070000  0.55220000  0.42209000  0.12 0.0396094956
Br  Br67  1  0.44780000  0.86070000  0.67209000  0.12 -0.1376410496
Br  Br68  1  0.55220000  0.13930000  0.17209000  0.12 -0.0406061899
Br  Br69  1  0.13930000  0.55220000  0.07791000  0.12 0.0396094956
Br  Br70  1  0.86070000  0.44780000  0.57791000  0.12 0.0396094956
Br  Br71  1  0.44780000  0.13930000  0.32791000  0.12 -0.1376410496
Br  Br72  1  0.55220000  0.86070000  0.82791000  0.12 -0.028789252
Br  Br73  1  0.63930000  0.94780000  0.42209000  0.12 0.0100752896
Br  Br74  1  0.36070000  0.05220000  0.92209000  0.12 0.0396094956
Br  Br75  1  0.94780000  0.36070000  0.17209000  0.12 0.0396094956
Br  Br76  1  0.05220000  0.63930000  0.67209000  0.12 0.0303038263
Br  Br77  1  0.63930000  0.05220000  0.57791000  0.12 0.0100752896
Br  Br78  1  0.36070000  0.94780000  0.07791000  0.12 0.0396094956
Br  Br79  1  0.94780000  0.63930000  0.82791000  0.12 0.0396094956
Br  Br80  1  0.05220000  0.36070000  0.32791000  0.12 0.0303038263
Br  Br81  1  0.86070000  0.05220000  0.57791000  0.12 0.0771818164
Br  Br82  1  0.13930000  0.94780000  0.07791000  0.12 0.0396094956
Br  Br83  1  0.05220000  0.13930000  0.32791000  0.12 0.0579139171
Br  Br84  1  0.94780000  0.86070000  0.82791000  0.12 0.0396094956
Br  Br85  1  0.86070000  0.94780000  0.42209000  0.12 0.0771818164
Br  Br86  1  0.13930000  0.05220000  0.92209000  0.12 0.0396094956
Br  Br87  1  0.05220000  0.86070000  0.67209000  0.12 0.0579139171
Br  Br88  1  0.94780000  0.13930000  0.17209000  0.12 0.0396094956
Br  Br89  1  0.36070000  0.55220000  0.07791000  0.12 0.0100752896
Br  Br90  1  0.63930000  0.44780000  0.57791000  0.12 0.0994232225
Br  Br91  1  0.55220000  0.13930000  0.32791000  0.12 -0.1290218641
Br  Br92  1  0.94780000  0.86070000  0.32791000  0.12 0.0771818164
Br  Br93  1  0.36070000  0.44780000  0.92209000  0.12 0.0100752896
Br  Br94  1  0.63930000  0.55220000  0.42209000  0.12 0.0994232225
Br  Br95  1  0.55220000  0.86070000  0.67209000  0.12 -0.1290218641
Br  Br96  1  0.94780000  0.13930000  0.67209000  0.12 0.0771818164
Br  Br97  1  0.17420000  0.48420000  0.91383000  0.12 -0.0090868497
Br  Br98  1  0.82580000  0.51580000  0.41383000  0.12 0.0469387499
Br  Br99  1  0.48420000  0.82580000  0.66383000  0.12 -0.1675371823
Br  Br100  1  0.51580000  0.17420000  0.16383000  0.12 -0.028789252
Br  Br101  1  0.17420000  0.51580000  0.08617000  0.12 -0.0090868497
Br  Br102  1  0.82580000  0.48420000  0.58617000  0.12 0.0396094956
Br  Br103  1  0.48420000  0.17420000  0.33617000  0.12 -0.1675371823
Br  Br104  1  0.51580000  0.82580000  0.83617000  0.12 -0.028789252
Br  Br105  1  0.67420000  0.98420000  0.41383000  0.12 0.0303038263
Br  Br106  1  0.32580000  0.01580000  0.91383000  0.12 0.0198467273
Br  Br107  1  0.98420000  0.32580000  0.16383000  0.12 0.0100752896
Br  Br108  1  0.01580000  0.67420000  0.66383000  0.12 0.0198467273
Br  Br109  1  0.67420000  0.01580000  0.58617000  0.12 0.0303038263
Br  Br110  1  0.32580000  0.98420000  0.08617000  0.12 0.0198467273
Br  Br111  1  0.98420000  0.67420000  0.83617000  0.12 0.0100752896
Br  Br112  1  0.01580000  0.32580000  0.33617000  0.12 0.0198467273
Br  Br113  1  0.82580000  0.01580000  0.58617000  0.12 0.0469387499
Br  Br114  1  0.17420000  0.98420000  0.08617000  0.12 0.0198467273
Br  Br115  1  0.01580000  0.17420000  0.33617000  0.12 0.0396094956
Br  Br116  1  0.98420000  0.82580000  0.83617000  0.12 0.0198467273
Br  Br117  1  0.82580000  0.98420000  0.41383000  0.12 0.0469387499
Br  Br118  1  0.17420000  0.01580000  0.91383000  0.12 0.0198467273
Br  Br119  1  0.01580000  0.82580000  0.66383000  0.12 0.0396094956
Br  Br120  1  0.98420000  0.17420000  0.16383000  0.12 0.0198467273
Br  Br121  1  0.32580000  0.51580000  0.08617000  0.12 -0.0513588323
Br  Br122  1  0.67420000  0.48420000  0.58617000  0.12 0.0100752896
Br  Br123  1  0.51580000  0.17420000  0.33617000  0.12 -0.1675371823
Br  Br124  1  0.98420000  0.82580000  0.33617000  0.12 0.0100752896
Br  Br125  1  0.32580000  0.48420000  0.91383000  0.12 -0.0513588323
Br  Br126  1  0.67420000  0.51580000  0.41383000  0.12 0.0198467273
Br  Br127  1  0.51580000  0.82580000  0.66383000  0.12 -0.1675371823
Br  Br128  1  0.98420000  0.17420000  0.66383000  0.12 0.0100752896
Br  Br129  1  0.04380000  0.43900000  0.77380000  0.12 0.0198467273
Br  Br130  1  0.95620000  0.56100000  0.27380000  0.12 0.0198467273
Br  Br131  1  0.43900000  0.95620000  0.52380000  0.12 0.0303038263
Br  Br132  1  0.56100000  0.04380000  0.02380000  0.12 0.0100752896
Br  Br133  1  0.04380000  0.56100000  0.22620000  0.12 0.0198467273
Br  Br134  1  0.95620000  0.43900000  0.72620000  0.12 0.0198467273
Br  Br135  1  0.43900000  0.04380000  0.47620000  0.12 0.0303038263
Br  Br136  1  0.56100000  0.95620000  0.97620000  0.12 0.0198467273
Br  Br137  1  0.54380000  0.93900000  0.27380000  0.12 0.0396094956
Br  Br138  1  0.45620000  0.06100000  0.77380000  0.12 0.0396094956
Br  Br139  1  0.93900000  0.45620000  0.02380000  0.12 0.0100752896
Br  Br140  1  0.06100000  0.54380000  0.52380000  0.12 0.0198467273
Br  Br141  1  0.54380000  0.06100000  0.72620000  0.12 0.0469387499
Br  Br142  1  0.45620000  0.93900000  0.22620000  0.12 0.0396094956
Br  Br143  1  0.93900000  0.54380000  0.97620000  0.12 0.0198467273
Br  Br144  1  0.06100000  0.45620000  0.47620000  0.12 0.0198467273
Br  Br145  1  0.95620000  0.06100000  0.72620000  0.12 0.0198467273
Br  Br146  1  0.04380000  0.93900000  0.22620000  0.12 0.0198467273
Br  Br147  1  0.06100000  0.04380000  0.47620000  0.12 0.0396094956
Br  Br148  1  0.93900000  0.95620000  0.97620000  0.12 0.0100752896
Br  Br149  1  0.95620000  0.93900000  0.27380000  0.12 0.0198467273
Br  Br150  1  0.04380000  0.06100000  0.77380000  0.12 0.0198467273
Br  Br151  1  0.06100000  0.95620000  0.52380000  0.12 0.0396094956
Br  Br152  1  0.93900000  0.04380000  0.02380000  0.12 0.0100752896
Br  Br153  1  0.45620000  0.56100000  0.22620000  0.12 0.0198467273
Br  Br154  1  0.54380000  0.43900000  0.72620000  0.12 0.0198467273
Br  Br155  1  0.56100000  0.04380000  0.47620000  0.12 0.0303038263
Br  Br156  1  0.93900000  0.95620000  0.47620000  0.12 0.0579139171
Br  Br157  1  0.45620000  0.43900000  0.77380000  0.12 0.0198467273
Br  Br158  1  0.54380000  0.56100000  0.27380000  0.12 0.0198467273
Br  Br159  1  0.56100000  0.95620000  0.52380000  0.12 0.0396094956
Br  Br160  1  0.93900000  0.04380000  0.52380000  0.12 0.0579139171
Br  Br161  1  0.00660000  0.42220000  0.78572000  0.12 -0.0513588323
Br  Br162  1  0.99340000  0.57780000  0.28572000  0.12 -0.0406061899
Br  Br163  1  0.42220000  0.99340000  0.53572000  0.12 -0.0193587125
Br  Br164  1  0.57780000  0.00660000  0.03572000  0.12 -0.0598158712
Br  Br165  1  0.00660000  0.57780000  0.21428000  0.12 -0.0513588323
Br  Br166  1  0.99340000  0.42220000  0.71428000  0.12 -0.0406061899
Br  Br167  1  0.42220000  0.00660000  0.46428000  0.12 -0.0193587125
Br  Br168  1  0.57780000  0.99340000  0.96428000  0.12 -0.0598158712
Br  Br169  1  0.50660000  0.92220000  0.28572000  0.12 -0.0090868497
Br  Br170  1  0.49340000  0.07780000  0.78572000  0.12 -0.0406061899
Br  Br171  1  0.92220000  0.49340000  0.03572000  0.12 -0.0193587125
Br  Br172  1  0.07780000  0.50660000  0.53572000  0.12 -0.028789252
Br  Br173  1  0.50660000  0.07780000  0.71428000  0.12 -0.0090868497
Br  Br174  1  0.49340000  0.92220000  0.21428000  0.12 -0.028789252
Br  Br175  1  0.92220000  0.50660000  0.96428000  0.12 -0.0193587125
Br  Br176  1  0.07780000  0.49340000  0.46428000  0.12 -0.028789252
Br  Br177  1  0.99340000  0.07780000  0.71428000  0.12 -0.0513588323
Br  Br178  1  0.00660000  0.92220000  0.21428000  0.12 -0.0513588323
Br  Br179  1  0.07780000  0.00660000  0.46428000  0.12 -0.0406061899
Br  Br180  1  0.92220000  0.99340000  0.96428000  0.12 -0.0513588323
Br  Br181  1  0.99340000  0.92220000  0.28572000  0.12 -0.0513588323
Br  Br182  1  0.00660000  0.07780000  0.78572000  0.12 -0.0513588323
Br  Br183  1  0.07780000  0.99340000  0.53572000  0.12 -0.0406061899
Br  Br184  1  0.92220000  0.00660000  0.03572000  0.12 -0.0598158712
Br  Br185  1  0.49340000  0.57780000  0.21428000  0.12 -0.0675554233
Br  Br186  1  0.50660000  0.42220000  0.71428000  0.12 -0.0675554233
Br  Br187  1  0.57780000  0.00660000  0.46428000  0.12 -0.0022706759
Br  Br188  1  0.92220000  0.99340000  0.46428000  0.12 -0.0193587125
Br  Br189  1  0.49340000  0.42220000  0.78572000  0.12 -0.0675554233
Br  Br190  1  0.50660000  0.57780000  0.28572000  0.12 -0.0675554233
Br  Br191  1  0.57780000  0.99340000  0.53572000  0.12 -0.0022706759
Br  Br192  1  0.92220000  0.00660000  0.53572000  0.12 -0.028789252
O  O1  1  0.25000000  0.25000000  0.83401000  1.0 -0.8700071571
O  O2  1  0.75000000  0.75000000  0.33401000  1.0 -0.8904377567
O  O3  1  0.25000000  0.75000000  0.58401000  1.0 -0.8988885728
O  O4  1  0.75000000  0.25000000  0.08401000  1.0 -0.9584642199
O  O5  1  0.25000000  0.75000000  0.16599000  1.0 -0.8700071571
O  O6  1  0.75000000  0.25000000  0.66599000  1.0 -0.8904377567
O  O7  1  0.25000000  0.25000000  0.41599000  1.0 -0.8988885728
O  O8  1  0.75000000  0.75000000  0.91599000  1.0 -0.9584642199
O  O9  1  0.75000000  0.25000000  0.41599000  1.0 -0.8389182833
O  O10  1  0.75000000  0.75000000  0.41599000  1.0 -0.8904377567
O  O11  1  0.75000000  0.75000000  0.58401000  1.0 -0.8389182833
O  O12  1  0.75000000  0.25000000  0.58401000  1.0 -0.884459093
O  O13  1  0.15750000  0.34180000  0.87400000  1.0 -0.4522648868
O  O14  1  0.84250000  0.65820000  0.37400000  1.0 -0.5010861028
O  O15  1  0.34180000  0.84250000  0.62400000  1.0 -0.4792051045
O  O16  1  0.65820000  0.15750000  0.12400000  1.0 -0.4792051045
O  O17  1  0.15750000  0.65820000  0.12600000  1.0 -0.4522648868
O  O18  1  0.84250000  0.34180000  0.62600000  1.0 -0.5010861028
O  O19  1  0.34180000  0.15750000  0.37600000  1.0 -0.4792051045
O  O20  1  0.65820000  0.84250000  0.87600000  1.0 -0.4792051045
O  O21  1  0.65750000  0.84180000  0.37400000  1.0 -0.4606005909
O  O22  1  0.34250000  0.15820000  0.87400000  1.0 -0.4522648868
O  O23  1  0.84180000  0.34250000  0.12400000  1.0 -0.4792051045
O  O24  1  0.15820000  0.65750000  0.62400000  1.0 -0.4702354183
O  O25  1  0.65750000  0.15820000  0.62600000  1.0 -0.4606005909
O  O26  1  0.34250000  0.84180000  0.12600000  1.0 -0.4522648868
O  O27  1  0.84180000  0.65750000  0.87600000  1.0 -0.4792051045
O  O28  1  0.15820000  0.34250000  0.37600000  1.0 -0.4792051045
O  O29  1  0.84250000  0.15820000  0.62600000  1.0 -0.4606005909
O  O30  1  0.15750000  0.84180000  0.12600000  1.0 -0.4522648868
O  O31  1  0.15820000  0.15750000  0.37600000  1.0 -0.4226223675
O  O32  1  0.84180000  0.84250000  0.87600000  1.0 -0.4606005909
O  O33  1  0.84250000  0.84180000  0.37400000  1.0 -0.4606005909
O  O34  1  0.15750000  0.15820000  0.87400000  1.0 -0.4522648868
O  O35  1  0.15820000  0.84250000  0.62400000  1.0 -0.4226223675
O  O36  1  0.84180000  0.15750000  0.12400000  1.0 -0.4606005909
O  O37  1  0.34250000  0.65820000  0.12600000  1.0 -0.4702354183
O  O38  1  0.65750000  0.34180000  0.62600000  1.0 -0.5477273611
O  O39  1  0.65820000  0.15750000  0.37600000  1.0 -0.4893657626
O  O40  1  0.84180000  0.84250000  0.37600000  1.0 -0.4702354183
O  O41  1  0.34250000  0.34180000  0.87400000  1.0 -0.4792051045
O  O42  1  0.65750000  0.65820000  0.37400000  1.0 -0.5477273611
O  O43  1  0.65820000  0.84250000  0.62400000  1.0 -0.4893657626
O  O44  1  0.84180000  0.15750000  0.62400000  1.0 -0.4702354183
O  O45  1  0.16280000  0.40570000  0.83715000  1.0 -0.5010861028
O  O46  1  0.83720000  0.59430000  0.33715000  1.0 -0.4702354183
O  O47  1  0.40570000  0.83720000  0.58715000  1.0 -0.4702354183
O  O48  1  0.59430000  0.16280000  0.08715000  1.0 -0.5190326897
O  O49  1  0.16280000  0.59430000  0.16285000  1.0 -0.5010861028
O  O50  1  0.83720000  0.40570000  0.66285000  1.0 -0.4606005909
O  O51  1  0.40570000  0.16280000  0.41285000  1.0 -0.4702354183
O  O52  1  0.59430000  0.83720000  0.91285000  1.0 -0.5190326897
O  O53  1  0.66280000  0.90570000  0.33715000  1.0 -0.431079144
O  O54  1  0.33720000  0.09430000  0.83715000  1.0 -0.5131876516
O  O55  1  0.90570000  0.33720000  0.08715000  1.0 -0.5010861028
O  O56  1  0.09430000  0.66280000  0.58715000  1.0 -0.5010861028
O  O57  1  0.66280000  0.09430000  0.66285000  1.0 -0.431079144
O  O58  1  0.33720000  0.90570000  0.16285000  1.0 -0.5131876516
O  O59  1  0.90570000  0.66280000  0.91285000  1.0 -0.5010861028
O  O60  1  0.09430000  0.33720000  0.41285000  1.0 -0.5010861028
O  O61  1  0.83720000  0.09430000  0.66285000  1.0 -0.3800051508
O  O62  1  0.16280000  0.90570000  0.16285000  1.0 -0.5190326897
O  O63  1  0.09430000  0.16280000  0.41285000  1.0 -0.5010861028
O  O64  1  0.90570000  0.83720000  0.91285000  1.0 -0.5010861028
O  O65  1  0.83720000  0.90570000  0.33715000  1.0 -0.3800051508
O  O66  1  0.16280000  0.09430000  0.83715000  1.0 -0.5131876516
O  O67  1  0.09430000  0.83720000  0.58715000  1.0 -0.5010861028
O  O68  1  0.90570000  0.16280000  0.08715000  1.0 -0.5010861028
O  O69  1  0.33720000  0.59430000  0.16285000  1.0 -0.5190326897
O  O70  1  0.66280000  0.40570000  0.66285000  1.0 -0.5010861028
O  O71  1  0.59430000  0.16280000  0.41285000  1.0 -0.4702354183
O  O72  1  0.90570000  0.83720000  0.41285000  1.0 -0.400275409
O  O73  1  0.33720000  0.40570000  0.83715000  1.0 -0.5190326897
O  O74  1  0.66280000  0.59430000  0.33715000  1.0 -0.5010861028
O  O75  1  0.59430000  0.83720000  0.58715000  1.0 -0.4792051045
O  O76  1  0.90570000  0.16280000  0.58715000  1.0 -0.400275409
O  O77  1  0.16220000  0.31780000  0.79190000  1.0 -0.4606005909
O  O78  1  0.83780000  0.68220000  0.29190000  1.0 -0.431079144
O  O79  1  0.31780000  0.83780000  0.54190000  1.0 -0.4606005909
O  O80  1  0.68220000  0.16220000  0.04190000  1.0 -0.4893657626
O  O81  1  0.16220000  0.68220000  0.20810000  1.0 -0.4606005909
O  O82  1  0.83780000  0.31780000  0.70810000  1.0 -0.431079144
O  O83  1  0.31780000  0.16220000  0.45810000  1.0 -0.4606005909
O  O84  1  0.68220000  0.83780000  0.95810000  1.0 -0.4792051045
O  O85  1  0.66220000  0.81780000  0.29190000  1.0 -0.4118373242
O  O86  1  0.33780000  0.18220000  0.79190000  1.0 -0.4606005909
O  O87  1  0.81780000  0.33780000  0.04190000  1.0 -0.4893657626
O  O88  1  0.18220000  0.66220000  0.54190000  1.0 -0.4893657626
O  O89  1  0.66220000  0.18220000  0.70810000  1.0 -0.4118373242
O  O90  1  0.33780000  0.81780000  0.20810000  1.0 -0.4606005909
O  O91  1  0.81780000  0.66220000  0.95810000  1.0 -0.4893657626
O  O92  1  0.18220000  0.33780000  0.45810000  1.0 -0.4893657626
O  O93  1  0.83780000  0.18220000  0.70810000  1.0 -0.4606005909
O  O94  1  0.16220000  0.81780000  0.20810000  1.0 -0.4606005909
O  O95  1  0.18220000  0.16220000  0.45810000  1.0 -0.4522648868
O  O96  1  0.81780000  0.83780000  0.95810000  1.0 -0.4606005909
O  O97  1  0.83780000  0.81780000  0.29190000  1.0 -0.4606005909
O  O98  1  0.16220000  0.18220000  0.79190000  1.0 -0.4606005909
O  O99  1  0.18220000  0.83780000  0.54190000  1.0 -0.4522648868
O  O100  1  0.81780000  0.16220000  0.04190000  1.0 -0.4606005909
O  O101  1  0.33780000  0.68220000  0.20810000  1.0 -0.4522648868
O  O102  1  0.66220000  0.31780000  0.70810000  1.0 -0.431079144
O  O103  1  0.68220000  0.16220000  0.45810000  1.0 -0.4606005909
O  O104  1  0.81780000  0.83780000  0.45810000  1.0 -0.4416328815
O  O105  1  0.33780000  0.31780000  0.79190000  1.0 -0.4522648868
O  O106  1  0.66220000  0.68220000  0.29190000  1.0 -0.431079144
O  O107  1  0.68220000  0.83780000  0.54190000  1.0 -0.4606005909
O  O108  1  0.81780000  0.16220000  0.54190000  1.0 -0.4416328815
O  O109  1  0.75000000  0.75000000  0.41142000  1.0 -0.8700071571
O  O110  1  0.75000000  0.25000000  0.58858000  1.0 -0.8700071571
O  O111  1  0.75000000  0.75000000  0.33858000  1.0 -0.8988885728
O  O112  1  0.75000000  0.25000000  0.66142000  1.0 -0.8988885728
O  O113  1  0.46120000  0.75000000  0.54625000  1.0 -0.1072024514
O  O114  1  0.46120000  0.25000000  0.45375000  1.0 -0.1072024514
O  O115  1  0.53880000  0.25000000  0.45375000  1.0 -0.152535252
O  O116  1  0.53880000  0.75000000  0.54625000  1.0 -0.1550105361
