# DDEC6 charges by PACMAN v1.1 (https://github.com/mtap-research/PACMAN-charge/)
data_c7qi00734e2_1_FSR_pacman
_symmetry_space_group_name_H-M   'P 1'
_cell_length_a   22.39800000
_cell_length_b   26.82040000
_cell_length_c   30.46850000
_cell_angle_alpha   90.00000000
_cell_angle_beta   90.00000000
_cell_angle_gamma   90.00000000
_symmetry_Int_Tables_number   1
_chemical_formula_structural   Ca4H75C78(NO9)3
_chemical_formula_sum   'Ca32 H600 C624 N24 O216'
_cell_volume   18303.13845105
_cell_formula_units_Z   8
loop_
 _symmetry_equiv_pos_site_id
 _symmetry_equiv_pos_as_xyz
  1  'x, y, z'
loop_
 _atom_site_type_symbol
 _atom_site_label
 _atom_site_symmetry_multiplicity
 _atom_site_fract_x
 _atom_site_fract_y
 _atom_site_fract_z
 _atom_site_occupancy
 _atom_site_charge
Ca  Ca1  1  0.44457000  0.44363000  0.28149000  1.0 1.3052913124
Ca  Ca2  1  0.05543000  0.94363000  0.71851000  1.0 1.3052913124
Ca  Ca3  1  0.55543000  0.05637000  0.78149000  1.0 1.3052913124
Ca  Ca4  1  0.94457000  0.55637000  0.21851000  1.0 1.3052913124
Ca  Ca5  1  0.55543000  0.55637000  0.71851000  1.0 1.3052913124
Ca  Ca6  1  0.94457000  0.05637000  0.28149000  1.0 1.3052913124
Ca  Ca7  1  0.44457000  0.94363000  0.21851000  1.0 1.3052913124
Ca  Ca8  1  0.05543000  0.44363000  0.78149000  1.0 1.3052913124
Ca  Ca9  1  0.54189000  0.78073000  0.74750000  1.0 1.3377804929
Ca  Ca10  1  0.95811000  0.28073000  0.25250000  1.0 1.3377804929
Ca  Ca11  1  0.45811000  0.71927000  0.24750000  1.0 1.3377804929
Ca  Ca12  1  0.04189000  0.21927000  0.75250000  1.0 1.3377804929
Ca  Ca13  1  0.45811000  0.21927000  0.25250000  1.0 1.3377804929
Ca  Ca14  1  0.04189000  0.71927000  0.74750000  1.0 1.3377804929
Ca  Ca15  1  0.54189000  0.28073000  0.75250000  1.0 1.3377804929
Ca  Ca16  1  0.95811000  0.78073000  0.24750000  1.0 1.3377804929
Ca  Ca17  1  0.95910000  0.33767000  0.76080000  1.0 1.418637904
Ca  Ca18  1  0.54090000  0.83767000  0.23920000  1.0 1.418637904
Ca  Ca19  1  0.04090000  0.16233000  0.26080000  1.0 1.418637904
Ca  Ca20  1  0.45910000  0.66233000  0.73920000  1.0 1.418637904
Ca  Ca21  1  0.04090000  0.66233000  0.23920000  1.0 1.418637904
Ca  Ca22  1  0.45910000  0.16233000  0.76080000  1.0 1.418637904
Ca  Ca23  1  0.95910000  0.83767000  0.73920000  1.0 1.418637904
Ca  Ca24  1  0.54090000  0.33767000  0.26080000  1.0 1.418637904
Ca  Ca25  1  0.99720000  0.42208000  0.24792000  1.0 1.3713694984
Ca  Ca26  1  0.50280000  0.92208000  0.75208000  1.0 1.3713694984
Ca  Ca27  1  0.00280000  0.07792000  0.74792000  1.0 1.3713694984
Ca  Ca28  1  0.49720000  0.57792000  0.25208000  1.0 1.3713694984
Ca  Ca29  1  0.00280000  0.57792000  0.75208000  1.0 1.3713694984
Ca  Ca30  1  0.49720000  0.07792000  0.24792000  1.0 1.3713694984
Ca  Ca31  1  0.99720000  0.92208000  0.25208000  1.0 1.3713694984
Ca  Ca32  1  0.50280000  0.42208000  0.74792000  1.0 1.3713694984
H  H1  1  0.81843000  0.62411000  0.49480000  1.0 0.0994708614
H  H2  1  0.68157000  0.12411000  0.50520000  1.0 0.0994708614
H  H3  1  0.18157000  0.87589000  0.99480000  1.0 0.0994708614
H  H4  1  0.31843000  0.37589000  0.00520000  1.0 0.0994708614
H  H5  1  0.18157000  0.37589000  0.50520000  1.0 0.0994708614
H  H6  1  0.31843000  0.87589000  0.49480000  1.0 0.0994708614
H  H7  1  0.81843000  0.12411000  0.00520000  1.0 0.0994708614
H  H8  1  0.68157000  0.62411000  0.99480000  1.0 0.0994708614
H  H9  1  0.77208000  0.60519000  0.45973000  1.0 0.0994708614
H  H10  1  0.72792000  0.10519000  0.54027000  1.0 0.0994708614
H  H11  1  0.22792000  0.89481000  0.95973000  1.0 0.0994708614
H  H12  1  0.27208000  0.39481000  0.04027000  1.0 0.0994708614
H  H13  1  0.22792000  0.39481000  0.54027000  1.0 0.0994708614
H  H14  1  0.27208000  0.89481000  0.45973000  1.0 0.0994708614
H  H15  1  0.77208000  0.10519000  0.04027000  1.0 0.0994708614
H  H16  1  0.72792000  0.60519000  0.95973000  1.0 0.0994708614
H  H17  1  0.94021000  0.56766000  0.39634000  1.0 0.1295506394
H  H18  1  0.55979000  0.06766000  0.60366000  1.0 0.1295506394
H  H19  1  0.05979000  0.93234000  0.89634000  1.0 0.1295506394
H  H20  1  0.44021000  0.43234000  0.10366000  1.0 0.1295506394
H  H21  1  0.05979000  0.43234000  0.60366000  1.0 0.1295506394
H  H22  1  0.44021000  0.93234000  0.39634000  1.0 0.1295506394
H  H23  1  0.94021000  0.06766000  0.10366000  1.0 0.1295506394
H  H24  1  0.55979000  0.56766000  0.89634000  1.0 0.1295506394
H  H25  1  0.97620000  0.62089000  0.34330000  1.0 0.1205070567
H  H26  1  0.52380000  0.12089000  0.65670000  1.0 0.1205070567
H  H27  1  0.02380000  0.87911000  0.84330000  1.0 0.1205070567
H  H28  1  0.47620000  0.37911000  0.15670000  1.0 0.1205070567
H  H29  1  0.02380000  0.37911000  0.65670000  1.0 0.1205070567
H  H30  1  0.47620000  0.87911000  0.34330000  1.0 0.1205070567
H  H31  1  0.97620000  0.12089000  0.15670000  1.0 0.1205070567
H  H32  1  0.52380000  0.62089000  0.84330000  1.0 0.1205070567
H  H33  1  0.85678000  0.72458000  0.37862000  1.0 0.1104338183
H  H34  1  0.64322000  0.22458000  0.62138000  1.0 0.1104338183
H  H35  1  0.14322000  0.77542000  0.87862000  1.0 0.1104338183
H  H36  1  0.35678000  0.27542000  0.12138000  1.0 0.1104338183
H  H37  1  0.14322000  0.27542000  0.62138000  1.0 0.1104338183
H  H38  1  0.35678000  0.77542000  0.37862000  1.0 0.1104338183
H  H39  1  0.85678000  0.22458000  0.12138000  1.0 0.1104338183
H  H40  1  0.64322000  0.72458000  0.87862000  1.0 0.1104338183
H  H41  1  0.82222000  0.67261000  0.43291000  1.0 0.1104338183
H  H42  1  0.67778000  0.17261000  0.56709000  1.0 0.1104338183
H  H43  1  0.17778000  0.82739000  0.93291000  1.0 0.1104338183
H  H44  1  0.32222000  0.32739000  0.06709000  1.0 0.1104338183
H  H45  1  0.17778000  0.32739000  0.56709000  1.0 0.1104338183
H  H46  1  0.32222000  0.82739000  0.43291000  1.0 0.1104338183
H  H47  1  0.82222000  0.17261000  0.06709000  1.0 0.1104338183
H  H48  1  0.67778000  0.67261000  0.93291000  1.0 0.1104338183
H  H49  1  0.75914000  0.47824000  0.49672000  1.0 0.0994708614
H  H50  1  0.74086000  0.97824000  0.50328000  1.0 0.0994708614
H  H51  1  0.24086000  0.02176000  0.99672000  1.0 0.0994708614
H  H52  1  0.25914000  0.52176000  0.00328000  1.0 0.0994708614
H  H53  1  0.24086000  0.52176000  0.50328000  1.0 0.0994708614
H  H54  1  0.25914000  0.02176000  0.49672000  1.0 0.0994708614
H  H55  1  0.75914000  0.97824000  0.00328000  1.0 0.0994708614
H  H56  1  0.74086000  0.47824000  0.99672000  1.0 0.0994708614
H  H57  1  0.80097000  0.49692000  0.45840000  1.0 0.1104338183
H  H58  1  0.69903000  0.99692000  0.54160000  1.0 0.1104338183
H  H59  1  0.19903000  0.00308000  0.95840000  1.0 0.1104338183
H  H60  1  0.30097000  0.50308000  0.04160000  1.0 0.1104338183
H  H61  1  0.19903000  0.50308000  0.54160000  1.0 0.1104338183
H  H62  1  0.30097000  0.00308000  0.45840000  1.0 0.1104338183
H  H63  1  0.80097000  0.99692000  0.04160000  1.0 0.1104338183
H  H64  1  0.69903000  0.49692000  0.95840000  1.0 0.1104338183
H  H65  1  0.73916000  0.43345000  0.42252000  1.0 0.1205070567
H  H66  1  0.76084000  0.93345000  0.57748000  1.0 0.1205070567
H  H67  1  0.26084000  0.06655000  0.92252000  1.0 0.1205070567
H  H68  1  0.23916000  0.56655000  0.07748000  1.0 0.1205070567
H  H69  1  0.26084000  0.56655000  0.57748000  1.0 0.1205070567
H  H70  1  0.23916000  0.06655000  0.42252000  1.0 0.1205070567
H  H71  1  0.73916000  0.93345000  0.07748000  1.0 0.1205070567
H  H72  1  0.76084000  0.43345000  0.92252000  1.0 0.1205070567
H  H73  1  0.67828000  0.39196000  0.37213000  1.0 0.1104338183
H  H74  1  0.82172000  0.89196000  0.62787000  1.0 0.1104338183
H  H75  1  0.32172000  0.10804000  0.87213000  1.0 0.1104338183
H  H76  1  0.17828000  0.60804000  0.12787000  1.0 0.1104338183
H  H77  1  0.32172000  0.60804000  0.62787000  1.0 0.1104338183
H  H78  1  0.17828000  0.10804000  0.37213000  1.0 0.1104338183
H  H79  1  0.67828000  0.89196000  0.12787000  1.0 0.1104338183
H  H80  1  0.82172000  0.39196000  0.87213000  1.0 0.1104338183
H  H81  1  0.56309000  0.50693000  0.37368000  1.0 0.1295506394
H  H82  1  0.93691000  0.00693000  0.62632000  1.0 0.1295506394
H  H83  1  0.43691000  0.99307000  0.87368000  1.0 0.1295506394
H  H84  1  0.06309000  0.49307000  0.12632000  1.0 0.1295506394
H  H85  1  0.43691000  0.49307000  0.62632000  1.0 0.1295506394
H  H86  1  0.06309000  0.99307000  0.37368000  1.0 0.1295506394
H  H87  1  0.56309000  0.00693000  0.12632000  1.0 0.1295506394
H  H88  1  0.93691000  0.50693000  0.87368000  1.0 0.1295506394
H  H89  1  0.62250000  0.54736000  0.42401000  1.0 0.1295506394
H  H90  1  0.87750000  0.04736000  0.57599000  1.0 0.1295506394
H  H91  1  0.37750000  0.95264000  0.92401000  1.0 0.1295506394
H  H92  1  0.12250000  0.45264000  0.07599000  1.0 0.1295506394
H  H93  1  0.37750000  0.45264000  0.57599000  1.0 0.1295506394
H  H94  1  0.12250000  0.95264000  0.42401000  1.0 0.1295506394
H  H95  1  0.62250000  0.04736000  0.07599000  1.0 0.1295506394
H  H96  1  0.87750000  0.54736000  0.92401000  1.0 0.1295506394
H  H97  1  0.85533000  0.56628000  0.55370000  1.0 0.1104338183
H  H98  1  0.64467000  0.06628000  0.44630000  1.0 0.1104338183
H  H99  1  0.14467000  0.93372000  0.05370000  1.0 0.1104338183
H  H100  1  0.35533000  0.43372000  0.94630000  1.0 0.1104338183
H  H101  1  0.14467000  0.43372000  0.44630000  1.0 0.1104338183
H  H102  1  0.35533000  0.93372000  0.55370000  1.0 0.1104338183
H  H103  1  0.85533000  0.06628000  0.94630000  1.0 0.1104338183
H  H104  1  0.64467000  0.56628000  0.05370000  1.0 0.1104338183
H  H105  1  0.87845000  0.53141000  0.51587000  1.0 0.1104338183
H  H106  1  0.62155000  0.03141000  0.48413000  1.0 0.1104338183
H  H107  1  0.12155000  0.96859000  0.01587000  1.0 0.1104338183
H  H108  1  0.37845000  0.46859000  0.98413000  1.0 0.1104338183
H  H109  1  0.12155000  0.46859000  0.48413000  1.0 0.1104338183
H  H110  1  0.37845000  0.96859000  0.51587000  1.0 0.1104338183
H  H111  1  0.87845000  0.03141000  0.98413000  1.0 0.1104338183
H  H112  1  0.62155000  0.53141000  0.01587000  1.0 0.1104338183
H  H113  1  0.92977000  0.54287000  0.58795000  1.0 0.1205070567
H  H114  1  0.57023000  0.04287000  0.41205000  1.0 0.1205070567
H  H115  1  0.07023000  0.95713000  0.08795000  1.0 0.1205070567
H  H116  1  0.42977000  0.45713000  0.91205000  1.0 0.1205070567
H  H117  1  0.07023000  0.45713000  0.41205000  1.0 0.1205070567
H  H118  1  0.42977000  0.95713000  0.58795000  1.0 0.1205070567
H  H119  1  0.92977000  0.04287000  0.91205000  1.0 0.1205070567
H  H120  1  0.57023000  0.54287000  0.08795000  1.0 0.1205070567
H  H121  1  0.98193000  0.52805000  0.65122000  1.0 0.1295506394
H  H122  1  0.51807000  0.02805000  0.34878000  1.0 0.1295506394
H  H123  1  0.01807000  0.97195000  0.15122000  1.0 0.1295506394
H  H124  1  0.48193000  0.47195000  0.84878000  1.0 0.1295506394
H  H125  1  0.01807000  0.47195000  0.34878000  1.0 0.1295506394
H  H126  1  0.48193000  0.97195000  0.65122000  1.0 0.1295506394
H  H127  1  0.98193000  0.02805000  0.84878000  1.0 0.1295506394
H  H128  1  0.51807000  0.52805000  0.15122000  1.0 0.1295506394
H  H129  1  0.88191000  0.40679000  0.67479000  1.0 0.1295506394
H  H130  1  0.61809000  0.90679000  0.32521000  1.0 0.1295506394
H  H131  1  0.11809000  0.09321000  0.17479000  1.0 0.1295506394
H  H132  1  0.38191000  0.59321000  0.82521000  1.0 0.1295506394
H  H133  1  0.11809000  0.59321000  0.32521000  1.0 0.1295506394
H  H134  1  0.38191000  0.09321000  0.67479000  1.0 0.1295506394
H  H135  1  0.88191000  0.90679000  0.82521000  1.0 0.1295506394
H  H136  1  0.61809000  0.40679000  0.17479000  1.0 0.1295506394
H  H137  1  0.82510000  0.42521000  0.61533000  1.0 0.1295506394
H  H138  1  0.67490000  0.92521000  0.38467000  1.0 0.1295506394
H  H139  1  0.17490000  0.07479000  0.11533000  1.0 0.1295506394
H  H140  1  0.32510000  0.57479000  0.88467000  1.0 0.1295506394
H  H141  1  0.17490000  0.57479000  0.38467000  1.0 0.1295506394
H  H142  1  0.32510000  0.07479000  0.61533000  1.0 0.1295506394
H  H143  1  0.82510000  0.92521000  0.88467000  1.0 0.1295506394
H  H144  1  0.67490000  0.42521000  0.11533000  1.0 0.1295506394
H  H145  1  0.72618000  0.53944000  0.55560000  1.0 0.1104338183
H  H146  1  0.77382000  0.03944000  0.44440000  1.0 0.1104338183
H  H147  1  0.27382000  0.96056000  0.05560000  1.0 0.1104338183
H  H148  1  0.22618000  0.46056000  0.94440000  1.0 0.1104338183
H  H149  1  0.27382000  0.46056000  0.44440000  1.0 0.1104338183
H  H150  1  0.22618000  0.96056000  0.55560000  1.0 0.1104338183
H  H151  1  0.72618000  0.03944000  0.94440000  1.0 0.1104338183
H  H152  1  0.77382000  0.53944000  0.05560000  1.0 0.1104338183
H  H153  1  0.70321000  0.57525000  0.51844000  1.0 0.1104338183
H  H154  1  0.79679000  0.07525000  0.48156000  1.0 0.1104338183
H  H155  1  0.29679000  0.92475000  0.01844000  1.0 0.1104338183
H  H156  1  0.20321000  0.42475000  0.98156000  1.0 0.1104338183
H  H157  1  0.29679000  0.42475000  0.48156000  1.0 0.1104338183
H  H158  1  0.20321000  0.92475000  0.51844000  1.0 0.1104338183
H  H159  1  0.70321000  0.07525000  0.98156000  1.0 0.1104338183
H  H160  1  0.79679000  0.57525000  0.01844000  1.0 0.1104338183
H  H161  1  0.64484000  0.57476000  0.58233000  1.0 0.1295506394
H  H162  1  0.85516000  0.07476000  0.41767000  1.0 0.1295506394
H  H163  1  0.35516000  0.92524000  0.08233000  1.0 0.1295506394
H  H164  1  0.14484000  0.42524000  0.91767000  1.0 0.1295506394
H  H165  1  0.35516000  0.42524000  0.41767000  1.0 0.1295506394
H  H166  1  0.14484000  0.92524000  0.58233000  1.0 0.1295506394
H  H167  1  0.64484000  0.07476000  0.91767000  1.0 0.1295506394
H  H168  1  0.85516000  0.57476000  0.08233000  1.0 0.1295506394
H  H169  1  0.58376000  0.60243000  0.63724000  1.0 0.1205070567
H  H170  1  0.91624000  0.10243000  0.36276000  1.0 0.1205070567
H  H171  1  0.41624000  0.89757000  0.13724000  1.0 0.1205070567
H  H172  1  0.08376000  0.39757000  0.86276000  1.0 0.1205070567
H  H173  1  0.41624000  0.39757000  0.36276000  1.0 0.1205070567
H  H174  1  0.08376000  0.89757000  0.63724000  1.0 0.1205070567
H  H175  1  0.58376000  0.10243000  0.86276000  1.0 0.1205070567
H  H176  1  0.91624000  0.60243000  0.13724000  1.0 0.1205070567
H  H177  1  0.69966000  0.71340000  0.66597000  1.0 0.1104338183
H  H178  1  0.80034000  0.21340000  0.33403000  1.0 0.1104338183
H  H179  1  0.30034000  0.78660000  0.16597000  1.0 0.1104338183
H  H180  1  0.19966000  0.28660000  0.83403000  1.0 0.1104338183
H  H181  1  0.30034000  0.28660000  0.33403000  1.0 0.1104338183
H  H182  1  0.19966000  0.78660000  0.66597000  1.0 0.1104338183
H  H183  1  0.69966000  0.21340000  0.83403000  1.0 0.1104338183
H  H184  1  0.80034000  0.71340000  0.16597000  1.0 0.1104338183
H  H185  1  0.76265000  0.68359000  0.61117000  1.0 0.1295506394
H  H186  1  0.73735000  0.18359000  0.38883000  1.0 0.1295506394
H  H187  1  0.23735000  0.81641000  0.11117000  1.0 0.1295506394
H  H188  1  0.26265000  0.31641000  0.88883000  1.0 0.1295506394
H  H189  1  0.23735000  0.31641000  0.38883000  1.0 0.1295506394
H  H190  1  0.26265000  0.81641000  0.61117000  1.0 0.1295506394
H  H191  1  0.76265000  0.18359000  0.88883000  1.0 0.1295506394
H  H192  1  0.73735000  0.68359000  0.11117000  1.0 0.1295506394
H  H193  1  0.67299000  0.29129000  0.98335000  1.0 0.0994708614
H  H194  1  0.82701000  0.79129000  0.01665000  1.0 0.0994708614
H  H195  1  0.32701000  0.20871000  0.48335000  1.0 0.0994708614
H  H196  1  0.17299000  0.70871000  0.51665000  1.0 0.0994708614
H  H197  1  0.32701000  0.70871000  0.01665000  1.0 0.0994708614
H  H198  1  0.17299000  0.20871000  0.98335000  1.0 0.0994708614
H  H199  1  0.67299000  0.79129000  0.51665000  1.0 0.0994708614
H  H200  1  0.82701000  0.29129000  0.48335000  1.0 0.0994708614
H  H201  1  0.71579000  0.25631000  0.95622000  1.0 0.1104338183
H  H202  1  0.78421000  0.75631000  0.04378000  1.0 0.1104338183
H  H203  1  0.28421000  0.24369000  0.45622000  1.0 0.1104338183
H  H204  1  0.21579000  0.74369000  0.54378000  1.0 0.1104338183
H  H205  1  0.28421000  0.74369000  0.04378000  1.0 0.1104338183
H  H206  1  0.21579000  0.24369000  0.95622000  1.0 0.1104338183
H  H207  1  0.71579000  0.75631000  0.54378000  1.0 0.1104338183
H  H208  1  0.78421000  0.25631000  0.45622000  1.0 0.1104338183
H  H209  1  0.64287000  0.38481000  0.94866000  1.0 0.1402933705
H  H210  1  0.85713000  0.88481000  0.05134000  1.0 0.1402933705
H  H211  1  0.35713000  0.11519000  0.44866000  1.0 0.1402933705
H  H212  1  0.14287000  0.61519000  0.55134000  1.0 0.1402933705
H  H213  1  0.35713000  0.61519000  0.05134000  1.0 0.1402933705
H  H214  1  0.14287000  0.11519000  0.94866000  1.0 0.1402933705
H  H215  1  0.64287000  0.88481000  0.55134000  1.0 0.1402933705
H  H216  1  0.85713000  0.38481000  0.44866000  1.0 0.1402933705
H  H217  1  0.58937000  0.40836000  0.88807000  1.0 0.1205070567
H  H218  1  0.91063000  0.90836000  0.11193000  1.0 0.1205070567
H  H219  1  0.41063000  0.09164000  0.38807000  1.0 0.1205070567
H  H220  1  0.08937000  0.59164000  0.61193000  1.0 0.1205070567
H  H221  1  0.41063000  0.59164000  0.11193000  1.0 0.1205070567
H  H222  1  0.08937000  0.09164000  0.88807000  1.0 0.1205070567
H  H223  1  0.58937000  0.90836000  0.61193000  1.0 0.1205070567
H  H224  1  0.91063000  0.40836000  0.38807000  1.0 0.1205070567
H  H225  1  0.68061000  0.31441000  0.81268000  1.0 0.1205070567
H  H226  1  0.81939000  0.81441000  0.18732000  1.0 0.1205070567
H  H227  1  0.31939000  0.18559000  0.31268000  1.0 0.1205070567
H  H228  1  0.18061000  0.68559000  0.68732000  1.0 0.1205070567
H  H229  1  0.31939000  0.68559000  0.18732000  1.0 0.1205070567
H  H230  1  0.18061000  0.18559000  0.81268000  1.0 0.1205070567
H  H231  1  0.68061000  0.81441000  0.68732000  1.0 0.1205070567
H  H232  1  0.81939000  0.31441000  0.31268000  1.0 0.1205070567
H  H233  1  0.74314000  0.29647000  0.87029000  1.0 0.1402933705
H  H234  1  0.75686000  0.79647000  0.12971000  1.0 0.1402933705
H  H235  1  0.25686000  0.20353000  0.37029000  1.0 0.1402933705
H  H236  1  0.24314000  0.70353000  0.62971000  1.0 0.1402933705
H  H237  1  0.25686000  0.70353000  0.12971000  1.0 0.1402933705
H  H238  1  0.24314000  0.20353000  0.87029000  1.0 0.1402933705
H  H239  1  0.74314000  0.79647000  0.62971000  1.0 0.1402933705
H  H240  1  0.75686000  0.29647000  0.37029000  1.0 0.1402933705
H  H241  1  0.84092000  0.25955000  0.02895000  1.0 0.1104338183
H  H242  1  0.65908000  0.75955000  0.97105000  1.0 0.1104338183
H  H243  1  0.15908000  0.24045000  0.52895000  1.0 0.1104338183
H  H244  1  0.34092000  0.74045000  0.47105000  1.0 0.1104338183
H  H245  1  0.15908000  0.74045000  0.97105000  1.0 0.1104338183
H  H246  1  0.34092000  0.24045000  0.02895000  1.0 0.1104338183
H  H247  1  0.84092000  0.75955000  0.47105000  1.0 0.1104338183
H  H248  1  0.65908000  0.25955000  0.52895000  1.0 0.1104338183
H  H249  1  0.83640000  0.29303000  0.98690000  1.0 0.0994708614
H  H250  1  0.66360000  0.79303000  0.01310000  1.0 0.0994708614
H  H251  1  0.16360000  0.20697000  0.48690000  1.0 0.0994708614
H  H252  1  0.33640000  0.70697000  0.51310000  1.0 0.0994708614
H  H253  1  0.16360000  0.70697000  0.01310000  1.0 0.0994708614
H  H254  1  0.33640000  0.20697000  0.98690000  1.0 0.0994708614
H  H255  1  0.83640000  0.79303000  0.51310000  1.0 0.0994708614
H  H256  1  0.66360000  0.29303000  0.48690000  1.0 0.0994708614
H  H257  1  0.83240000  0.29507000  0.91772000  1.0 0.1205070567
H  H258  1  0.66760000  0.79507000  0.08228000  1.0 0.1205070567
H  H259  1  0.16760000  0.20493000  0.41772000  1.0 0.1205070567
H  H260  1  0.33240000  0.70493000  0.58228000  1.0 0.1205070567
H  H261  1  0.16760000  0.70493000  0.08228000  1.0 0.1205070567
H  H262  1  0.33240000  0.20493000  0.91772000  1.0 0.1205070567
H  H263  1  0.83240000  0.79507000  0.58228000  1.0 0.1205070567
H  H264  1  0.66760000  0.29507000  0.41772000  1.0 0.1205070567
H  H265  1  0.88759000  0.29443000  0.85336000  1.0 0.1295506394
H  H266  1  0.61241000  0.79443000  0.14664000  1.0 0.1295506394
H  H267  1  0.11241000  0.20557000  0.35336000  1.0 0.1295506394
H  H268  1  0.38759000  0.70557000  0.64664000  1.0 0.1295506394
H  H269  1  0.11241000  0.70557000  0.14664000  1.0 0.1295506394
H  H270  1  0.38759000  0.20557000  0.85336000  1.0 0.1295506394
H  H271  1  0.88759000  0.79443000  0.64664000  1.0 0.1295506394
H  H272  1  0.61241000  0.29443000  0.35336000  1.0 0.1295506394
H  H273  1  0.93786000  0.15395000  0.87913000  1.0 0.1205070567
H  H274  1  0.56214000  0.65395000  0.12087000  1.0 0.1205070567
H  H275  1  0.06214000  0.34605000  0.37913000  1.0 0.1205070567
H  H276  1  0.43786000  0.84605000  0.62087000  1.0 0.1205070567
H  H277  1  0.06214000  0.84605000  0.12087000  1.0 0.1205070567
H  H278  1  0.43786000  0.34605000  0.87913000  1.0 0.1205070567
H  H279  1  0.93786000  0.65395000  0.62087000  1.0 0.1205070567
H  H280  1  0.56214000  0.15395000  0.37913000  1.0 0.1205070567
H  H281  1  0.88600000  0.15485000  0.94278000  1.0 0.1402933705
H  H282  1  0.61400000  0.65485000  0.05722000  1.0 0.1402933705
H  H283  1  0.11400000  0.34515000  0.44278000  1.0 0.1402933705
H  H284  1  0.38600000  0.84515000  0.55722000  1.0 0.1402933705
H  H285  1  0.11400000  0.84515000  0.05722000  1.0 0.1402933705
H  H286  1  0.38600000  0.34515000  0.94278000  1.0 0.1402933705
H  H287  1  0.88600000  0.65485000  0.55722000  1.0 0.1402933705
H  H288  1  0.61400000  0.15485000  0.44278000  1.0 0.1402933705
H  H289  1  0.75454000  0.23010000  0.06721000  1.0 0.1104338183
H  H290  1  0.74546000  0.73010000  0.93279000  1.0 0.1104338183
H  H291  1  0.24546000  0.26990000  0.56721000  1.0 0.1104338183
H  H292  1  0.25454000  0.76990000  0.43279000  1.0 0.1104338183
H  H293  1  0.24546000  0.76990000  0.93279000  1.0 0.1104338183
H  H294  1  0.25454000  0.26990000  0.06721000  1.0 0.1104338183
H  H295  1  0.75454000  0.73010000  0.43279000  1.0 0.1104338183
H  H296  1  0.74546000  0.23010000  0.56721000  1.0 0.1104338183
H  H297  1  0.72346000  0.20748000  0.02531000  1.0 0.0994708614
H  H298  1  0.77654000  0.70748000  0.97469000  1.0 0.0994708614
H  H299  1  0.27654000  0.29252000  0.52531000  1.0 0.0994708614
H  H300  1  0.22346000  0.79252000  0.47469000  1.0 0.0994708614
H  H301  1  0.27654000  0.79252000  0.97469000  1.0 0.0994708614
H  H302  1  0.22346000  0.29252000  0.02531000  1.0 0.0994708614
H  H303  1  0.72346000  0.70748000  0.47469000  1.0 0.0994708614
H  H304  1  0.77654000  0.20748000  0.52531000  1.0 0.0994708614
H  H305  1  0.59649000  0.28357000  0.11422000  1.0 0.1402933705
H  H306  1  0.90351000  0.78357000  0.88578000  1.0 0.1402933705
H  H307  1  0.40351000  0.21643000  0.61422000  1.0 0.1402933705
H  H308  1  0.09649000  0.71643000  0.38578000  1.0 0.1402933705
H  H309  1  0.40351000  0.71643000  0.88578000  1.0 0.1402933705
H  H310  1  0.09649000  0.21643000  0.11422000  1.0 0.1402933705
H  H311  1  0.59649000  0.78357000  0.38578000  1.0 0.1402933705
H  H312  1  0.90351000  0.28357000  0.61422000  1.0 0.1402933705
H  H313  1  0.54226000  0.23713000  0.16519000  1.0 0.1205070567
H  H314  1  0.95774000  0.73713000  0.83481000  1.0 0.1205070567
H  H315  1  0.45774000  0.26287000  0.66519000  1.0 0.1205070567
H  H316  1  0.04226000  0.76287000  0.33481000  1.0 0.1205070567
H  H317  1  0.45774000  0.76287000  0.83481000  1.0 0.1205070567
H  H318  1  0.04226000  0.26287000  0.16519000  1.0 0.1205070567
H  H319  1  0.54226000  0.73713000  0.33481000  1.0 0.1205070567
H  H320  1  0.95774000  0.23713000  0.66519000  1.0 0.1205070567
H  H321  1  0.62144000  0.11389000  0.12416000  1.0 0.1205070567
H  H322  1  0.87856000  0.61389000  0.87584000  1.0 0.1205070567
H  H323  1  0.37856000  0.38611000  0.62416000  1.0 0.1205070567
H  H324  1  0.12144000  0.88611000  0.37584000  1.0 0.1205070567
H  H325  1  0.37856000  0.88611000  0.87584000  1.0 0.1205070567
H  H326  1  0.12144000  0.38611000  0.12416000  1.0 0.1205070567
H  H327  1  0.62144000  0.61389000  0.37584000  1.0 0.1205070567
H  H328  1  0.87856000  0.11389000  0.62416000  1.0 0.1205070567
H  H329  1  0.67789000  0.15856000  0.07431000  1.0 0.1205070567
H  H330  1  0.82211000  0.65856000  0.92569000  1.0 0.1205070567
H  H331  1  0.32211000  0.34144000  0.57431000  1.0 0.1205070567
H  H332  1  0.17789000  0.84144000  0.42569000  1.0 0.1205070567
H  H333  1  0.32211000  0.84144000  0.92569000  1.0 0.1205070567
H  H334  1  0.17789000  0.34144000  0.07431000  1.0 0.1205070567
H  H335  1  0.67789000  0.65856000  0.42569000  1.0 0.1205070567
H  H336  1  0.82211000  0.15856000  0.57431000  1.0 0.1205070567
H  H337  1  0.71690000  0.33978000  0.04744000  1.0 0.1104338183
H  H338  1  0.78310000  0.83978000  0.95256000  1.0 0.1104338183
H  H339  1  0.28310000  0.16022000  0.54744000  1.0 0.1104338183
H  H340  1  0.21690000  0.66022000  0.45256000  1.0 0.1104338183
H  H341  1  0.28310000  0.66022000  0.95256000  1.0 0.1104338183
H  H342  1  0.21690000  0.16022000  0.04744000  1.0 0.1104338183
H  H343  1  0.71690000  0.83978000  0.45256000  1.0 0.1104338183
H  H344  1  0.78310000  0.33978000  0.54744000  1.0 0.1104338183
H  H345  1  0.77713000  0.35359000  0.02368000  1.0 0.0994708614
H  H346  1  0.72287000  0.85359000  0.97632000  1.0 0.0994708614
H  H347  1  0.22287000  0.14641000  0.52368000  1.0 0.0994708614
H  H348  1  0.27713000  0.64641000  0.47632000  1.0 0.0994708614
H  H349  1  0.22287000  0.64641000  0.97632000  1.0 0.0994708614
H  H350  1  0.27713000  0.14641000  0.02368000  1.0 0.0994708614
H  H351  1  0.77713000  0.85359000  0.47632000  1.0 0.0994708614
H  H352  1  0.72287000  0.35359000  0.52368000  1.0 0.0994708614
H  H353  1  0.76472000  0.41302000  0.07354000  1.0 0.1205070567
H  H354  1  0.73528000  0.91302000  0.92646000  1.0 0.1205070567
H  H355  1  0.23528000  0.08698000  0.57354000  1.0 0.1205070567
H  H356  1  0.26472000  0.58698000  0.42646000  1.0 0.1205070567
H  H357  1  0.23528000  0.58698000  0.92646000  1.0 0.1205070567
H  H358  1  0.26472000  0.08698000  0.07354000  1.0 0.1205070567
H  H359  1  0.76472000  0.91302000  0.42646000  1.0 0.1205070567
H  H360  1  0.73528000  0.41302000  0.57354000  1.0 0.1205070567
H  H361  1  0.80561000  0.47726000  0.11683000  1.0 0.1205070567
H  H362  1  0.69439000  0.97726000  0.88317000  1.0 0.1205070567
H  H363  1  0.19439000  0.02274000  0.61683000  1.0 0.1205070567
H  H364  1  0.30561000  0.52274000  0.38317000  1.0 0.1205070567
H  H365  1  0.19439000  0.52274000  0.88317000  1.0 0.1205070567
H  H366  1  0.30561000  0.02274000  0.11683000  1.0 0.1205070567
H  H367  1  0.80561000  0.97726000  0.38317000  1.0 0.1205070567
H  H368  1  0.69439000  0.47726000  0.61683000  1.0 0.1205070567
H  H369  1  0.90032000  0.37605000  0.18478000  1.0 0.1295506394
H  H370  1  0.59968000  0.87605000  0.81522000  1.0 0.1295506394
H  H371  1  0.09968000  0.12395000  0.68478000  1.0 0.1295506394
H  H372  1  0.40032000  0.62395000  0.31522000  1.0 0.1295506394
H  H373  1  0.09968000  0.62395000  0.81522000  1.0 0.1295506394
H  H374  1  0.40032000  0.12395000  0.18478000  1.0 0.1295506394
H  H375  1  0.90032000  0.87605000  0.31522000  1.0 0.1295506394
H  H376  1  0.59968000  0.37605000  0.68478000  1.0 0.1295506394
H  H377  1  0.86089000  0.31337000  0.14207000  1.0 0.1499273876
H  H378  1  0.63911000  0.81337000  0.85793000  1.0 0.1499273876
H  H379  1  0.13911000  0.18663000  0.64207000  1.0 0.1499273876
H  H380  1  0.36089000  0.68663000  0.35793000  1.0 0.1499273876
H  H381  1  0.13911000  0.68663000  0.85793000  1.0 0.1499273876
H  H382  1  0.36089000  0.18663000  0.14207000  1.0 0.1499273876
H  H383  1  0.86089000  0.81337000  0.35793000  1.0 0.1499273876
H  H384  1  0.63911000  0.31337000  0.64207000  1.0 0.1499273876
H  H385  1  0.20903000  0.38492000  0.31229000  1.0 0.1402933705
H  H386  1  0.29097000  0.88492000  0.68771000  1.0 0.1402933705
H  H387  1  0.79097000  0.11508000  0.81229000  1.0 0.1402933705
H  H388  1  0.70903000  0.61508000  0.18771000  1.0 0.1402933705
H  H389  1  0.79097000  0.61508000  0.68771000  1.0 0.1402933705
H  H390  1  0.70903000  0.11508000  0.31229000  1.0 0.1402933705
H  H391  1  0.20903000  0.88492000  0.18771000  1.0 0.1402933705
H  H392  1  0.29097000  0.38492000  0.81229000  1.0 0.1402933705
H  H393  1  0.17752000  0.41920000  0.34694000  1.0 0.1499273876
H  H394  1  0.32248000  0.91920000  0.65306000  1.0 0.1499273876
H  H395  1  0.82248000  0.08080000  0.84694000  1.0 0.1499273876
H  H396  1  0.67752000  0.58080000  0.15306000  1.0 0.1499273876
H  H397  1  0.82248000  0.58080000  0.65306000  1.0 0.1499273876
H  H398  1  0.67752000  0.08080000  0.34694000  1.0 0.1499273876
H  H399  1  0.17752000  0.91920000  0.15306000  1.0 0.1499273876
H  H400  1  0.32248000  0.41920000  0.84694000  1.0 0.1499273876
H  H401  1  0.14381000  0.37289000  0.32767000  1.0 0.1610482751
H  H402  1  0.35619000  0.87289000  0.67233000  1.0 0.1610482751
H  H403  1  0.85619000  0.12711000  0.82767000  1.0 0.1610482751
H  H404  1  0.64381000  0.62711000  0.17233000  1.0 0.1610482751
H  H405  1  0.85619000  0.62711000  0.67233000  1.0 0.1610482751
H  H406  1  0.64381000  0.12711000  0.32767000  1.0 0.1610482751
H  H407  1  0.14381000  0.87289000  0.17233000  1.0 0.1610482751
H  H408  1  0.35619000  0.37289000  0.82767000  1.0 0.1610482751
H  H409  1  0.26796000  0.48563000  0.26515000  1.0 0.0994708614
H  H410  1  0.23204000  0.98563000  0.73485000  1.0 0.0994708614
H  H411  1  0.73204000  0.01437000  0.76515000  1.0 0.0994708614
H  H412  1  0.76796000  0.51437000  0.23485000  1.0 0.0994708614
H  H413  1  0.73204000  0.51437000  0.73485000  1.0 0.0994708614
H  H414  1  0.76796000  0.01437000  0.26515000  1.0 0.0994708614
H  H415  1  0.26796000  0.98563000  0.23485000  1.0 0.0994708614
H  H416  1  0.23204000  0.48563000  0.76515000  1.0 0.0994708614
H  H417  1  0.23263000  0.51584000  0.30072000  1.0 0.1104338183
H  H418  1  0.26737000  0.01584000  0.69928000  1.0 0.1104338183
H  H419  1  0.76737000  0.98416000  0.80072000  1.0 0.1104338183
H  H420  1  0.73263000  0.48416000  0.19928000  1.0 0.1104338183
H  H421  1  0.76737000  0.48416000  0.69928000  1.0 0.1104338183
H  H422  1  0.73263000  0.98416000  0.30072000  1.0 0.1104338183
H  H423  1  0.23263000  0.01584000  0.19928000  1.0 0.1104338183
H  H424  1  0.26737000  0.51584000  0.80072000  1.0 0.1104338183
H  H425  1  0.24912000  0.45985000  0.30920000  1.0 0.1104338183
H  H426  1  0.25088000  0.95985000  0.69080000  1.0 0.1104338183
H  H427  1  0.75088000  0.04015000  0.80920000  1.0 0.1104338183
H  H428  1  0.74912000  0.54015000  0.19080000  1.0 0.1104338183
H  H429  1  0.75088000  0.54015000  0.69080000  1.0 0.1104338183
H  H430  1  0.74912000  0.04015000  0.30920000  1.0 0.1104338183
H  H431  1  0.24912000  0.95985000  0.19080000  1.0 0.1104338183
H  H432  1  0.25088000  0.45985000  0.80920000  1.0 0.1104338183
H  H433  1  0.18711000  0.51216000  0.21442000  1.0 0.1104338183
H  H434  1  0.31289000  0.01216000  0.78558000  1.0 0.1104338183
H  H435  1  0.81289000  0.98784000  0.71442000  1.0 0.1104338183
H  H436  1  0.68711000  0.48784000  0.28558000  1.0 0.1104338183
H  H437  1  0.81289000  0.48784000  0.78558000  1.0 0.1104338183
H  H438  1  0.68711000  0.98784000  0.21442000  1.0 0.1104338183
H  H439  1  0.18711000  0.01216000  0.28558000  1.0 0.1104338183
H  H440  1  0.31289000  0.51216000  0.71442000  1.0 0.1104338183
H  H441  1  0.12940000  0.47909000  0.21410000  1.0 0.1295506394
H  H442  1  0.37060000  0.97909000  0.78590000  1.0 0.1295506394
H  H443  1  0.87060000  0.02091000  0.71410000  1.0 0.1295506394
H  H444  1  0.62940000  0.52091000  0.28590000  1.0 0.1295506394
H  H445  1  0.87060000  0.52091000  0.78590000  1.0 0.1295506394
H  H446  1  0.62940000  0.02091000  0.21410000  1.0 0.1295506394
H  H447  1  0.12940000  0.97909000  0.28590000  1.0 0.1295506394
H  H448  1  0.37060000  0.47909000  0.71410000  1.0 0.1295506394
H  H449  1  0.13308000  0.52587000  0.24482000  1.0 0.1205070567
H  H450  1  0.36692000  0.02587000  0.75518000  1.0 0.1205070567
H  H451  1  0.86692000  0.97413000  0.74482000  1.0 0.1205070567
H  H452  1  0.63308000  0.47413000  0.25518000  1.0 0.1205070567
H  H453  1  0.86692000  0.47413000  0.75518000  1.0 0.1205070567
H  H454  1  0.63308000  0.97413000  0.24482000  1.0 0.1205070567
H  H455  1  0.13308000  0.02587000  0.25518000  1.0 0.1205070567
H  H456  1  0.36692000  0.52587000  0.74482000  1.0 0.1205070567
H  H457  1  0.86886000  0.22499000  0.73487000  1.0 0.170651727
H  H458  1  0.63114000  0.72499000  0.26513000  1.0 0.170651727
H  H459  1  0.13114000  0.27501000  0.23487000  1.0 0.170651727
H  H460  1  0.36886000  0.77501000  0.76513000  1.0 0.170651727
H  H461  1  0.13114000  0.77501000  0.26513000  1.0 0.170651727
H  H462  1  0.36886000  0.27501000  0.73487000  1.0 0.170651727
H  H463  1  0.86886000  0.72499000  0.76513000  1.0 0.170651727
H  H464  1  0.63114000  0.22499000  0.23487000  1.0 0.170651727
H  H465  1  0.80774000  0.22366000  0.75992000  1.0 0.1402933705
H  H466  1  0.69226000  0.72366000  0.24008000  1.0 0.1402933705
H  H467  1  0.19226000  0.27634000  0.25992000  1.0 0.1402933705
H  H468  1  0.30774000  0.77634000  0.74008000  1.0 0.1402933705
H  H469  1  0.19226000  0.77634000  0.24008000  1.0 0.1402933705
H  H470  1  0.30774000  0.27634000  0.75992000  1.0 0.1402933705
H  H471  1  0.80774000  0.72366000  0.74008000  1.0 0.1402933705
H  H472  1  0.69226000  0.22366000  0.25992000  1.0 0.1402933705
H  H473  1  0.80902000  0.21977000  0.70859000  1.0 0.1402933705
H  H474  1  0.69098000  0.71977000  0.29141000  1.0 0.1402933705
H  H475  1  0.19098000  0.28023000  0.20859000  1.0 0.1402933705
H  H476  1  0.30902000  0.78023000  0.79141000  1.0 0.1402933705
H  H477  1  0.19098000  0.78023000  0.29141000  1.0 0.1402933705
H  H478  1  0.30902000  0.28023000  0.70859000  1.0 0.1402933705
H  H479  1  0.80902000  0.71977000  0.79141000  1.0 0.1402933705
H  H480  1  0.69098000  0.21977000  0.20859000  1.0 0.1402933705
H  H481  1  0.68196000  0.29451000  0.73151000  1.0 0.1402933705
H  H482  1  0.81804000  0.79451000  0.26849000  1.0 0.1402933705
H  H483  1  0.31804000  0.20549000  0.23151000  1.0 0.1402933705
H  H484  1  0.18196000  0.70549000  0.76849000  1.0 0.1402933705
H  H485  1  0.31804000  0.70549000  0.26849000  1.0 0.1402933705
H  H486  1  0.18196000  0.20549000  0.73151000  1.0 0.1402933705
H  H487  1  0.68196000  0.79451000  0.76849000  1.0 0.1402933705
H  H488  1  0.81804000  0.29451000  0.23151000  1.0 0.1402933705
H  H489  1  0.71582000  0.26215000  0.69663000  1.0 0.1295506394
H  H490  1  0.78418000  0.76215000  0.30337000  1.0 0.1295506394
H  H491  1  0.28418000  0.23785000  0.19663000  1.0 0.1295506394
H  H492  1  0.21582000  0.73785000  0.80337000  1.0 0.1295506394
H  H493  1  0.28418000  0.73785000  0.30337000  1.0 0.1295506394
H  H494  1  0.21582000  0.23785000  0.69663000  1.0 0.1295506394
H  H495  1  0.71582000  0.76215000  0.80337000  1.0 0.1295506394
H  H496  1  0.78418000  0.26215000  0.19663000  1.0 0.1295506394
H  H497  1  0.72107000  0.24919000  0.74665000  1.0 0.1205070567
H  H498  1  0.77893000  0.74919000  0.25335000  1.0 0.1205070567
H  H499  1  0.27893000  0.25081000  0.24665000  1.0 0.1205070567
H  H500  1  0.22107000  0.75081000  0.75335000  1.0 0.1205070567
H  H501  1  0.27893000  0.75081000  0.25335000  1.0 0.1205070567
H  H502  1  0.22107000  0.25081000  0.74665000  1.0 0.1205070567
H  H503  1  0.72107000  0.74919000  0.75335000  1.0 0.1205070567
H  H504  1  0.77893000  0.24919000  0.24665000  1.0 0.1205070567
H  H505  1  0.72756000  0.37646000  0.73980000  1.0 0.1402933705
H  H506  1  0.77244000  0.87646000  0.26020000  1.0 0.1402933705
H  H507  1  0.27244000  0.12354000  0.23980000  1.0 0.1402933705
H  H508  1  0.22756000  0.62354000  0.76020000  1.0 0.1402933705
H  H509  1  0.27244000  0.62354000  0.26020000  1.0 0.1402933705
H  H510  1  0.22756000  0.12354000  0.73980000  1.0 0.1402933705
H  H511  1  0.72756000  0.87646000  0.76020000  1.0 0.1402933705
H  H512  1  0.77244000  0.37646000  0.23980000  1.0 0.1402933705
H  H513  1  0.79712000  0.38285000  0.74032000  1.0 0.1499273876
H  H514  1  0.70288000  0.88285000  0.25968000  1.0 0.1499273876
H  H515  1  0.20288000  0.11715000  0.24032000  1.0 0.1499273876
H  H516  1  0.29712000  0.61715000  0.75968000  1.0 0.1499273876
H  H517  1  0.20288000  0.61715000  0.25968000  1.0 0.1499273876
H  H518  1  0.29712000  0.11715000  0.74032000  1.0 0.1499273876
H  H519  1  0.79712000  0.88285000  0.75968000  1.0 0.1499273876
H  H520  1  0.70288000  0.38285000  0.24032000  1.0 0.1499273876
H  H521  1  0.76342000  0.37618000  0.69561000  1.0 0.1295506394
H  H522  1  0.73658000  0.87618000  0.30439000  1.0 0.1295506394
H  H523  1  0.23658000  0.12382000  0.19561000  1.0 0.1295506394
H  H524  1  0.26342000  0.62382000  0.80439000  1.0 0.1295506394
H  H525  1  0.23658000  0.62382000  0.30439000  1.0 0.1295506394
H  H526  1  0.26342000  0.12382000  0.69561000  1.0 0.1295506394
H  H527  1  0.76342000  0.87618000  0.80439000  1.0 0.1295506394
H  H528  1  0.73658000  0.37618000  0.19561000  1.0 0.1295506394
H  H529  1  0.31030000  0.34480000  0.19178000  0.5 0.1295506394
H  H530  1  0.18970000  0.84480000  0.80822000  0.5 0.1295506394
H  H531  1  0.68970000  0.15520000  0.69178000  0.5 0.1295506394
H  H532  1  0.81030000  0.65520000  0.30822000  0.5 0.1295506394
H  H533  1  0.68970000  0.65520000  0.80822000  0.5 0.1295506394
H  H534  1  0.81030000  0.15520000  0.19178000  0.5 0.1295506394
H  H535  1  0.31030000  0.84480000  0.30822000  0.5 0.1295506394
H  H536  1  0.18970000  0.34480000  0.69178000  0.5 0.1295506394
H  H537  1  0.32980000  0.34988000  0.24099000  0.5 0.0994708614
H  H538  1  0.17020000  0.84988000  0.75901000  0.5 0.0994708614
H  H539  1  0.67020000  0.15012000  0.74099000  0.5 0.0994708614
H  H540  1  0.82980000  0.65012000  0.25901000  0.5 0.0994708614
H  H541  1  0.67020000  0.65012000  0.75901000  0.5 0.0994708614
H  H542  1  0.82980000  0.15012000  0.24099000  0.5 0.0994708614
H  H543  1  0.32980000  0.84988000  0.25901000  0.5 0.0994708614
H  H544  1  0.17020000  0.34988000  0.74099000  0.5 0.0994708614
H  H545  1  0.26460000  0.36391000  0.22693000  0.5 0.0882930404
H  H546  1  0.23540000  0.86391000  0.77307000  0.5 0.0882930404
H  H547  1  0.73540000  0.13609000  0.72693000  0.5 0.0882930404
H  H548  1  0.76460000  0.63609000  0.27307000  0.5 0.0882930404
H  H549  1  0.73540000  0.63609000  0.77307000  0.5 0.0882930404
H  H550  1  0.76460000  0.13609000  0.22693000  0.5 0.0882930404
H  H551  1  0.26460000  0.86391000  0.27307000  0.5 0.0882930404
H  H552  1  0.23540000  0.36391000  0.72693000  0.5 0.0882930404
H  H553  1  0.24479000  0.44713000  0.12894000  0.5 0.0882930404
H  H554  1  0.25521000  0.94713000  0.87106000  0.5 0.0882930404
H  H555  1  0.75521000  0.05287000  0.62894000  0.5 0.0882930404
H  H556  1  0.74479000  0.55287000  0.37106000  0.5 0.0882930404
H  H557  1  0.75521000  0.55287000  0.87106000  0.5 0.0882930404
H  H558  1  0.74479000  0.05287000  0.12894000  0.5 0.0882930404
H  H559  1  0.24479000  0.94713000  0.37106000  0.5 0.0882930404
H  H560  1  0.25521000  0.44713000  0.62894000  0.5 0.0882930404
H  H561  1  0.25335000  0.39477000  0.15092000  0.5 0.0882930404
H  H562  1  0.24665000  0.89477000  0.84908000  0.5 0.0882930404
H  H563  1  0.74665000  0.10523000  0.65092000  0.5 0.0882930404
H  H564  1  0.75335000  0.60523000  0.34908000  0.5 0.0882930404
H  H565  1  0.74665000  0.60523000  0.84908000  0.5 0.0882930404
H  H566  1  0.75335000  0.10523000  0.15092000  0.5 0.0882930404
H  H567  1  0.25335000  0.89477000  0.34908000  0.5 0.0882930404
H  H568  1  0.24665000  0.39477000  0.65092000  0.5 0.0882930404
H  H569  1  0.21599000  0.43608000  0.17481000  0.5 0.0994708614
H  H570  1  0.28401000  0.93608000  0.82519000  0.5 0.0994708614
H  H571  1  0.78401000  0.06392000  0.67481000  0.5 0.0994708614
H  H572  1  0.71599000  0.56392000  0.32519000  0.5 0.0994708614
H  H573  1  0.78401000  0.56392000  0.82519000  0.5 0.0994708614
H  H574  1  0.71599000  0.06392000  0.17481000  0.5 0.0994708614
H  H575  1  0.21599000  0.93608000  0.32519000  0.5 0.0994708614
H  H576  1  0.28401000  0.43608000  0.67481000  0.5 0.0994708614
H  H577  1  0.32485000  0.51873000  0.15966000  0.5 0.0882930404
H  H578  1  0.17515000  0.01873000  0.84034000  0.5 0.0882930404
H  H579  1  0.67515000  0.98127000  0.65966000  0.5 0.0882930404
H  H580  1  0.82485000  0.48127000  0.34034000  0.5 0.0882930404
H  H581  1  0.67515000  0.48127000  0.84034000  0.5 0.0882930404
H  H582  1  0.82485000  0.98127000  0.15966000  0.5 0.0882930404
H  H583  1  0.32485000  0.01873000  0.34034000  0.5 0.0882930404
H  H584  1  0.17515000  0.51873000  0.65966000  0.5 0.0882930404
H  H585  1  0.36290000  0.50113000  0.19998000  0.5 0.0994708614
H  H586  1  0.13710000  0.00113000  0.80002000  0.5 0.0994708614
H  H587  1  0.63710000  0.99887000  0.69998000  0.5 0.0994708614
H  H588  1  0.86290000  0.49887000  0.30002000  0.5 0.0994708614
H  H589  1  0.63710000  0.49887000  0.80002000  0.5 0.0994708614
H  H590  1  0.86290000  0.99887000  0.19998000  0.5 0.0994708614
H  H591  1  0.36290000  0.00113000  0.30002000  0.5 0.0994708614
H  H592  1  0.13710000  0.50113000  0.69998000  0.5 0.0994708614
H  H593  1  0.37828000  0.48180000  0.15276000  0.5 0.0882930404
H  H594  1  0.12172000  0.98180000  0.84724000  0.5 0.0882930404
H  H595  1  0.62172000  0.01820000  0.65276000  0.5 0.0882930404
H  H596  1  0.87828000  0.51820000  0.34724000  0.5 0.0882930404
H  H597  1  0.62172000  0.51820000  0.84724000  0.5 0.0882930404
H  H598  1  0.87828000  0.01820000  0.15276000  0.5 0.0882930404
H  H599  1  0.37828000  0.98180000  0.34724000  0.5 0.0882930404
H  H600  1  0.12172000  0.48180000  0.65276000  0.5 0.0882930404
H  H601  1  0.24086000  0.36299000  0.21539000  0.5 0.0994708614
H  H602  1  0.25914000  0.86299000  0.78461000  0.5 0.0994708614
H  H603  1  0.75914000  0.13701000  0.71539000  0.5 0.0994708614
H  H604  1  0.74086000  0.63701000  0.28461000  0.5 0.0994708614
H  H605  1  0.75914000  0.63701000  0.78461000  0.5 0.0994708614
H  H606  1  0.74086000  0.13701000  0.21539000  0.5 0.0994708614
H  H607  1  0.24086000  0.86299000  0.28461000  0.5 0.0994708614
H  H608  1  0.25914000  0.36299000  0.71539000  0.5 0.0994708614
H  H609  1  0.30356000  0.34220000  0.20167000  0.5 0.1205070567
H  H610  1  0.19644000  0.84220000  0.79833000  0.5 0.1205070567
H  H611  1  0.69644000  0.15780000  0.70167000  0.5 0.1205070567
H  H612  1  0.80356000  0.65780000  0.29833000  0.5 0.1205070567
H  H613  1  0.69644000  0.65780000  0.79833000  0.5 0.1205070567
H  H614  1  0.80356000  0.15780000  0.20167000  0.5 0.1205070567
H  H615  1  0.30356000  0.84220000  0.29833000  0.5 0.1205070567
H  H616  1  0.19644000  0.34220000  0.70167000  0.5 0.1205070567
H  H617  1  0.29748000  0.37606000  0.24337000  0.5 0.0994708614
H  H618  1  0.20252000  0.87606000  0.75663000  0.5 0.0994708614
H  H619  1  0.70252000  0.12394000  0.74337000  0.5 0.0994708614
H  H620  1  0.79748000  0.62394000  0.25663000  0.5 0.0994708614
H  H621  1  0.70252000  0.62394000  0.75663000  0.5 0.0994708614
H  H622  1  0.79748000  0.12394000  0.24337000  0.5 0.0994708614
H  H623  1  0.29748000  0.87606000  0.25663000  0.5 0.0994708614
H  H624  1  0.20252000  0.37606000  0.74337000  0.5 0.0994708614
H  H625  1  0.21171000  0.41612000  0.15609000  0.5 0.0882930404
H  H626  1  0.28829000  0.91612000  0.84391000  0.5 0.0882930404
H  H627  1  0.78829000  0.08388000  0.65609000  0.5 0.0882930404
H  H628  1  0.71171000  0.58388000  0.34391000  0.5 0.0882930404
H  H629  1  0.78829000  0.58388000  0.84391000  0.5 0.0882930404
H  H630  1  0.71171000  0.08388000  0.15609000  0.5 0.0882930404
H  H631  1  0.21171000  0.91612000  0.34391000  0.5 0.0882930404
H  H632  1  0.28829000  0.41612000  0.65609000  0.5 0.0882930404
H  H633  1  0.25251000  0.46039000  0.14097000  0.5 0.0994708614
H  H634  1  0.24749000  0.96039000  0.85903000  0.5 0.0994708614
H  H635  1  0.74749000  0.03961000  0.64097000  0.5 0.0994708614
H  H636  1  0.75251000  0.53961000  0.35903000  0.5 0.0994708614
H  H637  1  0.74749000  0.53961000  0.85903000  0.5 0.0994708614
H  H638  1  0.75251000  0.03961000  0.14097000  0.5 0.0994708614
H  H639  1  0.25251000  0.96039000  0.35903000  0.5 0.0994708614
H  H640  1  0.24749000  0.46039000  0.64097000  0.5 0.0994708614
H  H641  1  0.26428000  0.40642000  0.12322000  0.5 0.0882930404
H  H642  1  0.23572000  0.90642000  0.87678000  0.5 0.0882930404
H  H643  1  0.73572000  0.09358000  0.62322000  0.5 0.0882930404
H  H644  1  0.76428000  0.59358000  0.37678000  0.5 0.0882930404
H  H645  1  0.73572000  0.59358000  0.87678000  0.5 0.0882930404
H  H646  1  0.76428000  0.09358000  0.12322000  0.5 0.0882930404
H  H647  1  0.26428000  0.90642000  0.37678000  0.5 0.0882930404
H  H648  1  0.23572000  0.40642000  0.62322000  0.5 0.0882930404
H  H649  1  0.33249000  0.48907000  0.13921000  0.5 0.0882930404
H  H650  1  0.16751000  0.98907000  0.86079000  0.5 0.0882930404
H  H651  1  0.66751000  0.01093000  0.63921000  0.5 0.0882930404
H  H652  1  0.83249000  0.51093000  0.36079000  0.5 0.0882930404
H  H653  1  0.66751000  0.51093000  0.86079000  0.5 0.0882930404
H  H654  1  0.83249000  0.01093000  0.13921000  0.5 0.0882930404
H  H655  1  0.33249000  0.98907000  0.36079000  0.5 0.0882930404
H  H656  1  0.16751000  0.48907000  0.63921000  0.5 0.0882930404
H  H657  1  0.28741000  0.50722000  0.17519000  0.5 0.0994708614
H  H658  1  0.21259000  0.00722000  0.82481000  0.5 0.0994708614
H  H659  1  0.71259000  0.99278000  0.67519000  0.5 0.0994708614
H  H660  1  0.78741000  0.49278000  0.32481000  0.5 0.0994708614
H  H661  1  0.71259000  0.49278000  0.82481000  0.5 0.0994708614
H  H662  1  0.78741000  0.99278000  0.17519000  0.5 0.0994708614
H  H663  1  0.28741000  0.00722000  0.32481000  0.5 0.0994708614
H  H664  1  0.21259000  0.50722000  0.67519000  0.5 0.0994708614
H  H665  1  0.35549000  0.51984000  0.17956000  0.5 0.0994708614
H  H666  1  0.14451000  0.01984000  0.82044000  0.5 0.0994708614
H  H667  1  0.64451000  0.98016000  0.67956000  0.5 0.0994708614
H  H668  1  0.85549000  0.48016000  0.32044000  0.5 0.0994708614
H  H669  1  0.64451000  0.48016000  0.82044000  0.5 0.0994708614
H  H670  1  0.85549000  0.98016000  0.17956000  0.5 0.0994708614
H  H671  1  0.35549000  0.01984000  0.32044000  0.5 0.0994708614
H  H672  1  0.14451000  0.51984000  0.67956000  0.5 0.0994708614
C  C1  1  0.78990000  0.55150000  0.50749000  1.0 0.0882930404
C  C2  1  0.71010000  0.05150000  0.49251000  1.0 0.0882930404
C  C3  1  0.21010000  0.94850000  0.00749000  1.0 0.0882930404
C  C4  1  0.28990000  0.44850000  0.99251000  1.0 0.0882930404
C  C5  1  0.21010000  0.44850000  0.49251000  1.0 0.0882930404
C  C6  1  0.28990000  0.94850000  0.50749000  1.0 0.0882930404
C  C7  1  0.78990000  0.05150000  0.99251000  1.0 0.0882930404
C  C8  1  0.71010000  0.55150000  0.00749000  1.0 0.0882930404
C  C9  1  0.80630000  0.59560000  0.47733000  1.0 -0.1001071634
C  C10  1  0.69370000  0.09560000  0.52267000  1.0 -0.0886689565
C  C11  1  0.19370000  0.90440000  0.97733000  1.0 -0.1001071634
C  C12  1  0.30630000  0.40440000  0.02267000  1.0 -0.0886689565
C  C13  1  0.19370000  0.40440000  0.52267000  1.0 -0.0886689565
C  C14  1  0.30630000  0.90440000  0.47733000  1.0 -0.1001071634
C  C15  1  0.80630000  0.09560000  0.02267000  1.0 -0.0886689565
C  C16  1  0.69370000  0.59560000  0.97733000  1.0 -0.1001071634
C  C17  1  0.87550000  0.61350000  0.41972000  1.0 0.2578600223
C  C18  1  0.62450000  0.11350000  0.58028000  1.0 0.2578600223
C  C19  1  0.12450000  0.88650000  0.91972000  1.0 0.2485845858
C  C20  1  0.37550000  0.38650000  0.08028000  1.0 0.2485845858
C  C21  1  0.12450000  0.38650000  0.58028000  1.0 0.2578600223
C  C22  1  0.37550000  0.88650000  0.41972000  1.0 0.2578600223
C  C23  1  0.87550000  0.11350000  0.08028000  1.0 0.2485845858
C  C24  1  0.62450000  0.61350000  0.91972000  1.0 0.2485845858
C  C25  1  0.92290000  0.59890000  0.39270000  1.0 -0.2304608011
C  C26  1  0.57710000  0.09890000  0.60730000  1.0 -0.2394995886
C  C27  1  0.07710000  0.90110000  0.89270000  1.0 -0.2304608011
C  C28  1  0.42290000  0.40110000  0.10730000  1.0 -0.2394995886
C  C29  1  0.07710000  0.40110000  0.60730000  1.0 -0.2394995886
C  C30  1  0.42290000  0.90110000  0.39270000  1.0 -0.2394995886
C  C31  1  0.92290000  0.09890000  0.10730000  1.0 -0.2304608011
C  C32  1  0.57710000  0.59890000  0.89270000  1.0 -0.2304608011
C  C33  1  0.94420000  0.63090000  0.36070000  1.0 -0.1001071634
C  C34  1  0.55580000  0.13090000  0.63930000  1.0 -0.1001071634
C  C35  1  0.05580000  0.86910000  0.86070000  1.0 -0.1001071634
C  C36  1  0.44420000  0.36910000  0.13930000  1.0 -0.1001071634
C  C37  1  0.05580000  0.36910000  0.63930000  1.0 -0.1001071634
C  C38  1  0.44420000  0.86910000  0.36070000  1.0 -0.1001071634
C  C39  1  0.94420000  0.13090000  0.13930000  1.0 -0.1001071634
C  C40  1  0.55580000  0.63090000  0.86070000  1.0 -0.1001071634
C  C41  1  0.91870000  0.67780000  0.35393000  1.0 -0.062434495
C  C42  1  0.58130000  0.17780000  0.64607000  1.0 -0.062434495
C  C43  1  0.08130000  0.82220000  0.85393000  1.0 -0.062434495
C  C44  1  0.41870000  0.32220000  0.14607000  1.0 -0.062434495
C  C45  1  0.08130000  0.32220000  0.64607000  1.0 -0.062434495
C  C46  1  0.41870000  0.82220000  0.35393000  1.0 -0.062434495
C  C47  1  0.91870000  0.17780000  0.14607000  1.0 -0.062434495
C  C48  1  0.58130000  0.67780000  0.85393000  1.0 -0.062434495
C  C49  1  0.87330000  0.69300000  0.38180000  1.0 -0.1228818897
C  C50  1  0.62670000  0.19300000  0.61820000  1.0 -0.1228818897
C  C51  1  0.12670000  0.80700000  0.88180000  1.0 -0.1228818897
C  C52  1  0.37330000  0.30700000  0.11820000  1.0 -0.1228818897
C  C53  1  0.12670000  0.30700000  0.61820000  1.0 -0.1228818897
C  C54  1  0.37330000  0.80700000  0.38180000  1.0 -0.1228818897
C  C55  1  0.87330000  0.19300000  0.11820000  1.0 -0.1228818897
C  C56  1  0.62670000  0.69300000  0.88180000  1.0 -0.1228818897
C  C57  1  0.85230000  0.66160000  0.41430000  1.0 -0.2861211276
C  C58  1  0.64770000  0.16160000  0.58570000  1.0 -0.2861211276
C  C59  1  0.14770000  0.83840000  0.91430000  1.0 -0.2861211276
C  C60  1  0.35230000  0.33840000  0.08570000  1.0 -0.2861211276
C  C61  1  0.14770000  0.33840000  0.58570000  1.0 -0.2861211276
C  C62  1  0.35230000  0.83840000  0.41430000  1.0 -0.2861211276
C  C63  1  0.85230000  0.16160000  0.08570000  1.0 -0.2861211276
C  C64  1  0.64770000  0.66160000  0.91430000  1.0 -0.2861211276
C  C65  1  0.93830000  0.71210000  0.31750000  1.0 0.5810382204
C  C66  1  0.56170000  0.21210000  0.68250000  1.0 0.5810382204
C  C67  1  0.06170000  0.78790000  0.81750000  1.0 0.5810382204
C  C68  1  0.43830000  0.28790000  0.18250000  1.0 0.5810382204
C  C69  1  0.06170000  0.28790000  0.68250000  1.0 0.5810382204
C  C70  1  0.43830000  0.78790000  0.31750000  1.0 0.5810382204
C  C71  1  0.93830000  0.21210000  0.18250000  1.0 0.5810382204
C  C72  1  0.56170000  0.71210000  0.81750000  1.0 0.5810382204
C  C73  1  0.76960000  0.50670000  0.47860000  1.0 -0.0689467095
C  C74  1  0.73040000  0.00670000  0.52140000  1.0 -0.0689467095
C  C75  1  0.23040000  0.99330000  0.97860000  1.0 -0.0689467095
C  C76  1  0.26960000  0.49330000  0.02140000  1.0 -0.0689467095
C  C77  1  0.23040000  0.49330000  0.52140000  1.0 -0.0689467095
C  C78  1  0.26960000  0.99330000  0.47860000  1.0 -0.0689467095
C  C79  1  0.76960000  0.00670000  0.02140000  1.0 -0.0689467095
C  C80  1  0.73040000  0.50670000  0.97860000  1.0 -0.0689467095
C  C81  1  0.68790000  0.49470000  0.42730000  1.0 0.2402952152
C  C82  1  0.81210000  0.99470000  0.57270000  1.0 0.2402952152
C  C83  1  0.31210000  0.00530000  0.92730000  1.0 0.2402952152
C  C84  1  0.18790000  0.50530000  0.07270000  1.0 0.2402952152
C  C85  1  0.31210000  0.50530000  0.57270000  1.0 0.2402952152
C  C86  1  0.18790000  0.00530000  0.42730000  1.0 0.2402952152
C  C87  1  0.68790000  0.99470000  0.07270000  1.0 0.2402952152
C  C88  1  0.81210000  0.49470000  0.92730000  1.0 0.2402952152
C  C89  1  0.70420000  0.44830000  0.41260000  1.0 -0.2788080623
C  C90  1  0.79580000  0.94830000  0.58740000  1.0 -0.2788080623
C  C91  1  0.29580000  0.05170000  0.91260000  1.0 -0.2788080623
C  C92  1  0.20420000  0.55170000  0.08740000  1.0 -0.2788080623
C  C93  1  0.29580000  0.55170000  0.58740000  1.0 -0.2788080623
C  C94  1  0.20420000  0.05170000  0.41260000  1.0 -0.2788080623
C  C95  1  0.70420000  0.94830000  0.08740000  1.0 -0.2788080623
C  C96  1  0.79580000  0.44830000  0.91260000  1.0 -0.2788080623
C  C97  1  0.66740000  0.42340000  0.38220000  1.0 -0.0805449217
C  C98  1  0.83260000  0.92340000  0.61780000  1.0 -0.0805449217
C  C99  1  0.33260000  0.07660000  0.88220000  1.0 -0.0805449217
C  C100  1  0.16740000  0.57660000  0.11780000  1.0 -0.0805449217
C  C101  1  0.33260000  0.57660000  0.61780000  1.0 -0.0805449217
C  C102  1  0.16740000  0.07660000  0.38220000  1.0 -0.0805449217
C  C103  1  0.66740000  0.92340000  0.11780000  1.0 -0.0805449217
C  C104  1  0.83260000  0.42340000  0.88220000  1.0 -0.0805449217
C  C105  1  0.61450000  0.44530000  0.36690000  1.0 -0.0689467095
C  C106  1  0.88550000  0.94530000  0.63310000  1.0 -0.0689467095
C  C107  1  0.38550000  0.05470000  0.86690000  1.0 -0.0689467095
C  C108  1  0.11450000  0.55470000  0.13310000  1.0 -0.0689467095
C  C109  1  0.38550000  0.55470000  0.63310000  1.0 -0.0689467095
C  C110  1  0.11450000  0.05470000  0.36690000  1.0 -0.0689467095
C  C111  1  0.61450000  0.94530000  0.13310000  1.0 -0.0689467095
C  C112  1  0.88550000  0.44530000  0.86690000  1.0 -0.0689467095
C  C113  1  0.59830000  0.49210000  0.38320000  1.0 -0.0689467095
C  C114  1  0.90170000  0.99210000  0.61680000  1.0 -0.0689467095
C  C115  1  0.40170000  0.00790000  0.88320000  1.0 -0.0689467095
C  C116  1  0.09830000  0.50790000  0.11680000  1.0 -0.0689467095
C  C117  1  0.40170000  0.50790000  0.61680000  1.0 -0.0689467095
C  C118  1  0.09830000  0.00790000  0.38320000  1.0 -0.0689467095
C  C119  1  0.59830000  0.99210000  0.11680000  1.0 -0.0689467095
C  C120  1  0.90170000  0.49210000  0.88320000  1.0 -0.0689467095
C  C121  1  0.63400000  0.51640000  0.41310000  1.0 -0.22056262
C  C122  1  0.86600000  0.01640000  0.58690000  1.0 -0.22056262
C  C123  1  0.36600000  0.98360000  0.91310000  1.0 -0.22056262
C  C124  1  0.13400000  0.48360000  0.08690000  1.0 -0.22056262
C  C125  1  0.36600000  0.48360000  0.58690000  1.0 -0.22056262
C  C126  1  0.13400000  0.98360000  0.41310000  1.0 -0.22056262
C  C127  1  0.63400000  0.01640000  0.08690000  1.0 -0.22056262
C  C128  1  0.86600000  0.51640000  0.91310000  1.0 -0.22056262
C  C129  1  0.57480000  0.41950000  0.33480000  1.0 0.6174291546
C  C130  1  0.92520000  0.91950000  0.66520000  1.0 0.6174291546
C  C131  1  0.42520000  0.08050000  0.83480000  1.0 0.6174291546
C  C132  1  0.07480000  0.58050000  0.16520000  1.0 0.6174291546
C  C133  1  0.42520000  0.58050000  0.66520000  1.0 0.6174291546
C  C134  1  0.07480000  0.08050000  0.33480000  1.0 0.6174291546
C  C135  1  0.57480000  0.91950000  0.16520000  1.0 0.6174291546
C  C136  1  0.92520000  0.41950000  0.83480000  1.0 0.6174291546
C  C137  1  0.84490000  0.53830000  0.53500000  1.0 -0.0805449217
C  C138  1  0.65510000  0.03830000  0.46500000  1.0 -0.0805449217
C  C139  1  0.15510000  0.96170000  0.03500000  1.0 -0.0805449217
C  C140  1  0.34490000  0.46170000  0.96500000  1.0 -0.0805449217
C  C141  1  0.15510000  0.46170000  0.46500000  1.0 -0.0805449217
C  C142  1  0.34490000  0.96170000  0.53500000  1.0 -0.0805449217
C  C143  1  0.84490000  0.03830000  0.96500000  1.0 -0.0805449217
C  C144  1  0.65510000  0.53830000  0.03500000  1.0 -0.0805449217
C  C145  1  0.86860000  0.48740000  0.59638000  1.0 0.2671899075
C  C146  1  0.63140000  0.98740000  0.40362000  1.0 0.2671899075
C  C147  1  0.13140000  0.01260000  0.09638000  1.0 0.2671899075
C  C148  1  0.36860000  0.51260000  0.90362000  1.0 0.2671899075
C  C149  1  0.13140000  0.51260000  0.40362000  1.0 0.2671899075
C  C150  1  0.36860000  0.01260000  0.59638000  1.0 0.2671899075
C  C151  1  0.86860000  0.98740000  0.90362000  1.0 0.2671899075
C  C152  1  0.63140000  0.48740000  0.09638000  1.0 0.2671899075
C  C153  1  0.91850000  0.51690000  0.60640000  1.0 -0.2394995886
C  C154  1  0.58150000  0.01690000  0.39360000  1.0 -0.2394995886
C  C155  1  0.08150000  0.98310000  0.10640000  1.0 -0.2394995886
C  C156  1  0.41850000  0.48310000  0.89360000  1.0 -0.2394995886
C  C157  1  0.08150000  0.48310000  0.39360000  1.0 -0.2394995886
C  C158  1  0.41850000  0.98310000  0.60640000  1.0 -0.2394995886
C  C159  1  0.91850000  0.01690000  0.89360000  1.0 -0.2394995886
C  C160  1  0.58150000  0.51690000  0.10640000  1.0 -0.2394995886
C  C161  1  0.95060000  0.50690000  0.64380000  1.0 -0.062434495
C  C162  1  0.54940000  0.00690000  0.35620000  1.0 -0.062434495
C  C163  1  0.04940000  0.99310000  0.14380000  1.0 -0.062434495
C  C164  1  0.45060000  0.49310000  0.85620000  1.0 -0.062434495
C  C165  1  0.04940000  0.49310000  0.35620000  1.0 -0.062434495
C  C166  1  0.45060000  0.99310000  0.64380000  1.0 -0.062434495
C  C167  1  0.95060000  0.00690000  0.85620000  1.0 -0.062434495
C  C168  1  0.54940000  0.50690000  0.14380000  1.0 -0.062434495
C  C169  1  0.93840000  0.46640000  0.67118000  1.0 -0.1001071634
C  C170  1  0.56160000  0.96640000  0.32882000  1.0 -0.1001071634
C  C171  1  0.06160000  0.03360000  0.17118000  1.0 -0.1001071634
C  C172  1  0.43840000  0.53360000  0.82882000  1.0 -0.1001071634
C  C173  1  0.06160000  0.53360000  0.32882000  1.0 -0.1001071634
C  C174  1  0.43840000  0.03360000  0.67118000  1.0 -0.1001071634
C  C175  1  0.93840000  0.96640000  0.82882000  1.0 -0.1001071634
C  C176  1  0.56160000  0.46640000  0.17118000  1.0 -0.1001071634
C  C177  1  0.89050000  0.43520000  0.65840000  1.0 -0.0689467095
C  C178  1  0.60950000  0.93520000  0.34160000  1.0 -0.0689467095
C  C179  1  0.10950000  0.06480000  0.15840000  1.0 -0.0689467095
C  C180  1  0.39050000  0.56480000  0.84160000  1.0 -0.0689467095
C  C181  1  0.10950000  0.56480000  0.34160000  1.0 -0.0689467095
C  C182  1  0.39050000  0.06480000  0.65840000  1.0 -0.0689467095
C  C183  1  0.89050000  0.93520000  0.84160000  1.0 -0.0689467095
C  C184  1  0.60950000  0.43520000  0.15840000  1.0 -0.0689467095
C  C185  1  0.85680000  0.44600000  0.62260000  1.0 -0.2097131371
C  C186  1  0.64320000  0.94600000  0.37740000  1.0 -0.2097131371
C  C187  1  0.14320000  0.05400000  0.12260000  1.0 -0.2097131371
C  C188  1  0.35680000  0.55400000  0.87740000  1.0 -0.2097131371
C  C189  1  0.14320000  0.55400000  0.37740000  1.0 -0.2097131371
C  C190  1  0.35680000  0.05400000  0.62260000  1.0 -0.2097131371
C  C191  1  0.85680000  0.94600000  0.87740000  1.0 -0.2097131371
C  C192  1  0.64320000  0.44600000  0.12260000  1.0 -0.2097131371
C  C193  1  0.97240000  0.45630000  0.71076000  1.0 0.5990613872
C  C194  1  0.52760000  0.95630000  0.28924000  1.0 0.5990613872
C  C195  1  0.02760000  0.04370000  0.21076000  1.0 0.5990613872
C  C196  1  0.47240000  0.54370000  0.78924000  1.0 0.5990613872
C  C197  1  0.02760000  0.54370000  0.28924000  1.0 0.5990613872
C  C198  1  0.47240000  0.04370000  0.71076000  1.0 0.5990613872
C  C199  1  0.97240000  0.95630000  0.78924000  1.0 0.5990613872
C  C200  1  0.52760000  0.45630000  0.21076000  1.0 0.5990613872
C  C201  1  0.73730000  0.56700000  0.53660000  1.0 -0.0805449217
C  C202  1  0.76270000  0.06700000  0.46340000  1.0 -0.0805449217
C  C203  1  0.26270000  0.93300000  0.03660000  1.0 -0.0805449217
C  C204  1  0.23730000  0.43300000  0.96340000  1.0 -0.0805449217
C  C205  1  0.26270000  0.43300000  0.46340000  1.0 -0.0805449217
C  C206  1  0.23730000  0.93300000  0.53660000  1.0 -0.0805449217
C  C207  1  0.73730000  0.06700000  0.96340000  1.0 -0.0805449217
C  C208  1  0.76270000  0.56700000  0.03660000  1.0 -0.0805449217
C  C209  1  0.71170000  0.62450000  0.59230000  1.0 0.2671899075
C  C210  1  0.78830000  0.12450000  0.40770000  1.0 0.2671899075
C  C211  1  0.28830000  0.87550000  0.09230000  1.0 0.2671899075
C  C212  1  0.21170000  0.37550000  0.90770000  1.0 0.2671899075
C  C213  1  0.28830000  0.37550000  0.40770000  1.0 0.2671899075
C  C214  1  0.21170000  0.87550000  0.59230000  1.0 0.2671899075
C  C215  1  0.71170000  0.12450000  0.90770000  1.0 0.2671899075
C  C216  1  0.78830000  0.62450000  0.09230000  1.0 0.2671899075
C  C217  1  0.65650000  0.60170000  0.59950000  1.0 -0.2304608011
C  C218  1  0.84350000  0.10170000  0.40050000  1.0 -0.2304608011
C  C219  1  0.34350000  0.89830000  0.09950000  1.0 -0.2304608011
C  C220  1  0.15650000  0.39830000  0.90050000  1.0 -0.2304608011
C  C221  1  0.34350000  0.39830000  0.40050000  1.0 -0.2304608011
C  C222  1  0.15650000  0.89830000  0.59950000  1.0 -0.2304608011
C  C223  1  0.65650000  0.10170000  0.90050000  1.0 -0.2304608011
C  C224  1  0.84350000  0.60170000  0.09950000  1.0 -0.2304608011
C  C225  1  0.61950000  0.61900000  0.63206000  1.0 -0.0689467095
C  C226  1  0.88050000  0.11900000  0.36794000  1.0 -0.0689467095
C  C227  1  0.38050000  0.88100000  0.13206000  1.0 -0.0689467095
C  C228  1  0.11950000  0.38100000  0.86794000  1.0 -0.0689467095
C  C229  1  0.38050000  0.38100000  0.36794000  1.0 -0.0689467095
C  C230  1  0.11950000  0.88100000  0.63206000  1.0 -0.0689467095
C  C231  1  0.61950000  0.11900000  0.86794000  1.0 -0.0689467095
C  C232  1  0.88050000  0.61900000  0.13206000  1.0 -0.0689467095
C  C233  1  0.63330000  0.66020000  0.65740000  1.0 -0.0805449217
C  C234  1  0.86670000  0.16020000  0.34260000  1.0 -0.0805449217
C  C235  1  0.36670000  0.83980000  0.15740000  1.0 -0.0805449217
C  C236  1  0.13330000  0.33980000  0.84260000  1.0 -0.0805449217
C  C237  1  0.36670000  0.33980000  0.34260000  1.0 -0.0805449217
C  C238  1  0.13330000  0.83980000  0.65740000  1.0 -0.0805449217
C  C239  1  0.63330000  0.16020000  0.84260000  1.0 -0.0805449217
C  C240  1  0.86670000  0.66020000  0.15740000  1.0 -0.0805449217
C  C241  1  0.68910000  0.68550000  0.64960000  1.0 -0.1001071634
C  C242  1  0.81090000  0.18550000  0.35040000  1.0 -0.1001071634
C  C243  1  0.31090000  0.81450000  0.14960000  1.0 -0.1001071634
C  C244  1  0.18910000  0.31450000  0.85040000  1.0 -0.1001071634
C  C245  1  0.31090000  0.31450000  0.35040000  1.0 -0.1001071634
C  C246  1  0.18910000  0.81450000  0.64960000  1.0 -0.1001071634
C  C247  1  0.68910000  0.18550000  0.85040000  1.0 -0.1001071634
C  C248  1  0.81090000  0.68550000  0.14960000  1.0 -0.1001071634
C  C249  1  0.72680000  0.66730000  0.61690000  1.0 -0.2394995886
C  C250  1  0.77320000  0.16730000  0.38310000  1.0 -0.2304608011
C  C251  1  0.27320000  0.83270000  0.11690000  1.0 -0.2394995886
C  C252  1  0.22680000  0.33270000  0.88310000  1.0 -0.2304608011
C  C253  1  0.27320000  0.33270000  0.38310000  1.0 -0.2394995886
C  C254  1  0.22680000  0.83270000  0.61690000  1.0 -0.2394995886
C  C255  1  0.72680000  0.16730000  0.88310000  1.0 -0.2304608011
C  C256  1  0.77320000  0.66730000  0.11690000  1.0 -0.2394995886
C  C257  1  0.59330000  0.67790000  0.69295000  1.0 0.5990613872
C  C258  1  0.90670000  0.17790000  0.30705000  1.0 0.5990613872
C  C259  1  0.40670000  0.82210000  0.19295000  1.0 0.5990613872
C  C260  1  0.09330000  0.32210000  0.80705000  1.0 0.5990613872
C  C261  1  0.40670000  0.32210000  0.30705000  1.0 0.5990613872
C  C262  1  0.09330000  0.82210000  0.69295000  1.0 0.5990613872
C  C263  1  0.59330000  0.17790000  0.80705000  1.0 0.5990613872
C  C264  1  0.90670000  0.67790000  0.19295000  1.0 0.5990613872
C  C265  1  0.75400000  0.27950000  0.01485000  1.0 0.0882930404
C  C266  1  0.74600000  0.77950000  0.98515000  1.0 0.0882930404
C  C267  1  0.24600000  0.22050000  0.51485000  1.0 0.0882930404
C  C268  1  0.25400000  0.72050000  0.48515000  1.0 0.0882930404
C  C269  1  0.24600000  0.72050000  0.98515000  1.0 0.0882930404
C  C270  1  0.25400000  0.22050000  0.01485000  1.0 0.0882930404
C  C271  1  0.75400000  0.77950000  0.48515000  1.0 0.0882930404
C  C272  1  0.74600000  0.27950000  0.51485000  1.0 0.0882930404
C  C273  1  0.71410000  0.28590000  0.97450000  1.0 -0.0805449217
C  C274  1  0.78590000  0.78590000  0.02550000  1.0 -0.0805449217
C  C275  1  0.28590000  0.21410000  0.47450000  1.0 -0.0805449217
C  C276  1  0.21410000  0.71410000  0.52550000  1.0 -0.0805449217
C  C277  1  0.28590000  0.71410000  0.02550000  1.0 -0.0805449217
C  C278  1  0.21410000  0.21410000  0.97450000  1.0 -0.0805449217
C  C279  1  0.71410000  0.78590000  0.52550000  1.0 -0.0805449217
C  C280  1  0.78590000  0.28590000  0.47450000  1.0 -0.0805449217
C  C281  1  0.70130000  0.33950000  0.91500000  1.0 0.2578600223
C  C282  1  0.79870000  0.83950000  0.08500000  1.0 0.2578600223
C  C283  1  0.29870000  0.16050000  0.41500000  1.0 0.2578600223
C  C284  1  0.20130000  0.66050000  0.58500000  1.0 0.2578600223
C  C285  1  0.29870000  0.66050000  0.08500000  1.0 0.2578600223
C  C286  1  0.20130000  0.16050000  0.91500000  1.0 0.2578600223
C  C287  1  0.70130000  0.83950000  0.58500000  1.0 0.2578600223
C  C288  1  0.79870000  0.33950000  0.41500000  1.0 0.2578600223
C  C289  1  0.65230000  0.37220000  0.92110000  1.0 -0.2304608011
C  C290  1  0.84770000  0.87220000  0.07890000  1.0 -0.2304608011
C  C291  1  0.34770000  0.12780000  0.42110000  1.0 -0.2304608011
C  C292  1  0.15230000  0.62780000  0.57890000  1.0 -0.2304608011
C  C293  1  0.34770000  0.62780000  0.07890000  1.0 -0.2304608011
C  C294  1  0.15230000  0.12780000  0.92110000  1.0 -0.2304608011
C  C295  1  0.65230000  0.87220000  0.57890000  1.0 -0.2304608011
C  C296  1  0.84770000  0.37220000  0.42110000  1.0 -0.2304608011
C  C297  1  0.61940000  0.38470000  0.88490000  1.0 -0.0689467095
C  C298  1  0.88060000  0.88470000  0.11510000  1.0 -0.0689467095
C  C299  1  0.38060000  0.11530000  0.38490000  1.0 -0.0689467095
C  C300  1  0.11940000  0.61530000  0.61510000  1.0 -0.0689467095
C  C301  1  0.38060000  0.61530000  0.11510000  1.0 -0.0689467095
C  C302  1  0.11940000  0.11530000  0.88490000  1.0 -0.0689467095
C  C303  1  0.61940000  0.88470000  0.61510000  1.0 -0.0689467095
C  C304  1  0.88060000  0.38470000  0.38490000  1.0 -0.0689467095
C  C305  1  0.62820000  0.36430000  0.84470000  1.0 -0.0886689565
C  C306  1  0.87180000  0.86430000  0.15530000  1.0 -0.0886689565
C  C307  1  0.37180000  0.13570000  0.34470000  1.0 -0.0886689565
C  C308  1  0.12820000  0.63570000  0.65530000  1.0 -0.0886689565
C  C309  1  0.37180000  0.63570000  0.15530000  1.0 -0.0886689565
C  C310  1  0.12820000  0.13570000  0.84470000  1.0 -0.0886689565
C  C311  1  0.62820000  0.86430000  0.65530000  1.0 -0.0886689565
C  C312  1  0.87180000  0.36430000  0.34470000  1.0 -0.0886689565
C  C313  1  0.67470000  0.32980000  0.83970000  1.0 -0.0689467095
C  C314  1  0.82530000  0.82980000  0.16030000  1.0 -0.0689467095
C  C315  1  0.32530000  0.17020000  0.33970000  1.0 -0.0689467095
C  C316  1  0.17470000  0.67020000  0.66030000  1.0 -0.0689467095
C  C317  1  0.32530000  0.67020000  0.16030000  1.0 -0.0689467095
C  C318  1  0.17470000  0.17020000  0.83970000  1.0 -0.0689467095
C  C319  1  0.67470000  0.82980000  0.66030000  1.0 -0.0689467095
C  C320  1  0.82530000  0.32980000  0.33970000  1.0 -0.0689467095
C  C321  1  0.71140000  0.31840000  0.87430000  1.0 -0.22056262
C  C322  1  0.78860000  0.81840000  0.12570000  1.0 -0.22056262
C  C323  1  0.28860000  0.18160000  0.37430000  1.0 -0.22056262
C  C324  1  0.21140000  0.68160000  0.62570000  1.0 -0.22056262
C  C325  1  0.28860000  0.68160000  0.12570000  1.0 -0.22056262
C  C326  1  0.21140000  0.18160000  0.87430000  1.0 -0.22056262
C  C327  1  0.71140000  0.81840000  0.62570000  1.0 -0.22056262
C  C328  1  0.78860000  0.31840000  0.37430000  1.0 -0.22056262
C  C329  1  0.59290000  0.37750000  0.80690000  1.0 0.5715639765
C  C330  1  0.90710000  0.87750000  0.19310000  1.0 0.5715639765
C  C331  1  0.40710000  0.12250000  0.30690000  1.0 0.5715639765
C  C332  1  0.09290000  0.62250000  0.69310000  1.0 0.5715639765
C  C333  1  0.40710000  0.62250000  0.19310000  1.0 0.5715639765
C  C334  1  0.09290000  0.12250000  0.80690000  1.0 0.5715639765
C  C335  1  0.59290000  0.87750000  0.69310000  1.0 0.5715639765
C  C336  1  0.90710000  0.37750000  0.30690000  1.0 0.5715639765
C  C337  1  0.81810000  0.26540000  0.00240000  1.0 -0.0805449217
C  C338  1  0.68190000  0.76540000  0.99760000  1.0 -0.0805449217
C  C339  1  0.18190000  0.23460000  0.50240000  1.0 -0.0805449217
C  C340  1  0.31810000  0.73460000  0.49760000  1.0 -0.0805449217
C  C341  1  0.18190000  0.73460000  0.99760000  1.0 -0.0805449217
C  C342  1  0.31810000  0.23460000  0.00240000  1.0 -0.0805449217
C  C343  1  0.81810000  0.76540000  0.49760000  1.0 -0.0805449217
C  C344  1  0.68190000  0.26540000  0.50240000  1.0 -0.0805449217
C  C345  1  0.85380000  0.22490000  0.93690000  1.0 0.2485845858
C  C346  1  0.64620000  0.72490000  0.06310000  1.0 0.2485845858
C  C347  1  0.14620000  0.27510000  0.43690000  1.0 0.2485845858
C  C348  1  0.35380000  0.77510000  0.56310000  1.0 0.2485845858
C  C349  1  0.14620000  0.77510000  0.06310000  1.0 0.2485845858
C  C350  1  0.35380000  0.27510000  0.93690000  1.0 0.2485845858
C  C351  1  0.85380000  0.72490000  0.56310000  1.0 0.2485845858
C  C352  1  0.64620000  0.22490000  0.43690000  1.0 0.2485845858
C  C353  1  0.85410000  0.26690000  0.90990000  1.0 -0.2394995886
C  C354  1  0.64590000  0.76690000  0.09010000  1.0 -0.2394995886
C  C355  1  0.14590000  0.23310000  0.40990000  1.0 -0.2394995886
C  C356  1  0.35410000  0.73310000  0.59010000  1.0 -0.2394995886
C  C357  1  0.14590000  0.73310000  0.09010000  1.0 -0.2394995886
C  C358  1  0.35410000  0.23310000  0.90990000  1.0 -0.2394995886
C  C359  1  0.85410000  0.76690000  0.59010000  1.0 -0.2394995886
C  C360  1  0.64590000  0.26690000  0.40990000  1.0 -0.2394995886
C  C361  1  0.88700000  0.26630000  0.87120000  1.0 -0.0689467095
C  C362  1  0.61300000  0.76630000  0.12880000  1.0 -0.0689467095
C  C363  1  0.11300000  0.23370000  0.37120000  1.0 -0.0689467095
C  C364  1  0.38700000  0.73370000  0.62880000  1.0 -0.0689467095
C  C365  1  0.11300000  0.73370000  0.12880000  1.0 -0.0689467095
C  C366  1  0.38700000  0.23370000  0.87120000  1.0 -0.0689467095
C  C367  1  0.88700000  0.76630000  0.62880000  1.0 -0.0689467095
C  C368  1  0.61300000  0.26630000  0.37120000  1.0 -0.0689467095
C  C369  1  0.95570000  0.22300000  0.81880000  1.0 0.5990613872
C  C370  1  0.54430000  0.72300000  0.18120000  1.0 0.5990613872
C  C371  1  0.04430000  0.27700000  0.31880000  1.0 0.5990613872
C  C372  1  0.45570000  0.77700000  0.68120000  1.0 0.5990613872
C  C373  1  0.04430000  0.77700000  0.18120000  1.0 0.5990613872
C  C374  1  0.45570000  0.27700000  0.81880000  1.0 0.5990613872
C  C375  1  0.95570000  0.72300000  0.68120000  1.0 0.5990613872
C  C376  1  0.54430000  0.22300000  0.31880000  1.0 0.5990613872
C  C377  1  0.91890000  0.22430000  0.85910000  1.0 -0.062434495
C  C378  1  0.58110000  0.72430000  0.14090000  1.0 -0.062434495
C  C379  1  0.08110000  0.27570000  0.35910000  1.0 -0.062434495
C  C380  1  0.41890000  0.77570000  0.64090000  1.0 -0.062434495
C  C381  1  0.08110000  0.77570000  0.14090000  1.0 -0.062434495
C  C382  1  0.41890000  0.27570000  0.85910000  1.0 -0.062434495
C  C383  1  0.91890000  0.72430000  0.64090000  1.0 -0.062434495
C  C384  1  0.58110000  0.22430000  0.35910000  1.0 -0.062434495
C  C385  1  0.91700000  0.18260000  0.88700000  1.0 -0.0805449217
C  C386  1  0.58300000  0.68260000  0.11300000  1.0 -0.0805449217
C  C387  1  0.08300000  0.31740000  0.38700000  1.0 -0.0805449217
C  C388  1  0.41700000  0.81740000  0.61300000  1.0 -0.0805449217
C  C389  1  0.08300000  0.81740000  0.11300000  1.0 -0.0805449217
C  C390  1  0.41700000  0.31740000  0.88700000  1.0 -0.0805449217
C  C391  1  0.91700000  0.68260000  0.61300000  1.0 -0.0805449217
C  C392  1  0.58300000  0.18260000  0.38700000  1.0 -0.0805449217
C  C393  1  0.88600000  0.18280000  0.92480000  1.0 -0.2097131371
C  C394  1  0.61400000  0.68280000  0.07520000  1.0 -0.2097131371
C  C395  1  0.11400000  0.31720000  0.42480000  1.0 -0.2097131371
C  C396  1  0.38600000  0.81720000  0.57520000  1.0 -0.2097131371
C  C397  1  0.11400000  0.81720000  0.07520000  1.0 -0.2097131371
C  C398  1  0.38600000  0.31720000  0.92480000  1.0 -0.2097131371
C  C399  1  0.88600000  0.68280000  0.57520000  1.0 -0.2097131371
C  C400  1  0.61400000  0.18280000  0.42480000  1.0 -0.2097131371
C  C401  1  0.72820000  0.23750000  0.04280000  1.0 -0.0886689565
C  C402  1  0.77180000  0.73750000  0.95720000  1.0 -0.0886689565
C  C403  1  0.27180000  0.26250000  0.54280000  1.0 -0.0886689565
C  C404  1  0.22820000  0.76250000  0.45720000  1.0 -0.0886689565
C  C405  1  0.27180000  0.76250000  0.95720000  1.0 -0.0886689565
C  C406  1  0.22820000  0.26250000  0.04280000  1.0 -0.0886689565
C  C407  1  0.72820000  0.73750000  0.45720000  1.0 -0.0886689565
C  C408  1  0.77180000  0.23750000  0.54280000  1.0 -0.0886689565
C  C409  1  0.64260000  0.22530000  0.08930000  1.0 0.2578600223
C  C410  1  0.85740000  0.72530000  0.91070000  1.0 0.2578600223
C  C411  1  0.35740000  0.27470000  0.58930000  1.0 0.2578600223
C  C412  1  0.14260000  0.77470000  0.41070000  1.0 0.2578600223
C  C413  1  0.35740000  0.77470000  0.91070000  1.0 0.2578600223
C  C414  1  0.14260000  0.27470000  0.08930000  1.0 0.2578600223
C  C415  1  0.64260000  0.72530000  0.41070000  1.0 0.2578600223
C  C416  1  0.85740000  0.22530000  0.58930000  1.0 0.2578600223
C  C417  1  0.60200000  0.24930000  0.11630000  1.0 -0.2097131371
C  C418  1  0.89800000  0.74930000  0.88370000  1.0 -0.2097131371
C  C419  1  0.39800000  0.25070000  0.61630000  1.0 -0.2097131371
C  C420  1  0.10200000  0.75070000  0.38370000  1.0 -0.2097131371
C  C421  1  0.39800000  0.75070000  0.88370000  1.0 -0.2097131371
C  C422  1  0.10200000  0.25070000  0.11630000  1.0 -0.2097131371
C  C423  1  0.60200000  0.74930000  0.38370000  1.0 -0.2097131371
C  C424  1  0.89800000  0.24930000  0.61630000  1.0 -0.2097131371
C  C425  1  0.56930000  0.22110000  0.14680000  1.0 -0.0689467095
C  C426  1  0.93070000  0.72110000  0.85320000  1.0 -0.0689467095
C  C427  1  0.43070000  0.27890000  0.64680000  1.0 -0.0689467095
C  C428  1  0.06930000  0.77890000  0.35320000  1.0 -0.0689467095
C  C429  1  0.43070000  0.77890000  0.85320000  1.0 -0.0689467095
C  C430  1  0.06930000  0.27890000  0.14680000  1.0 -0.0689467095
C  C431  1  0.56930000  0.72110000  0.35320000  1.0 -0.0689467095
C  C432  1  0.93070000  0.22110000  0.64680000  1.0 -0.0689467095
C  C433  1  0.57640000  0.17020000  0.15010000  1.0 -0.0689467095
C  C434  1  0.92360000  0.67020000  0.84990000  1.0 -0.0689467095
C  C435  1  0.42360000  0.32980000  0.65010000  1.0 -0.0689467095
C  C436  1  0.07640000  0.82980000  0.34990000  1.0 -0.0689467095
C  C437  1  0.42360000  0.82980000  0.84990000  1.0 -0.0689467095
C  C438  1  0.07640000  0.32980000  0.15010000  1.0 -0.0689467095
C  C439  1  0.57640000  0.67020000  0.34990000  1.0 -0.0689467095
C  C440  1  0.92360000  0.17020000  0.65010000  1.0 -0.0689467095
C  C441  1  0.61650000  0.14830000  0.12260000  1.0 -0.0886689565
C  C442  1  0.88350000  0.64830000  0.87740000  1.0 -0.0886689565
C  C443  1  0.38350000  0.35170000  0.62260000  1.0 -0.0886689565
C  C444  1  0.11650000  0.85170000  0.37740000  1.0 -0.0886689565
C  C445  1  0.38350000  0.85170000  0.87740000  1.0 -0.0886689565
C  C446  1  0.11650000  0.35170000  0.12260000  1.0 -0.0886689565
C  C447  1  0.61650000  0.64830000  0.37740000  1.0 -0.0886689565
C  C448  1  0.88350000  0.14830000  0.62260000  1.0 -0.0886689565
C  C449  1  0.65050000  0.17480000  0.09220000  1.0 -0.2569905346
C  C450  1  0.84950000  0.67480000  0.90780000  1.0 -0.2569905346
C  C451  1  0.34950000  0.32520000  0.59220000  1.0 -0.2569905346
C  C452  1  0.15050000  0.82520000  0.40780000  1.0 -0.2569905346
C  C453  1  0.34950000  0.82520000  0.90780000  1.0 -0.2569905346
C  C454  1  0.15050000  0.32520000  0.09220000  1.0 -0.2569905346
C  C455  1  0.65050000  0.67480000  0.40780000  1.0 -0.2569905346
C  C456  1  0.84950000  0.17480000  0.59220000  1.0 -0.2569905346
C  C457  1  0.54250000  0.14000000  0.18170000  1.0 0.5916395509
C  C458  1  0.95750000  0.64000000  0.81830000  1.0 0.5916395509
C  C459  1  0.45750000  0.36000000  0.68170000  1.0 0.5916395509
C  C460  1  0.04250000  0.86000000  0.31830000  1.0 0.5916395509
C  C461  1  0.45750000  0.86000000  0.81830000  1.0 0.5916395509
C  C462  1  0.04250000  0.36000000  0.18170000  1.0 0.5916395509
C  C463  1  0.54250000  0.64000000  0.31830000  1.0 0.5916395509
C  C464  1  0.95750000  0.14000000  0.68170000  1.0 0.5916395509
C  C465  1  0.75680000  0.32810000  0.04060000  1.0 -0.0805449217
C  C466  1  0.74320000  0.82810000  0.95940000  1.0 -0.0805449217
C  C467  1  0.24320000  0.17190000  0.54060000  1.0 -0.0805449217
C  C468  1  0.25680000  0.67190000  0.45940000  1.0 -0.0805449217
C  C469  1  0.24320000  0.67190000  0.95940000  1.0 -0.0805449217
C  C470  1  0.25680000  0.17190000  0.04060000  1.0 -0.0805449217
C  C471  1  0.75680000  0.82810000  0.45940000  1.0 -0.0805449217
C  C472  1  0.74320000  0.32810000  0.54060000  1.0 -0.0805449217
C  C473  1  0.81020000  0.35820000  0.10410000  1.0 0.2485845858
C  C474  1  0.68980000  0.85820000  0.89590000  1.0 0.2485845858
C  C475  1  0.18980000  0.14180000  0.60410000  1.0 0.2485845858
C  C476  1  0.31020000  0.64180000  0.39590000  1.0 0.2485845858
C  C477  1  0.18980000  0.64180000  0.89590000  1.0 0.2485845858
C  C478  1  0.31020000  0.14180000  0.10410000  1.0 0.2485845858
C  C479  1  0.81020000  0.85820000  0.39590000  1.0 0.2485845858
C  C480  1  0.68980000  0.35820000  0.60410000  1.0 0.2485845858
C  C481  1  0.79210000  0.40600000  0.09560000  1.0 -0.2685840553
C  C482  1  0.70790000  0.90600000  0.90440000  1.0 -0.2685840553
C  C483  1  0.20790000  0.09400000  0.59560000  1.0 -0.2685840553
C  C484  1  0.29210000  0.59400000  0.40440000  1.0 -0.2685840553
C  C485  1  0.20790000  0.59400000  0.90440000  1.0 -0.2685840553
C  C486  1  0.29210000  0.09400000  0.09560000  1.0 -0.2685840553
C  C487  1  0.79210000  0.90600000  0.40440000  1.0 -0.2685840553
C  C488  1  0.70790000  0.40600000  0.59560000  1.0 -0.2685840553
C  C489  1  0.81700000  0.44440000  0.12180000  1.0 -0.0805449217
C  C490  1  0.68300000  0.94440000  0.87820000  1.0 -0.0805449217
C  C491  1  0.18300000  0.05560000  0.62180000  1.0 -0.0805449217
C  C492  1  0.31700000  0.55560000  0.37820000  1.0 -0.0805449217
C  C493  1  0.18300000  0.55560000  0.87820000  1.0 -0.0805449217
C  C494  1  0.31700000  0.05560000  0.12180000  1.0 -0.0805449217
C  C495  1  0.81700000  0.94440000  0.37820000  1.0 -0.0805449217
C  C496  1  0.68300000  0.44440000  0.62180000  1.0 -0.0805449217
C  C497  1  0.85800000  0.43400000  0.15490000  1.0 -0.062434495
C  C498  1  0.64200000  0.93400000  0.84510000  1.0 -0.062434495
C  C499  1  0.14200000  0.06600000  0.65490000  1.0 -0.062434495
C  C500  1  0.35800000  0.56600000  0.34510000  1.0 -0.062434495
C  C501  1  0.14200000  0.56600000  0.84510000  1.0 -0.062434495
C  C502  1  0.35800000  0.06600000  0.15490000  1.0 -0.062434495
C  C503  1  0.85800000  0.93400000  0.34510000  1.0 -0.062434495
C  C504  1  0.64200000  0.43400000  0.65490000  1.0 -0.062434495
C  C505  1  0.87370000  0.38390000  0.16240000  1.0 -0.0689467095
C  C506  1  0.62630000  0.88390000  0.83760000  1.0 -0.0689467095
C  C507  1  0.12630000  0.11610000  0.66240000  1.0 -0.0689467095
C  C508  1  0.37370000  0.61610000  0.33760000  1.0 -0.0689467095
C  C509  1  0.12630000  0.61610000  0.83760000  1.0 -0.0689467095
C  C510  1  0.37370000  0.11610000  0.16240000  1.0 -0.0689467095
C  C511  1  0.87370000  0.88390000  0.33760000  1.0 -0.0689467095
C  C512  1  0.62630000  0.38390000  0.66240000  1.0 -0.0689467095
C  C513  1  0.85010000  0.34640000  0.13710000  1.0 -0.1972285826
C  C514  1  0.64990000  0.84640000  0.86290000  1.0 -0.1972285826
C  C515  1  0.14990000  0.15360000  0.63710000  1.0 -0.1972285826
C  C516  1  0.35010000  0.65360000  0.36290000  1.0 -0.1972285826
C  C517  1  0.14990000  0.65360000  0.86290000  1.0 -0.1972285826
C  C518  1  0.35010000  0.15360000  0.13710000  1.0 -0.1972285826
C  C519  1  0.85010000  0.84640000  0.36290000  1.0 -0.1972285826
C  C520  1  0.64990000  0.34640000  0.63710000  1.0 -0.1972285826
C  C521  1  0.88690000  0.47530000  0.17947000  1.0 0.5810382204
C  C522  1  0.61310000  0.97530000  0.82053000  1.0 0.5810382204
C  C523  1  0.11310000  0.02470000  0.67947000  1.0 0.5810382204
C  C524  1  0.38690000  0.52470000  0.32053000  1.0 0.5810382204
C  C525  1  0.11310000  0.52470000  0.82053000  1.0 0.5810382204
C  C526  1  0.38690000  0.02470000  0.17947000  1.0 0.5810382204
C  C527  1  0.88690000  0.97530000  0.32053000  1.0 0.5810382204
C  C528  1  0.61310000  0.47530000  0.67947000  1.0 0.5810382204
C  C529  1  0.17160000  0.39910000  0.32120000  1.0 -0.5873573973
C  C530  1  0.32840000  0.89910000  0.67880000  1.0 -0.5873573973
C  C531  1  0.82840000  0.10090000  0.82120000  1.0 -0.5819197064
C  C532  1  0.67160000  0.60090000  0.17880000  1.0 -0.5873573973
C  C533  1  0.82840000  0.60090000  0.67880000  1.0 -0.5873573973
C  C534  1  0.67160000  0.10090000  0.32120000  1.0 -0.5873573973
C  C535  1  0.17160000  0.89910000  0.17880000  1.0 -0.5873573973
C  C536  1  0.32840000  0.39910000  0.82120000  1.0 -0.5819197064
C  C537  1  0.14640000  0.43220000  0.28350000  1.0 0.5358381892
C  C538  1  0.35360000  0.93220000  0.71650000  1.0 0.5358381892
C  C539  1  0.85360000  0.06780000  0.78350000  1.0 0.5358381892
C  C540  1  0.64640000  0.56780000  0.21650000  1.0 0.5358381892
C  C541  1  0.85360000  0.56780000  0.71650000  1.0 0.5358381892
C  C542  1  0.64640000  0.06780000  0.28350000  1.0 0.5358381892
C  C543  1  0.14640000  0.93220000  0.21650000  1.0 0.5358381892
C  C544  1  0.35360000  0.43220000  0.78350000  1.0 0.5358381892
C  C545  1  0.23760000  0.48370000  0.28730000  1.0 -0.376864416
C  C546  1  0.26240000  0.98370000  0.71270000  1.0 -0.376864416
C  C547  1  0.76240000  0.01630000  0.78730000  1.0 -0.376864416
C  C548  1  0.73760000  0.51630000  0.21270000  1.0 -0.376864416
C  C549  1  0.76240000  0.51630000  0.71270000  1.0 -0.376864416
C  C550  1  0.73760000  0.01630000  0.28730000  1.0 -0.376864416
C  C551  1  0.23760000  0.98370000  0.21270000  1.0 -0.376864416
C  C552  1  0.26240000  0.48370000  0.78730000  1.0 -0.376864416
C  C553  1  0.15540000  0.49890000  0.23210000  1.0 -0.3636210835
C  C554  1  0.34460000  0.99890000  0.76790000  1.0 -0.3636210835
C  C555  1  0.84460000  0.00110000  0.73210000  1.0 -0.3636210835
C  C556  1  0.65540000  0.50110000  0.26790000  1.0 -0.3636210835
C  C557  1  0.84460000  0.50110000  0.76790000  1.0 -0.3636210835
C  C558  1  0.65540000  0.00110000  0.23210000  1.0 -0.3636210835
C  C559  1  0.15540000  0.99890000  0.26790000  1.0 -0.3636210835
C  C560  1  0.34460000  0.49890000  0.73210000  1.0 -0.3636210835
C  C561  1  0.82320000  0.29200000  0.73030000  1.0 0.484846043
C  C562  1  0.67680000  0.79200000  0.26970000  1.0 0.484846043
C  C563  1  0.17680000  0.20800000  0.23030000  1.0 0.484846043
C  C564  1  0.32320000  0.70800000  0.76970000  1.0 0.484846043
C  C565  1  0.17680000  0.70800000  0.26970000  1.0 0.484846043
C  C566  1  0.32320000  0.20800000  0.73030000  1.0 0.484846043
C  C567  1  0.82320000  0.79200000  0.76970000  1.0 0.484846043
C  C568  1  0.67680000  0.29200000  0.23030000  1.0 0.484846043
C  C569  1  0.82760000  0.23470000  0.73380000  1.0 -0.6015080934
C  C570  1  0.67240000  0.73470000  0.26620000  1.0 -0.6015080934
C  C571  1  0.17240000  0.26530000  0.23380000  1.0 -0.6015080934
C  C572  1  0.32760000  0.76530000  0.76620000  1.0 -0.6015080934
C  C573  1  0.17240000  0.76530000  0.26620000  1.0 -0.6015080934
C  C574  1  0.32760000  0.26530000  0.73380000  1.0 -0.6015080934
C  C575  1  0.82760000  0.73470000  0.76620000  1.0 -0.6015080934
C  C576  1  0.67240000  0.23470000  0.23380000  1.0 -0.6015080934
C  C577  1  0.71760000  0.27580000  0.72570000  1.0 -0.388565713
C  C578  1  0.78240000  0.77580000  0.27430000  1.0 -0.388565713
C  C579  1  0.28240000  0.22420000  0.22570000  1.0 -0.388565713
C  C580  1  0.21760000  0.72420000  0.77430000  1.0 -0.388565713
C  C581  1  0.28240000  0.72420000  0.27430000  1.0 -0.388565713
C  C582  1  0.21760000  0.22420000  0.72570000  1.0 -0.388565713
C  C583  1  0.71760000  0.77580000  0.77430000  1.0 -0.388565713
C  C584  1  0.78240000  0.27580000  0.22570000  1.0 -0.388565713
C  C585  1  0.76420000  0.36670000  0.72600000  1.0 -0.341983301
C  C586  1  0.73580000  0.86670000  0.27400000  1.0 -0.341983301
C  C587  1  0.23580000  0.13330000  0.22600000  1.0 -0.341983301
C  C588  1  0.26420000  0.63330000  0.77400000  1.0 -0.341983301
C  C589  1  0.23580000  0.63330000  0.27400000  1.0 -0.341983301
C  C590  1  0.26420000  0.13330000  0.72600000  1.0 -0.341983301
C  C591  1  0.76420000  0.86670000  0.77400000  1.0 -0.341983301
C  C592  1  0.73580000  0.36670000  0.22600000  1.0 -0.341983301
C  C593  1  0.32540000  0.41680000  0.20970000  0.5 0.2282141937
C  C594  1  0.17460000  0.91680000  0.79030000  0.5 0.2282141937
C  C595  1  0.67460000  0.08320000  0.70970000  0.5 0.2282141937
C  C596  1  0.82540000  0.58320000  0.29030000  0.5 0.2282141937
C  C597  1  0.67460000  0.58320000  0.79030000  0.5 0.2282141937
C  C598  1  0.82540000  0.08320000  0.20970000  0.5 0.2282141937
C  C599  1  0.32540000  0.91680000  0.29030000  0.5 0.2282141937
C  C600  1  0.17460000  0.41680000  0.70970000  0.5 0.2282141937
C  C601  1  0.30570000  0.36410000  0.21810000  0.5 -0.1972285826
C  C602  1  0.19430000  0.86410000  0.78190000  0.5 -0.1972285826
C  C603  1  0.69430000  0.13590000  0.71810000  0.5 -0.1972285826
C  C604  1  0.80570000  0.63590000  0.28190000  0.5 -0.1972285826
C  C605  1  0.69430000  0.63590000  0.78190000  0.5 -0.1972285826
C  C606  1  0.80570000  0.13590000  0.21810000  0.5 -0.1972285826
C  C607  1  0.30570000  0.86410000  0.28190000  0.5 -0.1972285826
C  C608  1  0.19430000  0.36410000  0.71810000  0.5 -0.1972285826
C  C609  1  0.24990000  0.43000000  0.15630000  0.5 -0.2861211276
C  C610  1  0.25010000  0.93000000  0.84370000  0.5 -0.2861211276
C  C611  1  0.75010000  0.07000000  0.65630000  0.5 -0.2861211276
C  C612  1  0.74990000  0.57000000  0.34370000  0.5 -0.2861211276
C  C613  1  0.75010000  0.57000000  0.84370000  0.5 -0.2861211276
C  C614  1  0.74990000  0.07000000  0.15630000  0.5 -0.2861211276
C  C615  1  0.24990000  0.93000000  0.34370000  0.5 -0.2861211276
C  C616  1  0.25010000  0.43000000  0.65630000  0.5 -0.2861211276
C  C617  1  0.34650000  0.49130000  0.17220000  0.5 -0.1972285826
C  C618  1  0.15350000  0.99130000  0.82780000  0.5 -0.1972285826
C  C619  1  0.65350000  0.00870000  0.67220000  0.5 -0.1972285826
C  C620  1  0.84650000  0.50870000  0.32780000  0.5 -0.1972285826
C  C621  1  0.65350000  0.50870000  0.82780000  0.5 -0.1972285826
C  C622  1  0.84650000  0.00870000  0.17220000  0.5 -0.1972285826
C  C623  1  0.34650000  0.99130000  0.32780000  0.5 -0.1972285826
C  C624  1  0.15350000  0.49130000  0.67220000  0.5 -0.1972285826
C  C625  1  0.33770000  0.44350000  0.19730000  0.5 0.2282141937
C  C626  1  0.16230000  0.94350000  0.80270000  0.5 0.2282141937
C  C627  1  0.66230000  0.05650000  0.69730000  0.5 0.2282141937
C  C628  1  0.83770000  0.55650000  0.30270000  0.5 0.2282141937
C  C629  1  0.66230000  0.55650000  0.80270000  0.5 0.2282141937
C  C630  1  0.83770000  0.05650000  0.19730000  0.5 0.2282141937
C  C631  1  0.33770000  0.94350000  0.30270000  0.5 0.2282141937
C  C632  1  0.16230000  0.44350000  0.69730000  0.5 0.2282141937
C  C633  1  0.28280000  0.37010000  0.21420000  0.5 -0.1599560049
C  C634  1  0.21720000  0.87010000  0.78580000  0.5 -0.1599560049
C  C635  1  0.71720000  0.12990000  0.71420000  0.5 -0.1599560049
C  C636  1  0.78280000  0.62990000  0.28580000  0.5 -0.1599560049
C  C637  1  0.71720000  0.62990000  0.78580000  0.5 -0.1599560049
C  C638  1  0.78280000  0.12990000  0.21420000  0.5 -0.1599560049
C  C639  1  0.28280000  0.87010000  0.28580000  0.5 -0.1599560049
C  C640  1  0.21720000  0.37010000  0.71420000  0.5 -0.1599560049
C  C641  1  0.25160000  0.42560000  0.14820000  0.5 -0.3141076615
C  C642  1  0.24840000  0.92560000  0.85180000  0.5 -0.3141076615
C  C643  1  0.74840000  0.07440000  0.64820000  0.5 -0.3141076615
C  C644  1  0.75160000  0.57440000  0.35180000  0.5 -0.3141076615
C  C645  1  0.74840000  0.57440000  0.85180000  0.5 -0.3141076615
C  C646  1  0.75160000  0.07440000  0.14820000  0.5 -0.3141076615
C  C647  1  0.25160000  0.92560000  0.35180000  0.5 -0.3141076615
C  C648  1  0.24840000  0.42560000  0.64820000  0.5 -0.3141076615
C  C649  1  0.32720000  0.49530000  0.17000000  0.5 -0.190399879
C  C650  1  0.17280000  0.99530000  0.83000000  0.5 -0.190399879
C  C651  1  0.67280000  0.00470000  0.67000000  0.5 -0.190399879
C  C652  1  0.82720000  0.50470000  0.33000000  0.5 -0.190399879
C  C653  1  0.67280000  0.50470000  0.83000000  0.5 -0.190399879
C  C654  1  0.82720000  0.00470000  0.17000000  0.5 -0.190399879
C  C655  1  0.32720000  0.99530000  0.33000000  0.5 -0.190399879
C  C656  1  0.17280000  0.49530000  0.67000000  0.5 -0.190399879
N  N1  1  0.18040000  0.46800000  0.26700000  1.0 -0.1599560049
N  N2  1  0.31960000  0.96800000  0.73300000  1.0 -0.1599560049
N  N3  1  0.81960000  0.03200000  0.76700000  1.0 -0.1599560049
N  N4  1  0.68040000  0.53200000  0.23300000  1.0 -0.1599560049
N  N5  1  0.81960000  0.53200000  0.73300000  1.0 -0.1599560049
N  N6  1  0.68040000  0.03200000  0.26700000  1.0 -0.1599560049
N  N7  1  0.18040000  0.96800000  0.23300000  1.0 -0.1599560049
N  N8  1  0.31960000  0.46800000  0.76700000  1.0 -0.1599560049
N  N9  1  0.77170000  0.30990000  0.72950000  1.0 0.0301367143
N  N10  1  0.72830000  0.80990000  0.27050000  1.0 0.0301367143
N  N11  1  0.22830000  0.19010000  0.22950000  1.0 0.0301367143
N  N12  1  0.27170000  0.69010000  0.77050000  1.0 0.0301367143
N  N13  1  0.22830000  0.69010000  0.27050000  1.0 0.0301367143
N  N14  1  0.27170000  0.19010000  0.72950000  1.0 0.0301367143
N  N15  1  0.77170000  0.80990000  0.77050000  1.0 0.0301367143
N  N16  1  0.72830000  0.30990000  0.22950000  1.0 0.0301367143
N  N17  1  0.30540000  0.44830000  0.17860000  0.5 0.1610482751
N  N18  1  0.19460000  0.94830000  0.82140000  0.5 0.1610482751
N  N19  1  0.69460000  0.05170000  0.67860000  0.5 0.1610482751
N  N20  1  0.80540000  0.55170000  0.32140000  0.5 0.1610482751
N  N21  1  0.69460000  0.55170000  0.82140000  0.5 0.1610482751
N  N22  1  0.80540000  0.05170000  0.17860000  0.5 0.1610482751
N  N23  1  0.30540000  0.94830000  0.32140000  0.5 0.1610482751
N  N24  1  0.19460000  0.44830000  0.67860000  0.5 0.1610482751
N  N25  1  0.29320000  0.41570000  0.18640000  0.5 0.1402933705
N  N26  1  0.20680000  0.91570000  0.81360000  0.5 0.1402933705
N  N27  1  0.70680000  0.08430000  0.68640000  0.5 0.1402933705
N  N28  1  0.79320000  0.58430000  0.31360000  0.5 0.1402933705
N  N29  1  0.70680000  0.58430000  0.81360000  0.5 0.1402933705
N  N30  1  0.79320000  0.08430000  0.18640000  0.5 0.1402933705
N  N31  1  0.29320000  0.91570000  0.31360000  0.5 0.1402933705
N  N32  1  0.20680000  0.41570000  0.68640000  0.5 0.1402933705
O  O1  1  0.59190000  0.37889000  0.31707000  1.0 -0.6507195806
O  O2  1  0.90810000  0.87889000  0.68293000  1.0 -0.6507195806
O  O3  1  0.40810000  0.12111000  0.81707000  1.0 -0.6507195806
O  O4  1  0.09190000  0.62111000  0.18293000  1.0 -0.6507195806
O  O5  1  0.40810000  0.62111000  0.68293000  1.0 -0.6507195806
O  O6  1  0.09190000  0.12111000  0.31707000  1.0 -0.6507195806
O  O7  1  0.59190000  0.87889000  0.18293000  1.0 -0.6507195806
O  O8  1  0.90810000  0.37889000  0.81707000  1.0 -0.6507195806
O  O9  1  0.52360000  0.44001000  0.32771000  1.0 -0.6699557876
O  O10  1  0.97640000  0.94001000  0.67229000  1.0 -0.6699557876
O  O11  1  0.47640000  0.05999000  0.82771000  1.0 -0.6699557876
O  O12  1  0.02360000  0.55999000  0.17229000  1.0 -0.6699557876
O  O13  1  0.47640000  0.55999000  0.67229000  1.0 -0.6699557876
O  O14  1  0.02360000  0.05999000  0.32771000  1.0 -0.6699557876
O  O15  1  0.52360000  0.94001000  0.17229000  1.0 -0.6699557876
O  O16  1  0.97640000  0.44001000  0.82771000  1.0 -0.6699557876
O  O17  1  0.55400000  0.64636000  0.70681000  1.0 -0.7032354301
O  O18  1  0.94600000  0.14636000  0.29319000  1.0 -0.7032354301
O  O19  1  0.44600000  0.85364000  0.20681000  1.0 -0.7032354301
O  O20  1  0.05400000  0.35364000  0.79319000  1.0 -0.7032354301
O  O21  1  0.44600000  0.35364000  0.29319000  1.0 -0.7032354301
O  O22  1  0.05400000  0.85364000  0.70681000  1.0 -0.7032354301
O  O23  1  0.55400000  0.14636000  0.79319000  1.0 -0.7032354301
O  O24  1  0.94600000  0.64636000  0.20681000  1.0 -0.7032354301
O  O25  1  0.59810000  0.72143000  0.70723000  1.0 -0.6015080934
O  O26  1  0.90190000  0.22143000  0.29277000  1.0 -0.6015080934
O  O27  1  0.40190000  0.77857000  0.20723000  1.0 -0.6015080934
O  O28  1  0.09810000  0.27857000  0.79277000  1.0 -0.6015080934
O  O29  1  0.40190000  0.27857000  0.29277000  1.0 -0.6015080934
O  O30  1  0.09810000  0.77857000  0.70723000  1.0 -0.6015080934
O  O31  1  0.59810000  0.22143000  0.79277000  1.0 -0.6015080934
O  O32  1  0.90190000  0.72143000  0.20723000  1.0 -0.6015080934
O  O33  1  0.90840000  0.75207000  0.31161000  1.0 -0.6193174919
O  O34  1  0.59160000  0.25207000  0.68839000  1.0 -0.6193174919
O  O35  1  0.09160000  0.74793000  0.81161000  1.0 -0.6193174919
O  O36  1  0.40840000  0.24793000  0.18839000  1.0 -0.6193174919
O  O37  1  0.09160000  0.24793000  0.68839000  1.0 -0.6193174919
O  O38  1  0.40840000  0.74793000  0.31161000  1.0 -0.6193174919
O  O39  1  0.90840000  0.25207000  0.18839000  1.0 -0.6193174919
O  O40  1  0.59160000  0.75207000  0.81161000  1.0 -0.6193174919
O  O41  1  0.98310000  0.70075000  0.29376000  1.0 -0.6767745031
O  O42  1  0.51690000  0.20075000  0.70624000  1.0 -0.6767745031
O  O43  1  0.01690000  0.79925000  0.79376000  1.0 -0.6767745031
O  O44  1  0.48310000  0.29925000  0.20624000  1.0 -0.6767745031
O  O45  1  0.01690000  0.29925000  0.70624000  1.0 -0.6767745031
O  O46  1  0.48310000  0.79925000  0.29376000  1.0 -0.6767745031
O  O47  1  0.98310000  0.20075000  0.20624000  1.0 -0.6767745031
O  O48  1  0.51690000  0.70075000  0.79376000  1.0 -0.6767745031
O  O49  1  0.97570000  0.41279000  0.72688000  1.0 -0.661839289
O  O50  1  0.52430000  0.91279000  0.27312000  1.0 -0.661839289
O  O51  1  0.02430000  0.08721000  0.22688000  1.0 -0.661839289
O  O52  1  0.47570000  0.58721000  0.77312000  1.0 -0.661839289
O  O53  1  0.02430000  0.58721000  0.27312000  1.0 -0.661839289
O  O54  1  0.47570000  0.08721000  0.72688000  1.0 -0.661839289
O  O55  1  0.97570000  0.91279000  0.77312000  1.0 -0.661839289
O  O56  1  0.52430000  0.41279000  0.22688000  1.0 -0.661839289
O  O57  1  0.99930000  0.49277000  0.72922000  1.0 -0.6403379789
O  O58  1  0.50070000  0.99277000  0.27078000  1.0 -0.6403379789
O  O59  1  0.00070000  0.00723000  0.22922000  1.0 -0.6403379789
O  O60  1  0.49930000  0.50723000  0.77078000  1.0 -0.6403379789
O  O61  1  0.00070000  0.50723000  0.27078000  1.0 -0.6403379789
O  O62  1  0.49930000  0.00723000  0.72922000  1.0 -0.6403379789
O  O63  1  0.99930000  0.99277000  0.77078000  1.0 -0.6403379789
O  O64  1  0.50070000  0.49277000  0.22922000  1.0 -0.6403379789
O  O65  1  0.83200000  0.49522000  0.56156000  1.0 -0.1818622773
O  O66  1  0.66800000  0.99522000  0.43844000  1.0 -0.1818622773
O  O67  1  0.16800000  0.00478000  0.06156000  1.0 -0.1818622773
O  O68  1  0.33200000  0.50478000  0.93844000  1.0 -0.1818622773
O  O69  1  0.16800000  0.50478000  0.43844000  1.0 -0.1818622773
O  O70  1  0.33200000  0.00478000  0.56156000  1.0 -0.1818622773
O  O71  1  0.83200000  0.99522000  0.93844000  1.0 -0.1818622773
O  O72  1  0.66800000  0.49522000  0.06156000  1.0 -0.1818622773
O  O73  1  0.85490000  0.57982000  0.44925000  1.0 -0.22056262
O  O74  1  0.64510000  0.07982000  0.55075000  1.0 -0.22056262
O  O75  1  0.14510000  0.92018000  0.94925000  1.0 -0.2304608011
O  O76  1  0.35490000  0.42018000  0.05075000  1.0 -0.22056262
O  O77  1  0.14510000  0.42018000  0.55075000  1.0 -0.22056262
O  O78  1  0.35490000  0.92018000  0.44925000  1.0 -0.22056262
O  O79  1  0.85490000  0.07982000  0.05075000  1.0 -0.22056262
O  O80  1  0.64510000  0.57982000  0.94925000  1.0 -0.2304608011
O  O81  1  0.71880000  0.52485000  0.45547000  1.0 -0.2304608011
O  O82  1  0.78120000  0.02485000  0.54453000  1.0 -0.2304608011
O  O83  1  0.28120000  0.97515000  0.95547000  1.0 -0.2304608011
O  O84  1  0.21880000  0.47515000  0.04453000  1.0 -0.2304608011
O  O85  1  0.28120000  0.47515000  0.54453000  1.0 -0.2304608011
O  O86  1  0.21880000  0.97515000  0.45547000  1.0 -0.2304608011
O  O87  1  0.71880000  0.02485000  0.04453000  1.0 -0.2304608011
O  O88  1  0.78120000  0.52485000  0.95547000  1.0 -0.2304608011
O  O89  1  0.75350000  0.60879000  0.56249000  1.0 -0.1818622773
O  O90  1  0.74650000  0.10879000  0.43751000  1.0 -0.1818622773
O  O91  1  0.24650000  0.89121000  0.06249000  1.0 -0.1818622773
O  O92  1  0.25350000  0.39121000  0.93751000  1.0 -0.1818622773
O  O93  1  0.24650000  0.39121000  0.43751000  1.0 -0.1818622773
O  O94  1  0.25350000  0.89121000  0.56249000  1.0 -0.1818622773
O  O95  1  0.75350000  0.10879000  0.93751000  1.0 -0.1818622773
O  O96  1  0.74650000  0.60879000  0.06249000  1.0 -0.1818622773
O  O97  1  0.95810000  0.26067000  0.79328000  1.0 -0.6864570951
O  O98  1  0.54190000  0.76067000  0.20672000  1.0 -0.6864570951
O  O99  1  0.04190000  0.23933000  0.29328000  1.0 -0.6864570951
O  O100  1  0.45810000  0.73933000  0.70672000  1.0 -0.6864570951
O  O101  1  0.04190000  0.73933000  0.20672000  1.0 -0.6864570951
O  O102  1  0.45810000  0.23933000  0.79328000  1.0 -0.6864570951
O  O103  1  0.95810000  0.76067000  0.70672000  1.0 -0.6864570951
O  O104  1  0.54190000  0.26067000  0.29328000  1.0 -0.6864570951
O  O105  1  0.87380000  0.51937000  0.17051000  1.0 -0.5873573973
O  O106  1  0.62620000  0.01937000  0.82949000  1.0 -0.5873573973
O  O107  1  0.12620000  0.98063000  0.67051000  1.0 -0.5873573973
O  O108  1  0.37380000  0.48063000  0.32949000  1.0 -0.5873573973
O  O109  1  0.12620000  0.48063000  0.82949000  1.0 -0.5873573973
O  O110  1  0.37380000  0.98063000  0.17051000  1.0 -0.5873573973
O  O111  1  0.87380000  0.01937000  0.32949000  1.0 -0.5873573973
O  O112  1  0.62620000  0.51937000  0.67051000  1.0 -0.5873573973
O  O113  1  0.92610000  0.46439000  0.20856000  1.0 -0.6767745031
O  O114  1  0.57390000  0.96439000  0.79144000  1.0 -0.6767745031
O  O115  1  0.07390000  0.03561000  0.70856000  1.0 -0.6767745031
O  O116  1  0.42610000  0.53561000  0.29144000  1.0 -0.6767745031
O  O117  1  0.07390000  0.53561000  0.79144000  1.0 -0.6767745031
O  O118  1  0.42610000  0.03561000  0.20856000  1.0 -0.6767745031
O  O119  1  0.92610000  0.96439000  0.29144000  1.0 -0.6767745031
O  O120  1  0.57390000  0.46439000  0.70856000  1.0 -0.6767745031
O  O121  1  0.59470000  0.35364000  0.77115000  1.0 -0.6403379789
O  O122  1  0.90530000  0.85364000  0.22885000  1.0 -0.6403379789
O  O123  1  0.40530000  0.14636000  0.27115000  1.0 -0.6403379789
O  O124  1  0.09470000  0.64636000  0.72885000  1.0 -0.6403379789
O  O125  1  0.40530000  0.64636000  0.22885000  1.0 -0.6403379789
O  O126  1  0.09470000  0.14636000  0.77115000  1.0 -0.6403379789
O  O127  1  0.59470000  0.85364000  0.72885000  1.0 -0.6403379789
O  O128  1  0.90530000  0.35364000  0.27115000  1.0 -0.6403379789
O  O129  1  0.55800000  0.41580000  0.81151000  1.0 -0.6193174919
O  O130  1  0.94200000  0.91580000  0.18849000  1.0 -0.6193174919
O  O131  1  0.44200000  0.08420000  0.31151000  1.0 -0.6193174919
O  O132  1  0.05800000  0.58420000  0.68849000  1.0 -0.6193174919
O  O133  1  0.44200000  0.58420000  0.18849000  1.0 -0.6193174919
O  O134  1  0.05800000  0.08420000  0.81151000  1.0 -0.6193174919
O  O135  1  0.55800000  0.91580000  0.68849000  1.0 -0.6193174919
O  O136  1  0.94200000  0.41580000  0.31151000  1.0 -0.6193174919
O  O137  1  0.51220000  0.16185000  0.21121000  1.0 -0.6699557876
O  O138  1  0.98780000  0.66185000  0.78879000  1.0 -0.6699557876
O  O139  1  0.48780000  0.33815000  0.71121000  1.0 -0.6699557876
O  O140  1  0.01220000  0.83815000  0.28879000  1.0 -0.6699557876
O  O141  1  0.48780000  0.83815000  0.78879000  1.0 -0.6699557876
O  O142  1  0.01220000  0.33815000  0.21121000  1.0 -0.6699557876
O  O143  1  0.51220000  0.66185000  0.28879000  1.0 -0.6699557876
O  O144  1  0.98780000  0.16185000  0.71121000  1.0 -0.6699557876
O  O145  1  0.54380000  0.09327000  0.17909000  1.0 -0.5728073543
O  O146  1  0.95620000  0.59327000  0.82091000  1.0 -0.5728073543
O  O147  1  0.45620000  0.40673000  0.67909000  1.0 -0.5728073543
O  O148  1  0.04380000  0.90673000  0.32091000  1.0 -0.5728073543
O  O149  1  0.45620000  0.90673000  0.82091000  1.0 -0.5728073543
O  O150  1  0.04380000  0.40673000  0.17909000  1.0 -0.5728073543
O  O151  1  0.54380000  0.59327000  0.32091000  1.0 -0.5728073543
O  O152  1  0.95620000  0.09327000  0.67909000  1.0 -0.5728073543
O  O153  1  0.67050000  0.25463000  0.05872000  1.0 -0.190399879
O  O154  1  0.82950000  0.75463000  0.94128000  1.0 -0.190399879
O  O155  1  0.32950000  0.24537000  0.55872000  1.0 -0.190399879
O  O156  1  0.17050000  0.74537000  0.44128000  1.0 -0.190399879
O  O157  1  0.32950000  0.74537000  0.94128000  1.0 -0.190399879
O  O158  1  0.17050000  0.24537000  0.05872000  1.0 -0.190399879
O  O159  1  0.67050000  0.75463000  0.44128000  1.0 -0.190399879
O  O160  1  0.82950000  0.25463000  0.55872000  1.0 -0.190399879
O  O161  1  0.73670000  0.32912000  0.95062000  1.0 -0.2097131371
O  O162  1  0.76330000  0.82912000  0.04938000  1.0 -0.2097131371
O  O163  1  0.26330000  0.17088000  0.45062000  1.0 -0.2097131371
O  O164  1  0.23670000  0.67088000  0.54938000  1.0 -0.2097131371
O  O165  1  0.26330000  0.67088000  0.04938000  1.0 -0.2097131371
O  O166  1  0.23670000  0.17088000  0.95062000  1.0 -0.2097131371
O  O167  1  0.73670000  0.82912000  0.54938000  1.0 -0.2097131371
O  O168  1  0.76330000  0.32912000  0.45062000  1.0 -0.2097131371
O  O169  1  0.82070000  0.22197000  0.97545000  1.0 -0.22056262
O  O170  1  0.67930000  0.72197000  0.02455000  1.0 -0.22056262
O  O171  1  0.17930000  0.27803000  0.47545000  1.0 -0.22056262
O  O172  1  0.32070000  0.77803000  0.52455000  1.0 -0.22056262
O  O173  1  0.17930000  0.77803000  0.02455000  1.0 -0.22056262
O  O174  1  0.32070000  0.27803000  0.97545000  1.0 -0.22056262
O  O175  1  0.82070000  0.72197000  0.52455000  1.0 -0.22056262
O  O176  1  0.67930000  0.22197000  0.47545000  1.0 -0.22056262
O  O177  1  0.78930000  0.31770000  0.08038000  1.0 -0.2304608011
O  O178  1  0.71070000  0.81770000  0.91962000  1.0 -0.22056262
O  O179  1  0.21070000  0.18230000  0.58038000  1.0 -0.2304608011
O  O180  1  0.28930000  0.68230000  0.41962000  1.0 -0.2304608011
O  O181  1  0.21070000  0.68230000  0.91962000  1.0 -0.2304608011
O  O182  1  0.28930000  0.18230000  0.08038000  1.0 -0.2304608011
O  O183  1  0.78930000  0.81770000  0.41962000  1.0 -0.2304608011
O  O184  1  0.71070000  0.31770000  0.58038000  1.0 -0.2304608011
O  O185  1  0.98430000  0.18390000  0.81044000  1.0 -0.5819197064
O  O186  1  0.51570000  0.68390000  0.18956000  1.0 -0.5819197064
O  O187  1  0.01570000  0.31610000  0.31044000  1.0 -0.5819197064
O  O188  1  0.48430000  0.81610000  0.68956000  1.0 -0.5819197064
O  O189  1  0.01570000  0.81610000  0.18956000  1.0 -0.5819197064
O  O190  1  0.48430000  0.31610000  0.81044000  1.0 -0.5819197064
O  O191  1  0.98430000  0.68390000  0.68956000  1.0 -0.5819197064
O  O192  1  0.51570000  0.18390000  0.31044000  1.0 -0.5819197064
O  O193  1  0.09540000  0.42310000  0.26800000  1.0 -0.6015080934
O  O194  1  0.40460000  0.92310000  0.73200000  1.0 -0.6015080934
O  O195  1  0.90460000  0.07690000  0.76800000  1.0 -0.6015080934
O  O196  1  0.59540000  0.57690000  0.23200000  1.0 -0.6015080934
O  O197  1  0.90460000  0.57690000  0.73200000  1.0 -0.6015080934
O  O198  1  0.59540000  0.07690000  0.26800000  1.0 -0.6015080934
O  O199  1  0.09540000  0.92310000  0.23200000  1.0 -0.6015080934
O  O200  1  0.40460000  0.42310000  0.76800000  1.0 -0.6015080934
O  O201  1  0.86820000  0.32310000  0.72892000  1.0 -0.6699557876
O  O202  1  0.63180000  0.82310000  0.27108000  1.0 -0.6699557876
O  O203  1  0.13180000  0.17690000  0.22892000  1.0 -0.6699557876
O  O204  1  0.36820000  0.67690000  0.77108000  1.0 -0.6699557876
O  O205  1  0.13180000  0.67690000  0.27108000  1.0 -0.6699557876
O  O206  1  0.36820000  0.17690000  0.72892000  1.0 -0.6699557876
O  O207  1  0.86820000  0.82310000  0.77108000  1.0 -0.6699557876
O  O208  1  0.63180000  0.32310000  0.22892000  1.0 -0.6699557876
O  O209  1  0.37170000  0.43220000  0.22995000  1.0 -0.4032977795
O  O210  1  0.12830000  0.93220000  0.77005000  1.0 -0.4032977795
O  O211  1  0.62830000  0.06780000  0.72995000  1.0 -0.4032977795
O  O212  1  0.87170000  0.56780000  0.27005000  1.0 -0.4032977795
O  O213  1  0.62830000  0.56780000  0.77005000  1.0 -0.4032977795
O  O214  1  0.87170000  0.06780000  0.22995000  1.0 -0.4032977795
O  O215  1  0.37170000  0.93220000  0.27005000  1.0 -0.4032977795
O  O216  1  0.12830000  0.43220000  0.72995000  1.0 -0.4032977795
