# DDEC6 charges by PACMAN v1.1 (https://github.com/mtap-research/PACMAN-charge/)
data_0000[Fe][nbo]3[ASR]1
_chemical_formula_sum              "Fe48 H480 C960 N48 O192"
_cell_length_a       45.77
_cell_length_b       45.77
_cell_length_c       45.77
_cell_angle_alpha    90
_cell_angle_beta     90
_cell_angle_gamma    90

_symmetry_space_group_name_H-M    "P 1"
_symmetry_Int_Tables_number       1

loop_
  _symmetry_equiv_pos_as_xyz
  'x, y, z'

loop_
  _atom_site_type_symbol
  _atom_site_label
  _atom_site_symmetry_multiplicity
  _atom_site_fract_x
  _atom_site_fract_y
  _atom_site_fract_z
  _atom_site_occupancy
  _atom_site_charge
Fe  Fe1       1.0  0.35367  0.97751  0.96973  1.0000 1.0831373399
Fe  Fe2       1.0  0.14633  0.02249  0.46973  1.0000 1.0831373399
Fe  Fe3       1.0  0.64633  0.47751  0.53027  1.0000 1.0831373399
Fe  Fe4       1.0  0.85367  0.52249  0.03027  1.0000 1.0831373399
Fe  Fe5       1.0  0.96973  0.35367  0.97751  1.0000 1.0831373399
Fe  Fe6       1.0  0.46973  0.14633  0.02249  1.0000 1.0831373399
Fe  Fe7       1.0  0.53027  0.64633  0.47751  1.0000 1.0831373399
Fe  Fe8       1.0  0.03027  0.85367  0.52249  1.0000 1.0831373399
Fe  Fe9       1.0  0.97751  0.96973  0.35367  1.0000 1.0831373399
Fe  Fe10      1.0  0.02249  0.46973  0.14633  1.0000 1.0831373399
Fe  Fe11      1.0  0.47751  0.53027  0.64633  1.0000 1.0831373399
Fe  Fe12      1.0  0.52249  0.03027  0.85367  1.0000 1.0831373399
Fe  Fe13      1.0  0.64633  0.02249  0.03027  1.0000 1.0831373399
Fe  Fe14      1.0  0.85367  0.97751  0.53027  1.0000 1.0831373399
Fe  Fe15      1.0  0.35367  0.52249  0.46973  1.0000 1.0831373399
Fe  Fe16      1.0  0.14633  0.47751  0.96973  1.0000 1.0831373399
Fe  Fe17      1.0  0.03027  0.64633  0.02249  1.0000 1.0831373399
Fe  Fe18      1.0  0.53027  0.85367  0.97751  1.0000 1.0831373399
Fe  Fe19      1.0  0.46973  0.35367  0.52249  1.0000 1.0831373399
Fe  Fe20      1.0  0.96973  0.14633  0.47751  1.0000 1.0831373399
Fe  Fe21      1.0  0.02249  0.03027  0.64633  1.0000 1.0831373399
Fe  Fe22      1.0  0.97751  0.53027  0.85367  1.0000 1.0831373399
Fe  Fe23      1.0  0.52249  0.46973  0.35367  1.0000 1.0831373399
Fe  Fe24      1.0  0.47751  0.96973  0.14633  1.0000 1.0831373399
Fe  Fe25      1.0  0.29304  0.96711  0.95789  1.0000 0.9524973213
Fe  Fe26      1.0  0.20696  0.03289  0.45789  1.0000 0.9524973213
Fe  Fe27      1.0  0.70696  0.46711  0.54211  1.0000 0.9524973213
Fe  Fe28      1.0  0.79304  0.53289  0.04211  1.0000 0.9524973213
Fe  Fe29      1.0  0.95789  0.29304  0.96711  1.0000 0.9524973213
Fe  Fe30      1.0  0.45789  0.20696  0.03289  1.0000 0.9524973213
Fe  Fe31      1.0  0.54211  0.70696  0.46711  1.0000 0.9524973213
Fe  Fe32      1.0  0.04211  0.79304  0.53289  1.0000 0.9524973213
Fe  Fe33      1.0  0.96711  0.95789  0.29304  1.0000 0.9524973213
Fe  Fe34      1.0  0.03289  0.45789  0.20696  1.0000 0.9556034471
Fe  Fe35      1.0  0.46711  0.54211  0.70696  1.0000 0.9524973213
Fe  Fe36      1.0  0.53289  0.04211  0.79304  1.0000 0.9524973213
Fe  Fe37      1.0  0.70696  0.03289  0.04211  1.0000 0.9524973213
Fe  Fe38      1.0  0.79304  0.96711  0.54211  1.0000 0.9524973213
Fe  Fe39      1.0  0.29304  0.53289  0.45789  1.0000 0.9524973213
Fe  Fe40      1.0  0.20696  0.46711  0.95789  1.0000 0.9524973213
Fe  Fe41      1.0  0.04211  0.70696  0.03289  1.0000 0.9556034471
Fe  Fe42      1.0  0.54211  0.79304  0.96711  1.0000 0.9524973213
Fe  Fe43      1.0  0.45789  0.29304  0.53289  1.0000 0.9524973213
Fe  Fe44      1.0  0.95789  0.20696  0.46711  1.0000 0.9524973213
Fe  Fe45      1.0  0.03289  0.04211  0.70696  1.0000 0.9524973213
Fe  Fe46      1.0  0.96711  0.54211  0.79304  1.0000 0.9524973213
Fe  Fe47      1.0  0.53289  0.45789  0.29304  1.0000 0.9524973213
Fe  Fe48      1.0  0.46711  0.95789  0.20696  1.0000 0.9556034471
H   H1        1.0  0.34595  0.06983  0.98639  1.0000 0.1489896097
H   H2        1.0  0.15405  0.93017  0.48639  1.0000 0.1489896097
H   H3        1.0  0.65405  0.56983  0.51361  1.0000 0.1489896097
H   H4        1.0  0.84595  0.43017  0.01361  1.0000 0.1489896097
H   H5        1.0  0.98639  0.34595  0.06983  1.0000 0.1489896097
H   H6        1.0  0.48639  0.15405  0.93017  1.0000 0.1489896097
H   H7        1.0  0.51361  0.65405  0.56983  1.0000 0.1489896097
H   H8        1.0  0.01361  0.84595  0.43017  1.0000 0.1489896097
H   H9        1.0  0.06983  0.98639  0.34595  1.0000 0.1489896097
H   H10       1.0  0.93017  0.48639  0.15405  1.0000 0.1489896097
H   H11       1.0  0.56983  0.51361  0.65405  1.0000 0.1489896097
H   H12       1.0  0.43017  0.01361  0.84595  1.0000 0.1489896097
H   H13       1.0  0.65405  0.93017  0.01361  1.0000 0.1489896097
H   H14       1.0  0.84595  0.06983  0.51361  1.0000 0.1489896097
H   H15       1.0  0.34595  0.43017  0.48639  1.0000 0.1489896097
H   H16       1.0  0.15405  0.56983  0.98639  1.0000 0.1489896097
H   H17       1.0  0.01361  0.65405  0.93017  1.0000 0.1489896097
H   H18       1.0  0.51361  0.84595  0.06983  1.0000 0.1489896097
H   H19       1.0  0.48639  0.34595  0.43017  1.0000 0.1489896097
H   H20       1.0  0.98639  0.15405  0.56983  1.0000 0.1489896097
H   H21       1.0  0.93017  0.01361  0.65405  1.0000 0.1489896097
H   H22       1.0  0.06983  0.51361  0.84595  1.0000 0.1489896097
H   H23       1.0  0.43017  0.48639  0.34595  1.0000 0.1489896097
H   H24       1.0  0.56983  0.98639  0.15405  1.0000 0.1489896097
H   H25       1.0  0.25140  0.10539  0.97049  1.0000 0.1298621719
H   H26       1.0  0.24860  0.89461  0.47049  1.0000 0.1298621719
H   H27       1.0  0.74860  0.60539  0.52951  1.0000 0.1298621719
H   H28       1.0  0.75140  0.39461  0.02951  1.0000 0.1298621719
H   H29       1.0  0.97049  0.25140  0.10539  1.0000 0.1298621719
H   H30       1.0  0.47049  0.24860  0.89461  1.0000 0.1298621719
H   H31       1.0  0.52951  0.74860  0.60539  1.0000 0.1298621719
H   H32       1.0  0.02951  0.75140  0.39461  1.0000 0.1298621719
H   H33       1.0  0.10539  0.97049  0.25140  1.0000 0.1298621719
H   H34       1.0  0.89461  0.47049  0.24860  1.0000 0.1298621719
H   H35       1.0  0.60539  0.52951  0.74860  1.0000 0.1298621719
H   H36       1.0  0.39461  0.02951  0.75140  1.0000 0.1298621719
H   H37       1.0  0.74860  0.89461  0.02951  1.0000 0.1298621719
H   H38       1.0  0.75140  0.10539  0.52951  1.0000 0.1298621719
H   H39       1.0  0.25140  0.39461  0.47049  1.0000 0.1298621719
H   H40       1.0  0.24860  0.60539  0.97049  1.0000 0.1298621719
H   H41       1.0  0.02951  0.74860  0.89461  1.0000 0.1298621719
H   H42       1.0  0.52951  0.75140  0.10539  1.0000 0.1298621719
H   H43       1.0  0.47049  0.25140  0.39461  1.0000 0.1298621719
H   H44       1.0  0.97049  0.24860  0.60539  1.0000 0.1298621719
H   H45       1.0  0.89461  0.02951  0.74860  1.0000 0.1298621719
H   H46       1.0  0.10539  0.52951  0.75140  1.0000 0.1298621719
H   H47       1.0  0.39461  0.47049  0.25140  1.0000 0.1298621719
H   H48       1.0  0.60539  0.97049  0.24860  1.0000 0.1298621719
H   H49       1.0  0.26210  0.05623  0.96137  1.0000 0.1298621719
H   H50       1.0  0.23790  0.94377  0.46137  1.0000 0.1298621719
H   H51       1.0  0.73790  0.55623  0.53863  1.0000 0.1298621719
H   H52       1.0  0.76210  0.44377  0.03863  1.0000 0.1298621719
H   H53       1.0  0.96137  0.26210  0.05623  1.0000 0.1298621719
H   H54       1.0  0.46137  0.23790  0.94377  1.0000 0.1298621719
H   H55       1.0  0.53863  0.73790  0.55623  1.0000 0.1298621719
H   H56       1.0  0.03863  0.76210  0.44377  1.0000 0.1298621719
H   H57       1.0  0.05623  0.96137  0.26210  1.0000 0.1298621719
H   H58       1.0  0.94377  0.46137  0.23790  1.0000 0.1298621719
H   H59       1.0  0.55623  0.53863  0.73790  1.0000 0.1298621719
H   H60       1.0  0.44377  0.03863  0.76210  1.0000 0.1298621719
H   H61       1.0  0.73790  0.94377  0.03863  1.0000 0.1298621719
H   H62       1.0  0.76210  0.05623  0.53863  1.0000 0.1298621719
H   H63       1.0  0.26210  0.44377  0.46137  1.0000 0.1298621719
H   H64       1.0  0.23790  0.55623  0.96137  1.0000 0.1298621719
H   H65       1.0  0.03863  0.73790  0.94377  1.0000 0.1298621719
H   H66       1.0  0.53863  0.76210  0.05623  1.0000 0.1298621719
H   H67       1.0  0.46137  0.26210  0.44377  1.0000 0.1298621719
H   H68       1.0  0.96137  0.23790  0.55623  1.0000 0.1298621719
H   H69       1.0  0.94377  0.03863  0.73790  1.0000 0.1298621719
H   H70       1.0  0.05623  0.53863  0.76210  1.0000 0.1298621719
H   H71       1.0  0.44377  0.46137  0.26210  1.0000 0.1298621719
H   H72       1.0  0.55623  0.96137  0.23790  1.0000 0.1298621719
H   H73       1.0  0.37955  0.11982  0.00384  1.0000 0.1405807626
H   H74       1.0  0.12045  0.88018  0.50384  1.0000 0.1405807626
H   H75       1.0  0.62045  0.61982  0.49616  1.0000 0.1405807626
H   H76       1.0  0.87955  0.38018  0.99616  1.0000 0.1405807626
H   H77       1.0  0.00384  0.37955  0.11982  1.0000 0.1405807626
H   H78       1.0  0.50384  0.12045  0.88018  1.0000 0.1405807626
H   H79       1.0  0.49616  0.62045  0.61982  1.0000 0.1405807626
H   H80       1.0  0.99616  0.87955  0.38018  1.0000 0.1405807626
H   H81       1.0  0.11982  0.00384  0.37955  1.0000 0.1405807626
H   H82       1.0  0.88018  0.50384  0.12045  1.0000 0.1405807626
H   H83       1.0  0.61982  0.49616  0.62045  1.0000 0.1405807626
H   H84       1.0  0.38018  0.99616  0.87955  1.0000 0.1405807626
H   H85       1.0  0.62045  0.88018  0.99616  1.0000 0.1405807626
H   H86       1.0  0.87955  0.11982  0.49616  1.0000 0.1405807626
H   H87       1.0  0.37955  0.38018  0.50384  1.0000 0.1405807626
H   H88       1.0  0.12045  0.61982  0.00384  1.0000 0.1405807626
H   H89       1.0  0.99616  0.62045  0.88018  1.0000 0.1405807626
H   H90       1.0  0.49616  0.87955  0.11982  1.0000 0.1405807626
H   H91       1.0  0.50384  0.37955  0.38018  1.0000 0.1405807626
H   H92       1.0  0.00384  0.12045  0.61982  1.0000 0.1405807626
H   H93       1.0  0.88018  0.99616  0.62045  1.0000 0.1405807626
H   H94       1.0  0.11982  0.49616  0.87955  1.0000 0.1405807626
H   H95       1.0  0.38018  0.50384  0.37955  1.0000 0.1405807626
H   H96       1.0  0.61982  0.00384  0.12045  1.0000 0.1405807626
H   H97       1.0  0.31456  0.19870  0.00696  1.0000 0.1405807626
H   H98       1.0  0.18544  0.80130  0.50696  1.0000 0.1405807626
H   H99       1.0  0.68544  0.69870  0.49304  1.0000 0.1405807626
H   H100      1.0  0.81456  0.30130  0.99304  1.0000 0.1405807626
H   H101      1.0  0.00696  0.31456  0.19870  1.0000 0.1405807626
H   H102      1.0  0.50696  0.18544  0.80130  1.0000 0.1405807626
H   H103      1.0  0.49304  0.68544  0.69870  1.0000 0.1405807626
H   H104      1.0  0.99304  0.81456  0.30130  1.0000 0.1405807626
H   H105      1.0  0.19870  0.00696  0.31456  1.0000 0.1405807626
H   H106      1.0  0.80130  0.50696  0.18544  1.0000 0.1405807626
H   H107      1.0  0.69870  0.49304  0.68544  1.0000 0.1405807626
H   H108      1.0  0.30130  0.99304  0.81456  1.0000 0.1405807626
H   H109      1.0  0.68544  0.80130  0.99304  1.0000 0.1405807626
H   H110      1.0  0.81456  0.19870  0.49304  1.0000 0.1405807626
H   H111      1.0  0.31456  0.30130  0.50696  1.0000 0.1405807626
H   H112      1.0  0.18544  0.69870  0.00696  1.0000 0.1405807626
H   H113      1.0  0.99304  0.68544  0.80130  1.0000 0.1405807626
H   H114      1.0  0.49304  0.81456  0.19870  1.0000 0.1405807626
H   H115      1.0  0.50696  0.31456  0.30130  1.0000 0.1405807626
H   H116      1.0  0.00696  0.18544  0.69870  1.0000 0.1405807626
H   H117      1.0  0.80130  0.99304  0.68544  1.0000 0.1405807626
H   H118      1.0  0.19870  0.49304  0.81456  1.0000 0.1405807626
H   H119      1.0  0.30130  0.50696  0.31456  1.0000 0.1405807626
H   H120      1.0  0.69870  0.00696  0.18544  1.0000 0.1405807626
H   H121      1.0  0.36385  0.20571  0.01857  1.0000 0.1193857385
H   H122      1.0  0.13615  0.79429  0.51857  1.0000 0.1193857385
H   H123      1.0  0.63615  0.70571  0.48143  1.0000 0.1193857385
H   H124      1.0  0.86385  0.29429  0.98143  1.0000 0.1193857385
H   H125      1.0  0.01857  0.36385  0.20571  1.0000 0.1193857385
H   H126      1.0  0.51857  0.13615  0.79429  1.0000 0.1193857385
H   H127      1.0  0.48143  0.63615  0.70571  1.0000 0.1193857385
H   H128      1.0  0.98143  0.86385  0.29429  1.0000 0.1193857385
H   H129      1.0  0.20571  0.01857  0.36385  1.0000 0.1193857385
H   H130      1.0  0.79429  0.51857  0.13615  1.0000 0.1193857385
H   H131      1.0  0.70571  0.48143  0.63615  1.0000 0.1193857385
H   H132      1.0  0.29429  0.98143  0.86385  1.0000 0.1193857385
H   H133      1.0  0.63615  0.79429  0.98143  1.0000 0.1193857385
H   H134      1.0  0.86385  0.20571  0.48143  1.0000 0.1193857385
H   H135      1.0  0.36385  0.29429  0.51857  1.0000 0.1193857385
H   H136      1.0  0.13615  0.70571  0.01857  1.0000 0.1193857385
H   H137      1.0  0.98143  0.63615  0.79429  1.0000 0.1193857385
H   H138      1.0  0.48143  0.86385  0.20571  1.0000 0.1193857385
H   H139      1.0  0.51857  0.36385  0.29429  1.0000 0.1193857385
H   H140      1.0  0.01857  0.13615  0.70571  1.0000 0.1193857385
H   H141      1.0  0.79429  0.98143  0.63615  1.0000 0.1193857385
H   H142      1.0  0.20571  0.48143  0.86385  1.0000 0.1193857385
H   H143      1.0  0.29429  0.51857  0.36385  1.0000 0.1193857385
H   H144      1.0  0.70571  0.01857  0.13615  1.0000 0.1193857385
H   H145      1.0  0.38758  0.95952  0.11439  1.0000 0.1405807626
H   H146      1.0  0.11242  0.04048  0.61439  1.0000 0.1405807626
H   H147      1.0  0.61242  0.45952  0.38561  1.0000 0.1405807626
H   H148      1.0  0.88758  0.54048  0.88561  1.0000 0.1405807626
H   H149      1.0  0.11439  0.38758  0.95952  1.0000 0.1405807626
H   H150      1.0  0.61439  0.11242  0.04048  1.0000 0.1405807626
H   H151      1.0  0.38561  0.61242  0.45952  1.0000 0.1405807626
H   H152      1.0  0.88561  0.88758  0.54048  1.0000 0.1405807626
H   H153      1.0  0.95952  0.11439  0.38758  1.0000 0.1405807626
H   H154      1.0  0.04048  0.61439  0.11242  1.0000 0.1405807626
H   H155      1.0  0.45952  0.38561  0.61242  1.0000 0.1405807626
H   H156      1.0  0.54048  0.88561  0.88758  1.0000 0.1405807626
H   H157      1.0  0.61242  0.04048  0.88561  1.0000 0.1405807626
H   H158      1.0  0.88758  0.95952  0.38561  1.0000 0.1405807626
H   H159      1.0  0.38758  0.54048  0.61439  1.0000 0.1405807626
H   H160      1.0  0.11242  0.45952  0.11439  1.0000 0.1405807626
H   H161      1.0  0.88561  0.61242  0.04048  1.0000 0.1405807626
H   H162      1.0  0.38561  0.88758  0.95952  1.0000 0.1405807626
H   H163      1.0  0.61439  0.38758  0.54048  1.0000 0.1405807626
H   H164      1.0  0.11439  0.11242  0.45952  1.0000 0.1405807626
H   H165      1.0  0.04048  0.88561  0.61242  1.0000 0.1405807626
H   H166      1.0  0.95952  0.38561  0.88758  1.0000 0.1405807626
H   H167      1.0  0.54048  0.61439  0.38758  1.0000 0.1405807626
H   H168      1.0  0.45952  0.11439  0.11242  1.0000 0.1405807626
H   H169      1.0  0.32323  0.95444  0.19369  1.0000 0.1298621719
H   H170      1.0  0.17677  0.04556  0.69369  1.0000 0.1298621719
H   H171      1.0  0.67677  0.45444  0.30631  1.0000 0.1298621719
H   H172      1.0  0.82323  0.54556  0.80631  1.0000 0.1298621719
H   H173      1.0  0.19369  0.32323  0.95444  1.0000 0.1298621719
H   H174      1.0  0.69369  0.17677  0.04556  1.0000 0.1298621719
H   H175      1.0  0.30631  0.67677  0.45444  1.0000 0.1298621719
H   H176      1.0  0.80631  0.82323  0.54556  1.0000 0.1298621719
H   H177      1.0  0.95444  0.19369  0.32323  1.0000 0.1298621719
H   H178      1.0  0.04556  0.69369  0.17677  1.0000 0.1298621719
H   H179      1.0  0.45444  0.30631  0.67677  1.0000 0.1298621719
H   H180      1.0  0.54556  0.80631  0.82323  1.0000 0.1298621719
H   H181      1.0  0.67677  0.04556  0.80631  1.0000 0.1298621719
H   H182      1.0  0.82323  0.95444  0.30631  1.0000 0.1298621719
H   H183      1.0  0.32323  0.54556  0.69369  1.0000 0.1298621719
H   H184      1.0  0.17677  0.45444  0.19369  1.0000 0.1298621719
H   H185      1.0  0.80631  0.67677  0.04556  1.0000 0.1298621719
H   H186      1.0  0.30631  0.82323  0.95444  1.0000 0.1298621719
H   H187      1.0  0.69369  0.32323  0.54556  1.0000 0.1298621719
H   H188      1.0  0.19369  0.17677  0.45444  1.0000 0.1298621719
H   H189      1.0  0.04556  0.80631  0.67677  1.0000 0.1298621719
H   H190      1.0  0.95444  0.30631  0.82323  1.0000 0.1298621719
H   H191      1.0  0.54556  0.69369  0.32323  1.0000 0.1298621719
H   H192      1.0  0.45444  0.19369  0.17677  1.0000 0.1298621719
H   H193      1.0  0.37372  0.95410  0.20168  1.0000 0.1298621719
H   H194      1.0  0.12628  0.04590  0.70168  1.0000 0.1298621719
H   H195      1.0  0.62628  0.45410  0.29832  1.0000 0.1298621719
H   H196      1.0  0.87372  0.54590  0.79832  1.0000 0.1298621719
H   H197      1.0  0.20168  0.37372  0.95410  1.0000 0.1298621719
H   H198      1.0  0.70168  0.12628  0.04590  1.0000 0.1298621719
H   H199      1.0  0.29832  0.62628  0.45410  1.0000 0.1298621719
H   H200      1.0  0.79832  0.87372  0.54590  1.0000 0.1298621719
H   H201      1.0  0.95410  0.20168  0.37372  1.0000 0.1298621719
H   H202      1.0  0.04590  0.70168  0.12628  1.0000 0.1298621719
H   H203      1.0  0.45410  0.29832  0.62628  1.0000 0.1298621719
H   H204      1.0  0.54590  0.79832  0.87372  1.0000 0.1298621719
H   H205      1.0  0.62628  0.04590  0.79832  1.0000 0.1298621719
H   H206      1.0  0.87372  0.95410  0.29832  1.0000 0.1298621719
H   H207      1.0  0.37372  0.54590  0.70168  1.0000 0.1298621719
H   H208      1.0  0.12628  0.45410  0.20168  1.0000 0.1298621719
H   H209      1.0  0.79832  0.62628  0.04590  1.0000 0.1298621719
H   H210      1.0  0.29832  0.87372  0.95410  1.0000 0.1298621719
H   H211      1.0  0.70168  0.37372  0.54590  1.0000 0.1298621719
H   H212      1.0  0.20168  0.12628  0.45410  1.0000 0.1298621719
H   H213      1.0  0.04590  0.79832  0.62628  1.0000 0.1298621719
H   H214      1.0  0.95410  0.29832  0.87372  1.0000 0.1298621719
H   H215      1.0  0.54590  0.70168  0.37372  1.0000 0.1298621719
H   H216      1.0  0.45410  0.20168  0.12628  1.0000 0.1298621719
H   H217      1.0  0.26481  0.96398  0.04673  1.0000 0.1298621719
H   H218      1.0  0.23519  0.03602  0.54673  1.0000 0.1298621719
H   H219      1.0  0.73519  0.46398  0.45327  1.0000 0.1298621719
H   H220      1.0  0.76481  0.53602  0.95327  1.0000 0.1298621719
H   H221      1.0  0.04673  0.26481  0.96398  1.0000 0.1298621719
H   H222      1.0  0.54673  0.23519  0.03602  1.0000 0.1298621719
H   H223      1.0  0.45327  0.73519  0.46398  1.0000 0.1298621719
H   H224      1.0  0.95327  0.76481  0.53602  1.0000 0.1298621719
H   H225      1.0  0.96398  0.04673  0.26481  1.0000 0.1298621719
H   H226      1.0  0.03602  0.54673  0.23519  1.0000 0.1298621719
H   H227      1.0  0.46398  0.45327  0.73519  1.0000 0.1298621719
H   H228      1.0  0.53602  0.95327  0.76481  1.0000 0.1298621719
H   H229      1.0  0.73519  0.03602  0.95327  1.0000 0.1298621719
H   H230      1.0  0.76481  0.96398  0.45327  1.0000 0.1298621719
H   H231      1.0  0.26481  0.53602  0.54673  1.0000 0.1298621719
H   H232      1.0  0.23519  0.46398  0.04673  1.0000 0.1298621719
H   H233      1.0  0.95327  0.73519  0.03602  1.0000 0.1298621719
H   H234      1.0  0.45327  0.76481  0.96398  1.0000 0.1298621719
H   H235      1.0  0.54673  0.26481  0.53602  1.0000 0.1298621719
H   H236      1.0  0.04673  0.23519  0.46398  1.0000 0.1298621719
H   H237      1.0  0.03602  0.95327  0.73519  1.0000 0.1298621719
H   H238      1.0  0.96398  0.45327  0.76481  1.0000 0.1298621719
H   H239      1.0  0.53602  0.54673  0.26481  1.0000 0.1298621719
H   H240      1.0  0.46398  0.04673  0.23519  1.0000 0.1298621719
H   H241      1.0  0.25511  0.96239  0.09690  1.0000 0.1298621719
H   H242      1.0  0.24489  0.03761  0.59690  1.0000 0.1298621719
H   H243      1.0  0.74489  0.46239  0.40310  1.0000 0.1298621719
H   H244      1.0  0.75511  0.53761  0.90310  1.0000 0.1298621719
H   H245      1.0  0.09690  0.25511  0.96239  1.0000 0.1298621719
H   H246      1.0  0.59690  0.24489  0.03761  1.0000 0.1298621719
H   H247      1.0  0.40310  0.74489  0.46239  1.0000 0.1298621719
H   H248      1.0  0.90310  0.75511  0.53761  1.0000 0.1298621719
H   H249      1.0  0.96239  0.09690  0.25511  1.0000 0.1298621719
H   H250      1.0  0.03761  0.59690  0.24489  1.0000 0.1298621719
H   H251      1.0  0.46239  0.40310  0.74489  1.0000 0.1298621719
H   H252      1.0  0.53761  0.90310  0.75511  1.0000 0.1298621719
H   H253      1.0  0.74489  0.03761  0.90310  1.0000 0.1298621719
H   H254      1.0  0.75511  0.96239  0.40310  1.0000 0.1298621719
H   H255      1.0  0.25511  0.53761  0.59690  1.0000 0.1298621719
H   H256      1.0  0.24489  0.46239  0.09690  1.0000 0.1298621719
H   H257      1.0  0.90310  0.74489  0.03761  1.0000 0.1298621719
H   H258      1.0  0.40310  0.75511  0.96239  1.0000 0.1298621719
H   H259      1.0  0.59690  0.25511  0.53761  1.0000 0.1298621719
H   H260      1.0  0.09690  0.24489  0.46239  1.0000 0.1298621719
H   H261      1.0  0.03761  0.90310  0.74489  1.0000 0.1298621719
H   H262      1.0  0.96239  0.40310  0.75511  1.0000 0.1298621719
H   H263      1.0  0.53761  0.59690  0.25511  1.0000 0.1298621719
H   H264      1.0  0.46239  0.09690  0.24489  1.0000 0.1298621719
H   H265      1.0  0.35172  0.96120  0.06345  1.0000 0.1405807626
H   H266      1.0  0.14828  0.03880  0.56345  1.0000 0.1405807626
H   H267      1.0  0.64828  0.46120  0.43655  1.0000 0.1405807626
H   H268      1.0  0.85172  0.53880  0.93655  1.0000 0.1405807626
H   H269      1.0  0.06345  0.35172  0.96120  1.0000 0.1405807626
H   H270      1.0  0.56345  0.14828  0.03880  1.0000 0.1405807626
H   H271      1.0  0.43655  0.64828  0.46120  1.0000 0.1405807626
H   H272      1.0  0.93655  0.85172  0.53880  1.0000 0.1405807626
H   H273      1.0  0.96120  0.06345  0.35172  1.0000 0.1405807626
H   H274      1.0  0.03880  0.56345  0.14828  1.0000 0.1405807626
H   H275      1.0  0.46120  0.43655  0.64828  1.0000 0.1405807626
H   H276      1.0  0.53880  0.93655  0.85172  1.0000 0.1405807626
H   H277      1.0  0.64828  0.03880  0.93655  1.0000 0.1405807626
H   H278      1.0  0.85172  0.96120  0.43655  1.0000 0.1405807626
H   H279      1.0  0.35172  0.53880  0.56345  1.0000 0.1405807626
H   H280      1.0  0.14828  0.46120  0.06345  1.0000 0.1405807626
H   H281      1.0  0.93655  0.64828  0.03880  1.0000 0.1405807626
H   H282      1.0  0.43655  0.85172  0.96120  1.0000 0.1405807626
H   H283      1.0  0.56345  0.35172  0.53880  1.0000 0.1405807626
H   H284      1.0  0.06345  0.14828  0.46120  1.0000 0.1405807626
H   H285      1.0  0.03880  0.93655  0.64828  1.0000 0.1405807626
H   H286      1.0  0.96120  0.43655  0.85172  1.0000 0.1405807626
H   H287      1.0  0.53880  0.56345  0.35172  1.0000 0.1405807626
H   H288      1.0  0.46120  0.06345  0.14828  1.0000 0.1405807626
H   H289      1.0  0.21833  0.00326  0.17508  1.0000 0.1125177458
H   H290      1.0  0.28167  0.99674  0.67508  1.0000 0.1125177458
H   H291      1.0  0.78167  0.50326  0.32492  1.0000 0.1125177458
H   H292      1.0  0.71833  0.49674  0.82492  1.0000 0.1125177458
H   H293      1.0  0.17508  0.21833  0.00326  1.0000 0.1125177458
H   H294      1.0  0.67508  0.28167  0.99674  1.0000 0.1125177458
H   H295      1.0  0.32492  0.78167  0.50326  1.0000 0.1125177458
H   H296      1.0  0.82492  0.71833  0.49674  1.0000 0.1125177458
H   H297      1.0  0.00326  0.17508  0.21833  1.0000 0.1125177458
H   H298      1.0  0.99674  0.67508  0.28167  1.0000 0.1125177458
H   H299      1.0  0.50326  0.32492  0.78167  1.0000 0.1125177458
H   H300      1.0  0.49674  0.82492  0.71833  1.0000 0.1125177458
H   H301      1.0  0.78167  0.99674  0.82492  1.0000 0.1125177458
H   H302      1.0  0.71833  0.00326  0.32492  1.0000 0.1125177458
H   H303      1.0  0.21833  0.49674  0.67508  1.0000 0.1125177458
H   H304      1.0  0.28167  0.50326  0.17508  1.0000 0.1125177458
H   H305      1.0  0.82492  0.78167  0.99674  1.0000 0.1125177458
H   H306      1.0  0.32492  0.71833  0.00326  1.0000 0.1125177458
H   H307      1.0  0.67508  0.21833  0.49674  1.0000 0.1125177458
H   H308      1.0  0.17508  0.28167  0.50326  1.0000 0.1125177458
H   H309      1.0  0.99674  0.82492  0.78167  1.0000 0.1125177458
H   H310      1.0  0.00326  0.32492  0.71833  1.0000 0.1125177458
H   H311      1.0  0.49674  0.67508  0.21833  1.0000 0.1125177458
H   H312      1.0  0.50326  0.17508  0.28167  1.0000 0.1125177458
H   H313      1.0  0.25883  0.99967  0.14409  1.0000 0.1405807626
H   H314      1.0  0.24117  0.00033  0.64409  1.0000 0.1405807626
H   H315      1.0  0.74117  0.49967  0.35591  1.0000 0.1405807626
H   H316      1.0  0.75883  0.50033  0.85591  1.0000 0.1405807626
H   H317      1.0  0.14409  0.25883  0.99967  1.0000 0.1405807626
H   H318      1.0  0.64409  0.24117  0.00033  1.0000 0.1405807626
H   H319      1.0  0.35591  0.74117  0.49967  1.0000 0.1405807626
H   H320      1.0  0.85591  0.75883  0.50033  1.0000 0.1405807626
H   H321      1.0  0.99967  0.14409  0.25883  1.0000 0.1405807626
H   H322      1.0  0.00033  0.64409  0.24117  1.0000 0.1405807626
H   H323      1.0  0.49967  0.35591  0.74117  1.0000 0.1405807626
H   H324      1.0  0.50033  0.85591  0.75883  1.0000 0.1405807626
H   H325      1.0  0.74117  0.00033  0.85591  1.0000 0.1405807626
H   H326      1.0  0.75883  0.99967  0.35591  1.0000 0.1405807626
H   H327      1.0  0.25883  0.50033  0.64409  1.0000 0.1405807626
H   H328      1.0  0.24117  0.49967  0.14409  1.0000 0.1405807626
H   H329      1.0  0.85591  0.74117  0.00033  1.0000 0.1405807626
H   H330      1.0  0.35591  0.75883  0.99967  1.0000 0.1405807626
H   H331      1.0  0.64409  0.25883  0.50033  1.0000 0.1405807626
H   H332      1.0  0.14409  0.24117  0.49967  1.0000 0.1405807626
H   H333      1.0  0.00033  0.85591  0.74117  1.0000 0.1405807626
H   H334      1.0  0.99967  0.35591  0.75883  1.0000 0.1405807626
H   H335      1.0  0.50033  0.64409  0.25883  1.0000 0.1405807626
H   H336      1.0  0.49967  0.14409  0.24117  1.0000 0.1405807626
H   H337      1.0  0.27965  0.92161  0.18033  1.0000 0.1298621719
H   H338      1.0  0.22035  0.07839  0.68033  1.0000 0.1298621719
H   H339      1.0  0.72035  0.42161  0.31967  1.0000 0.1298621719
H   H340      1.0  0.77965  0.57839  0.81967  1.0000 0.1298621719
H   H341      1.0  0.18033  0.27965  0.92161  1.0000 0.1298621719
H   H342      1.0  0.68033  0.22035  0.07839  1.0000 0.1298621719
H   H343      1.0  0.31967  0.72035  0.42161  1.0000 0.1298621719
H   H344      1.0  0.81967  0.77965  0.57839  1.0000 0.1298621719
H   H345      1.0  0.92161  0.18033  0.27965  1.0000 0.1298621719
H   H346      1.0  0.07839  0.68033  0.22035  1.0000 0.1298621719
H   H347      1.0  0.42161  0.31967  0.72035  1.0000 0.1298621719
H   H348      1.0  0.57839  0.81967  0.77965  1.0000 0.1298621719
H   H349      1.0  0.72035  0.07839  0.81967  1.0000 0.1298621719
H   H350      1.0  0.77965  0.92161  0.31967  1.0000 0.1298621719
H   H351      1.0  0.27965  0.57839  0.68033  1.0000 0.1298621719
H   H352      1.0  0.22035  0.42161  0.18033  1.0000 0.1298621719
H   H353      1.0  0.81967  0.72035  0.07839  1.0000 0.1298621719
H   H354      1.0  0.31967  0.77965  0.92161  1.0000 0.1298621719
H   H355      1.0  0.68033  0.27965  0.57839  1.0000 0.1298621719
H   H356      1.0  0.18033  0.22035  0.42161  1.0000 0.1298621719
H   H357      1.0  0.07839  0.81967  0.72035  1.0000 0.1298621719
H   H358      1.0  0.92161  0.31967  0.77965  1.0000 0.1298621719
H   H359      1.0  0.57839  0.68033  0.27965  1.0000 0.1298621719
H   H360      1.0  0.42161  0.18033  0.22035  1.0000 0.1298621719
H   H361      1.0  0.23914  0.92519  0.21132  1.0000 0.1125177458
H   H362      1.0  0.26086  0.07481  0.71132  1.0000 0.1125177458
H   H363      1.0  0.76086  0.42519  0.28868  1.0000 0.1125177458
H   H364      1.0  0.73914  0.57481  0.78868  1.0000 0.1125177458
H   H365      1.0  0.21132  0.23914  0.92519  1.0000 0.1125177458
H   H366      1.0  0.71132  0.26086  0.07481  1.0000 0.1125177458
H   H367      1.0  0.28868  0.76086  0.42519  1.0000 0.1125177458
H   H368      1.0  0.78868  0.73914  0.57481  1.0000 0.1125177458
H   H369      1.0  0.92519  0.21132  0.23914  1.0000 0.1125177458
H   H370      1.0  0.07481  0.71132  0.26086  1.0000 0.1125177458
H   H371      1.0  0.42519  0.28868  0.76086  1.0000 0.1125177458
H   H372      1.0  0.57481  0.78868  0.73914  1.0000 0.1125177458
H   H373      1.0  0.76086  0.07481  0.78868  1.0000 0.1125177458
H   H374      1.0  0.73914  0.92519  0.28868  1.0000 0.1125177458
H   H375      1.0  0.23914  0.57481  0.71132  1.0000 0.1125177458
H   H376      1.0  0.26086  0.42519  0.21132  1.0000 0.1125177458
H   H377      1.0  0.78868  0.76086  0.07481  1.0000 0.1125177458
H   H378      1.0  0.28868  0.73914  0.92519  1.0000 0.1125177458
H   H379      1.0  0.71132  0.23914  0.57481  1.0000 0.1125177458
H   H380      1.0  0.21132  0.26086  0.42519  1.0000 0.1125177458
H   H381      1.0  0.07481  0.78868  0.76086  1.0000 0.1125177458
H   H382      1.0  0.92519  0.28868  0.73914  1.0000 0.1125177458
H   H383      1.0  0.57481  0.71132  0.23914  1.0000 0.1125177458
H   H384      1.0  0.42519  0.21132  0.26086  1.0000 0.1125177458
H   H385      1.0  0.28429  0.18626  0.94178  1.0000 0.1405807626
H   H386      1.0  0.21571  0.81374  0.44178  1.0000 0.1405807626
H   H387      1.0  0.71571  0.68626  0.55822  1.0000 0.1405807626
H   H388      1.0  0.78429  0.31374  0.05822  1.0000 0.1405807626
H   H389      1.0  0.94178  0.28429  0.18626  1.0000 0.1405807626
H   H390      1.0  0.44178  0.21571  0.81374  1.0000 0.1405807626
H   H391      1.0  0.55822  0.71571  0.68626  1.0000 0.1405807626
H   H392      1.0  0.05822  0.78429  0.31374  1.0000 0.1405807626
H   H393      1.0  0.18626  0.94178  0.28429  1.0000 0.1405807626
H   H394      1.0  0.81374  0.44178  0.21571  1.0000 0.1405807626
H   H395      1.0  0.68626  0.55822  0.71571  1.0000 0.1405807626
H   H396      1.0  0.31374  0.05822  0.78429  1.0000 0.1405807626
H   H397      1.0  0.71571  0.81374  0.05822  1.0000 0.1405807626
H   H398      1.0  0.78429  0.18626  0.55822  1.0000 0.1405807626
H   H399      1.0  0.28429  0.31374  0.44178  1.0000 0.1405807626
H   H400      1.0  0.21571  0.68626  0.94178  1.0000 0.1405807626
H   H401      1.0  0.05822  0.71571  0.81374  1.0000 0.1405807626
H   H402      1.0  0.55822  0.78429  0.18626  1.0000 0.1405807626
H   H403      1.0  0.44178  0.28429  0.31374  1.0000 0.1405807626
H   H404      1.0  0.94178  0.21571  0.68626  1.0000 0.1405807626
H   H405      1.0  0.81374  0.05822  0.71571  1.0000 0.1405807626
H   H406      1.0  0.18626  0.55822  0.78429  1.0000 0.1405807626
H   H407      1.0  0.31374  0.44178  0.28429  1.0000 0.1405807626
H   H408      1.0  0.68626  0.94178  0.21571  1.0000 0.1405807626
H   H409      1.0  0.24756  0.22168  0.93856  1.0000 0.1125177458
H   H410      1.0  0.25244  0.77832  0.43856  1.0000 0.1125177458
H   H411      1.0  0.75244  0.72168  0.56144  1.0000 0.1125177458
H   H412      1.0  0.74756  0.27832  0.06144  1.0000 0.1125177458
H   H413      1.0  0.93856  0.24756  0.22168  1.0000 0.1125177458
H   H414      1.0  0.43856  0.25244  0.77832  1.0000 0.1125177458
H   H415      1.0  0.56144  0.75244  0.72168  1.0000 0.1125177458
H   H416      1.0  0.06144  0.74756  0.27832  1.0000 0.1125177458
H   H417      1.0  0.22168  0.93856  0.24756  1.0000 0.1125177458
H   H418      1.0  0.77832  0.43856  0.25244  1.0000 0.1125177458
H   H419      1.0  0.72168  0.56144  0.75244  1.0000 0.1125177458
H   H420      1.0  0.27832  0.06144  0.74756  1.0000 0.1125177458
H   H421      1.0  0.75244  0.77832  0.06144  1.0000 0.1125177458
H   H422      1.0  0.74756  0.22168  0.56144  1.0000 0.1125177458
H   H423      1.0  0.24756  0.27832  0.43856  1.0000 0.1125177458
H   H424      1.0  0.25244  0.72168  0.93856  1.0000 0.1125177458
H   H425      1.0  0.06144  0.75244  0.77832  1.0000 0.1125177458
H   H426      1.0  0.56144  0.74756  0.22168  1.0000 0.1125177458
H   H427      1.0  0.43856  0.24756  0.27832  1.0000 0.1125177458
H   H428      1.0  0.93856  0.25244  0.72168  1.0000 0.1125177458
H   H429      1.0  0.77832  0.06144  0.75244  1.0000 0.1125177458
H   H430      1.0  0.22168  0.56144  0.74756  1.0000 0.1125177458
H   H431      1.0  0.27832  0.43856  0.24756  1.0000 0.1125177458
H   H432      1.0  0.72168  0.93856  0.25244  1.0000 0.1125177458
H   H433      1.0  0.20799  0.18712  0.00984  1.0000 0.1125177458
H   H434      1.0  0.29201  0.81288  0.50984  1.0000 0.1125177458
H   H435      1.0  0.79201  0.68712  0.49016  1.0000 0.1125177458
H   H436      1.0  0.70799  0.31288  0.99016  1.0000 0.1125177458
H   H437      1.0  0.00984  0.20799  0.18712  1.0000 0.1125177458
H   H438      1.0  0.50984  0.29201  0.81288  1.0000 0.1125177458
H   H439      1.0  0.49016  0.79201  0.68712  1.0000 0.1125177458
H   H440      1.0  0.99016  0.70799  0.31288  1.0000 0.1125177458
H   H441      1.0  0.18712  0.00984  0.20799  1.0000 0.1125177458
H   H442      1.0  0.81288  0.50984  0.29201  1.0000 0.1125177458
H   H443      1.0  0.68712  0.49016  0.79201  1.0000 0.1125177458
H   H444      1.0  0.31288  0.99016  0.70799  1.0000 0.1125177458
H   H445      1.0  0.79201  0.81288  0.99016  1.0000 0.1125177458
H   H446      1.0  0.70799  0.18712  0.49016  1.0000 0.1125177458
H   H447      1.0  0.20799  0.31288  0.50984  1.0000 0.1125177458
H   H448      1.0  0.29201  0.68712  0.00984  1.0000 0.1125177458
H   H449      1.0  0.99016  0.79201  0.81288  1.0000 0.1125177458
H   H450      1.0  0.49016  0.70799  0.18712  1.0000 0.1125177458
H   H451      1.0  0.50984  0.20799  0.31288  1.0000 0.1125177458
H   H452      1.0  0.00984  0.29201  0.68712  1.0000 0.1125177458
H   H453      1.0  0.81288  0.99016  0.79201  1.0000 0.1125177458
H   H454      1.0  0.18712  0.49016  0.70799  1.0000 0.1125177458
H   H455      1.0  0.31288  0.50984  0.20799  1.0000 0.1125177458
H   H456      1.0  0.68712  0.00984  0.29201  1.0000 0.1125177458
H   H457      1.0  0.24471  0.15170  0.01306  1.0000 0.1405807626
H   H458      1.0  0.25529  0.84830  0.51306  1.0000 0.1405807626
H   H459      1.0  0.75529  0.65170  0.48694  1.0000 0.1405807626
H   H460      1.0  0.74471  0.34830  0.98694  1.0000 0.1405807626
H   H461      1.0  0.01306  0.24471  0.15170  1.0000 0.1405807626
H   H462      1.0  0.51306  0.25529  0.84830  1.0000 0.1405807626
H   H463      1.0  0.48694  0.75529  0.65170  1.0000 0.1405807626
H   H464      1.0  0.98694  0.74471  0.34830  1.0000 0.1405807626
H   H465      1.0  0.15170  0.01306  0.24471  1.0000 0.1405807626
H   H466      1.0  0.84830  0.51306  0.25529  1.0000 0.1405807626
H   H467      1.0  0.65170  0.48694  0.75529  1.0000 0.1405807626
H   H468      1.0  0.34830  0.98694  0.74471  1.0000 0.1405807626
H   H469      1.0  0.75529  0.84830  0.98694  1.0000 0.1405807626
H   H470      1.0  0.74471  0.15170  0.48694  1.0000 0.1405807626
H   H471      1.0  0.24471  0.34830  0.51306  1.0000 0.1405807626
H   H472      1.0  0.25529  0.65170  0.01306  1.0000 0.1405807626
H   H473      1.0  0.98694  0.75529  0.84830  1.0000 0.1405807626
H   H474      1.0  0.48694  0.74471  0.15170  1.0000 0.1405807626
H   H475      1.0  0.51306  0.24471  0.34830  1.0000 0.1405807626
H   H476      1.0  0.01306  0.25529  0.65170  1.0000 0.1405807626
H   H477      1.0  0.84830  0.98694  0.75529  1.0000 0.1405807626
H   H478      1.0  0.15170  0.48694  0.74471  1.0000 0.1405807626
H   H479      1.0  0.34830  0.51306  0.24471  1.0000 0.1405807626
H   H480      1.0  0.65170  0.01306  0.25529  1.0000 0.1405807626
C   C1        1.0  0.30740  0.02650  0.97070  1.0000 0.5741294393
C   C2        1.0  0.19260  0.97350  0.47070  1.0000 0.5741294393
C   C3        1.0  0.69260  0.52650  0.52930  1.0000 0.5741294393
C   C4        1.0  0.80740  0.47350  0.02930  1.0000 0.5741294393
C   C5        1.0  0.97070  0.30740  0.02650  1.0000 0.5741294393
C   C6        1.0  0.47070  0.19260  0.97350  1.0000 0.5753347541
C   C7        1.0  0.52930  0.69260  0.52650  1.0000 0.5741294393
C   C8        1.0  0.02930  0.80740  0.47350  1.0000 0.5741294393
C   C9        1.0  0.02650  0.97070  0.30740  1.0000 0.5741294393
C   C10       1.0  0.97350  0.47070  0.19260  1.0000 0.5741294393
C   C11       1.0  0.52650  0.52930  0.69260  1.0000 0.5741294393
C   C12       1.0  0.47350  0.02930  0.80740  1.0000 0.5741294393
C   C13       1.0  0.69260  0.97350  0.02930  1.0000 0.5741294393
C   C14       1.0  0.80740  0.02650  0.52930  1.0000 0.5741294393
C   C15       1.0  0.30740  0.47350  0.47070  1.0000 0.5741294393
C   C16       1.0  0.19260  0.52650  0.97070  1.0000 0.5741294393
C   C17       1.0  0.02930  0.69260  0.97350  1.0000 0.5741294393
C   C18       1.0  0.52930  0.80740  0.02650  1.0000 0.5741294393
C   C19       1.0  0.47070  0.30740  0.47350  1.0000 0.5741294393
C   C20       1.0  0.97070  0.19260  0.52650  1.0000 0.5741294393
C   C21       1.0  0.97350  0.02930  0.69260  1.0000 0.5741294393
C   C22       1.0  0.02650  0.52930  0.80740  1.0000 0.5741294393
C   C23       1.0  0.47350  0.47070  0.30740  1.0000 0.5741294393
C   C24       1.0  0.52650  0.97070  0.19260  1.0000 0.5741294393
C   C25       1.0  0.30503  0.05841  0.97302  1.0000 -0.0329697918
C   C26       1.0  0.19497  0.94159  0.47302  1.0000 -0.0329697918
C   C27       1.0  0.69497  0.55841  0.52698  1.0000 -0.0329697918
C   C28       1.0  0.80503  0.44159  0.02698  1.0000 -0.0329697918
C   C29       1.0  0.97302  0.30503  0.05841  1.0000 -0.0329697918
C   C30       1.0  0.47302  0.19497  0.94159  1.0000 -0.0329697918
C   C31       1.0  0.52698  0.69497  0.55841  1.0000 -0.0329697918
C   C32       1.0  0.02698  0.80503  0.44159  1.0000 -0.0329697918
C   C33       1.0  0.05841  0.97302  0.30503  1.0000 -0.0329697918
C   C34       1.0  0.94159  0.47302  0.19497  1.0000 -0.0329697918
C   C35       1.0  0.55841  0.52698  0.69497  1.0000 -0.0329697918
C   C36       1.0  0.44159  0.02698  0.80503  1.0000 -0.0329697918
C   C37       1.0  0.69497  0.94159  0.02698  1.0000 -0.0329697918
C   C38       1.0  0.80503  0.05841  0.52698  1.0000 -0.0329697918
C   C39       1.0  0.30503  0.44159  0.47302  1.0000 -0.0329697918
C   C40       1.0  0.19497  0.55841  0.97302  1.0000 -0.0329697918
C   C41       1.0  0.02698  0.69497  0.94159  1.0000 -0.0329697918
C   C42       1.0  0.52698  0.80503  0.05841  1.0000 -0.0329697918
C   C43       1.0  0.47302  0.30503  0.44159  1.0000 -0.0329697918
C   C44       1.0  0.97302  0.19497  0.55841  1.0000 -0.0329697918
C   C45       1.0  0.94159  0.02698  0.69497  1.0000 -0.0329697918
C   C46       1.0  0.05841  0.52698  0.80503  1.0000 -0.0329697918
C   C47       1.0  0.44159  0.47302  0.30503  1.0000 -0.0329697918
C   C48       1.0  0.55841  0.97302  0.19497  1.0000 -0.0329697918
C   C49       1.0  0.32675  0.07705  0.98316  1.0000 -0.1199633914
C   C50       1.0  0.17325  0.92295  0.48316  1.0000 -0.1199633914
C   C51       1.0  0.67325  0.57705  0.51684  1.0000 -0.1199633914
C   C52       1.0  0.82675  0.42295  0.01684  1.0000 -0.1199633914
C   C53       1.0  0.98316  0.32675  0.07705  1.0000 -0.1199633914
C   C54       1.0  0.48316  0.17325  0.92295  1.0000 -0.1199633914
C   C55       1.0  0.51684  0.67325  0.57705  1.0000 -0.1199633914
C   C56       1.0  0.01684  0.82675  0.42295  1.0000 -0.1199633914
C   C57       1.0  0.07705  0.98316  0.32675  1.0000 -0.1199633914
C   C58       1.0  0.92295  0.48316  0.17325  1.0000 -0.1199633914
C   C59       1.0  0.57705  0.51684  0.67325  1.0000 -0.1199633914
C   C60       1.0  0.42295  0.01684  0.82675  1.0000 -0.1199633914
C   C61       1.0  0.67325  0.92295  0.01684  1.0000 -0.1199633914
C   C62       1.0  0.82675  0.07705  0.51684  1.0000 -0.1199633914
C   C63       1.0  0.32675  0.42295  0.48316  1.0000 -0.1199633914
C   C64       1.0  0.17325  0.57705  0.98316  1.0000 -0.1199633914
C   C65       1.0  0.01684  0.67325  0.92295  1.0000 -0.1199633914
C   C66       1.0  0.51684  0.82675  0.07705  1.0000 -0.1199633914
C   C67       1.0  0.48316  0.32675  0.42295  1.0000 -0.1199633914
C   C68       1.0  0.98316  0.17325  0.57705  1.0000 -0.1199633914
C   C69       1.0  0.92295  0.01684  0.67325  1.0000 -0.1199633914
C   C70       1.0  0.07705  0.51684  0.82675  1.0000 -0.1199633914
C   C71       1.0  0.42295  0.48316  0.32675  1.0000 -0.1199633914
C   C72       1.0  0.57705  0.98316  0.17325  1.0000 -0.1199633914
C   C73       1.0  0.32040  0.10625  0.98858  1.0000 -0.0225597889
C   C74       1.0  0.17960  0.89375  0.48858  1.0000 -0.0225597889
C   C75       1.0  0.67960  0.60625  0.51142  1.0000 -0.0225597889
C   C76       1.0  0.82040  0.39375  0.01142  1.0000 -0.0225597889
C   C77       1.0  0.98858  0.32040  0.10625  1.0000 -0.0225597889
C   C78       1.0  0.48858  0.17960  0.89375  1.0000 -0.0225597889
C   C79       1.0  0.51142  0.67960  0.60625  1.0000 -0.0225597889
C   C80       1.0  0.01142  0.82040  0.39375  1.0000 -0.0225597889
C   C81       1.0  0.10625  0.98858  0.32040  1.0000 -0.0225597889
C   C82       1.0  0.89375  0.48858  0.17960  1.0000 -0.0225597889
C   C83       1.0  0.60625  0.51142  0.67960  1.0000 -0.0225597889
C   C84       1.0  0.39375  0.01142  0.82040  1.0000 -0.0225597889
C   C85       1.0  0.67960  0.89375  0.01142  1.0000 -0.0225597889
C   C86       1.0  0.82040  0.10625  0.51142  1.0000 -0.0225597889
C   C87       1.0  0.32040  0.39375  0.48858  1.0000 -0.0225597889
C   C88       1.0  0.17960  0.60625  0.98858  1.0000 -0.0225597889
C   C89       1.0  0.01142  0.67960  0.89375  1.0000 -0.0225597889
C   C90       1.0  0.51142  0.82040  0.10625  1.0000 -0.0225597889
C   C91       1.0  0.48858  0.32040  0.39375  1.0000 -0.0225597889
C   C92       1.0  0.98858  0.17960  0.60625  1.0000 -0.0225597889
C   C93       1.0  0.89375  0.01142  0.67960  1.0000 -0.0225597889
C   C94       1.0  0.10625  0.51142  0.82040  1.0000 -0.0225597889
C   C95       1.0  0.39375  0.48858  0.32040  1.0000 -0.0225597889
C   C96       1.0  0.60625  0.98858  0.17960  1.0000 -0.0225597889
C   C97       1.0  0.29232  0.11681  0.98390  1.0000 0.1193857385
C   C98       1.0  0.20768  0.88319  0.48390  1.0000 0.1193857385
C   C99       1.0  0.70768  0.61681  0.51610  1.0000 0.1193857385
C   C100      1.0  0.79232  0.38319  0.01610  1.0000 0.1193857385
C   C101      1.0  0.98390  0.29232  0.11681  1.0000 0.1193857385
C   C102      1.0  0.48390  0.20768  0.88319  1.0000 0.1193857385
C   C103      1.0  0.51610  0.70768  0.61681  1.0000 0.1193857385
C   C104      1.0  0.01610  0.79232  0.38319  1.0000 0.1193857385
C   C105      1.0  0.11681  0.98390  0.29232  1.0000 0.1193857385
C   C106      1.0  0.88319  0.48390  0.20768  1.0000 0.1193857385
C   C107      1.0  0.61681  0.51610  0.70768  1.0000 0.1193857385
C   C108      1.0  0.38319  0.01610  0.79232  1.0000 0.1193857385
C   C109      1.0  0.70768  0.88319  0.01610  1.0000 0.1193857385
C   C110      1.0  0.79232  0.11681  0.51610  1.0000 0.1193857385
C   C111      1.0  0.29232  0.38319  0.48390  1.0000 0.1193857385
C   C112      1.0  0.20768  0.61681  0.98390  1.0000 0.1193857385
C   C113      1.0  0.01610  0.70768  0.88319  1.0000 0.1193857385
C   C114      1.0  0.51610  0.79232  0.11681  1.0000 0.1193857385
C   C115      1.0  0.48390  0.29232  0.38319  1.0000 0.1193857385
C   C116      1.0  0.98390  0.20768  0.61681  1.0000 0.1193857385
C   C117      1.0  0.88319  0.01610  0.70768  1.0000 0.1193857385
C   C118      1.0  0.11681  0.51610  0.79232  1.0000 0.1193857385
C   C119      1.0  0.38319  0.48390  0.29232  1.0000 0.1193857385
C   C120      1.0  0.61681  0.98390  0.20768  1.0000 0.1193857385
C   C121      1.0  0.27060  0.09817  0.97370  1.0000 -0.1976215992
C   C122      1.0  0.22940  0.90183  0.47370  1.0000 -0.1976215992
C   C123      1.0  0.72940  0.59817  0.52630  1.0000 -0.1976215992
C   C124      1.0  0.77060  0.40183  0.02630  1.0000 -0.1976215992
C   C125      1.0  0.97370  0.27060  0.09817  1.0000 -0.1976215992
C   C126      1.0  0.47370  0.22940  0.90183  1.0000 -0.1976215992
C   C127      1.0  0.52630  0.72940  0.59817  1.0000 -0.1976215992
C   C128      1.0  0.02630  0.77060  0.40183  1.0000 -0.1976215992
C   C129      1.0  0.09817  0.97370  0.27060  1.0000 -0.1976215992
C   C130      1.0  0.90183  0.47370  0.22940  1.0000 -0.1976215992
C   C131      1.0  0.59817  0.52630  0.72940  1.0000 -0.1976215992
C   C132      1.0  0.40183  0.02630  0.77060  1.0000 -0.1976215992
C   C133      1.0  0.72940  0.90183  0.02630  1.0000 -0.1976215992
C   C134      1.0  0.77060  0.09817  0.52630  1.0000 -0.1976215992
C   C135      1.0  0.27060  0.40183  0.47370  1.0000 -0.1976215992
C   C136      1.0  0.22940  0.59817  0.97370  1.0000 -0.1976215992
C   C137      1.0  0.02630  0.72940  0.90183  1.0000 -0.1976215992
C   C138      1.0  0.52630  0.77060  0.09817  1.0000 -0.1976215992
C   C139      1.0  0.47370  0.27060  0.40183  1.0000 -0.1976215992
C   C140      1.0  0.97370  0.22940  0.59817  1.0000 -0.1976215992
C   C141      1.0  0.90183  0.02630  0.72940  1.0000 -0.1976215992
C   C142      1.0  0.09817  0.52630  0.77060  1.0000 -0.1976215992
C   C143      1.0  0.40183  0.47370  0.27060  1.0000 -0.1976215992
C   C144      1.0  0.59817  0.97370  0.22940  1.0000 -0.1976215992
C   C145      1.0  0.27695  0.06897  0.96830  1.0000 -0.0812096755
C   C146      1.0  0.22305  0.93103  0.46830  1.0000 -0.0812096755
C   C147      1.0  0.72305  0.56897  0.53170  1.0000 -0.0812096755
C   C148      1.0  0.77695  0.43103  0.03170  1.0000 -0.0812096755
C   C149      1.0  0.96830  0.27695  0.06897  1.0000 -0.0812096755
C   C150      1.0  0.46830  0.22305  0.93103  1.0000 -0.0812096755
C   C151      1.0  0.53170  0.72305  0.56897  1.0000 -0.0812096755
C   C152      1.0  0.03170  0.77695  0.43103  1.0000 -0.0812096755
C   C153      1.0  0.06897  0.96830  0.27695  1.0000 -0.0812096755
C   C154      1.0  0.93103  0.46830  0.22305  1.0000 -0.0812096755
C   C155      1.0  0.56897  0.53170  0.72305  1.0000 -0.0812096755
C   C156      1.0  0.43103  0.03170  0.77695  1.0000 -0.0812096755
C   C157      1.0  0.72305  0.93103  0.03170  1.0000 -0.0812096755
C   C158      1.0  0.77695  0.06897  0.53170  1.0000 -0.0812096755
C   C159      1.0  0.27695  0.43103  0.46830  1.0000 -0.0812096755
C   C160      1.0  0.22305  0.56897  0.96830  1.0000 -0.0812096755
C   C161      1.0  0.03170  0.72305  0.93103  1.0000 -0.0812096755
C   C162      1.0  0.53170  0.77695  0.06897  1.0000 -0.0812096755
C   C163      1.0  0.46830  0.27695  0.43103  1.0000 -0.0812096755
C   C164      1.0  0.96830  0.22305  0.56897  1.0000 -0.0812096755
C   C165      1.0  0.93103  0.03170  0.72305  1.0000 -0.0812096755
C   C166      1.0  0.06897  0.53170  0.77695  1.0000 -0.0812096755
C   C167      1.0  0.43103  0.46830  0.27695  1.0000 -0.0812096755
C   C168      1.0  0.56897  0.96830  0.22305  1.0000 -0.0812096755
C   C169      1.0  0.37633  0.16340  0.01230  1.0000 -0.0881123068
C   C170      1.0  0.12367  0.83660  0.51230  1.0000 -0.0881123068
C   C171      1.0  0.62367  0.66340  0.48770  1.0000 -0.0881123068
C   C172      1.0  0.87633  0.33660  0.98770  1.0000 -0.0881123068
C   C173      1.0  0.01230  0.37633  0.16340  1.0000 -0.0881123068
C   C174      1.0  0.51230  0.12367  0.83660  1.0000 -0.0881123068
C   C175      1.0  0.48770  0.62367  0.66340  1.0000 -0.0881123068
C   C176      1.0  0.98770  0.87633  0.33660  1.0000 -0.0881123068
C   C177      1.0  0.16340  0.01230  0.37633  1.0000 -0.0881123068
C   C178      1.0  0.83660  0.51230  0.12367  1.0000 -0.0881123068
C   C179      1.0  0.66340  0.48770  0.62367  1.0000 -0.0881123068
C   C180      1.0  0.33660  0.98770  0.87633  1.0000 -0.0881123068
C   C181      1.0  0.62367  0.83660  0.98770  1.0000 -0.0812096755
C   C182      1.0  0.87633  0.16340  0.48770  1.0000 -0.0881123068
C   C183      1.0  0.37633  0.33660  0.51230  1.0000 -0.0881123068
C   C184      1.0  0.12367  0.66340  0.01230  1.0000 -0.0881123068
C   C185      1.0  0.98770  0.62367  0.83660  1.0000 -0.0812096755
C   C186      1.0  0.48770  0.87633  0.16340  1.0000 -0.0881123068
C   C187      1.0  0.51230  0.37633  0.33660  1.0000 -0.0881123068
C   C188      1.0  0.01230  0.12367  0.66340  1.0000 -0.0881123068
C   C189      1.0  0.83660  0.98770  0.62367  1.0000 -0.0812096755
C   C190      1.0  0.16340  0.48770  0.87633  1.0000 -0.0881123068
C   C191      1.0  0.33660  0.51230  0.37633  1.0000 -0.0881123068
C   C192      1.0  0.66340  0.01230  0.12367  1.0000 -0.0812096755
C   C193      1.0  0.36636  0.13583  0.00448  1.0000 -0.0881123068
C   C194      1.0  0.13364  0.86417  0.50448  1.0000 -0.0881123068
C   C195      1.0  0.63364  0.63583  0.49552  1.0000 -0.0881123068
C   C196      1.0  0.86636  0.36417  0.99552  1.0000 -0.0881123068
C   C197      1.0  0.00448  0.36636  0.13583  1.0000 -0.0881123068
C   C198      1.0  0.50448  0.13364  0.86417  1.0000 -0.0881123068
C   C199      1.0  0.49552  0.63364  0.63583  1.0000 -0.0881123068
C   C200      1.0  0.99552  0.86636  0.36417  1.0000 -0.0881123068
C   C201      1.0  0.13583  0.00448  0.36636  1.0000 -0.0881123068
C   C202      1.0  0.86417  0.50448  0.13364  1.0000 -0.0881123068
C   C203      1.0  0.63583  0.49552  0.63364  1.0000 -0.0881123068
C   C204      1.0  0.36417  0.99552  0.86636  1.0000 -0.0881123068
C   C205      1.0  0.63364  0.86417  0.99552  1.0000 -0.0881123068
C   C206      1.0  0.86636  0.13583  0.49552  1.0000 -0.0881123068
C   C207      1.0  0.36636  0.36417  0.50448  1.0000 -0.0881123068
C   C208      1.0  0.13364  0.63583  0.00448  1.0000 -0.0881123068
C   C209      1.0  0.99552  0.63364  0.86417  1.0000 -0.0881123068
C   C210      1.0  0.49552  0.86636  0.13583  1.0000 -0.0881123068
C   C211      1.0  0.50448  0.36636  0.36417  1.0000 -0.0881123068
C   C212      1.0  0.00448  0.13364  0.63583  1.0000 -0.0881123068
C   C213      1.0  0.86417  0.99552  0.63364  1.0000 -0.0881123068
C   C214      1.0  0.13583  0.49552  0.86636  1.0000 -0.0881123068
C   C215      1.0  0.36417  0.50448  0.36636  1.0000 -0.0881123068
C   C216      1.0  0.63583  0.00448  0.13364  1.0000 -0.0881123068
C   C217      1.0  0.33707  0.13166  0.99758  1.0000 -0.0382229571
C   C218      1.0  0.16293  0.86834  0.49758  1.0000 -0.0382229571
C   C219      1.0  0.66293  0.63166  0.50242  1.0000 -0.0382229571
C   C220      1.0  0.83707  0.36834  0.00242  1.0000 -0.0382229571
C   C221      1.0  0.99758  0.33707  0.13166  1.0000 -0.0382229571
C   C222      1.0  0.49758  0.16293  0.86834  1.0000 -0.0382229571
C   C223      1.0  0.50242  0.66293  0.63166  1.0000 -0.0382229571
C   C224      1.0  0.00242  0.83707  0.36834  1.0000 -0.0382229571
C   C225      1.0  0.13166  0.99758  0.33707  1.0000 -0.0382229571
C   C226      1.0  0.86834  0.49758  0.16293  1.0000 -0.0382229571
C   C227      1.0  0.63166  0.50242  0.66293  1.0000 -0.0382229571
C   C228      1.0  0.36834  0.00242  0.83707  1.0000 -0.0382229571
C   C229      1.0  0.66293  0.86834  0.00242  1.0000 -0.0382229571
C   C230      1.0  0.83707  0.13166  0.50242  1.0000 -0.0382229571
C   C231      1.0  0.33707  0.36834  0.49758  1.0000 -0.0382229571
C   C232      1.0  0.16293  0.63166  0.99758  1.0000 -0.0382229571
C   C233      1.0  0.00242  0.66293  0.86834  1.0000 -0.0382229571
C   C234      1.0  0.50242  0.83707  0.13166  1.0000 -0.0382229571
C   C235      1.0  0.49758  0.33707  0.36834  1.0000 -0.0382229571
C   C236      1.0  0.99758  0.16293  0.63166  1.0000 -0.0382229571
C   C237      1.0  0.86834  0.00242  0.66293  1.0000 -0.0382229571
C   C238      1.0  0.13166  0.50242  0.83707  1.0000 -0.0382229571
C   C239      1.0  0.36834  0.49758  0.33707  1.0000 -0.0382229571
C   C240      1.0  0.63166  0.99758  0.16293  1.0000 -0.0382229571
C   C241      1.0  0.31777  0.15509  0.99850  1.0000 0.1650267954
C   C242      1.0  0.18223  0.84491  0.49850  1.0000 0.1644968207
C   C243      1.0  0.68223  0.65509  0.50150  1.0000 0.1644968207
C   C244      1.0  0.81777  0.34491  0.00150  1.0000 0.1644968207
C   C245      1.0  0.99850  0.31777  0.15509  1.0000 0.1644968207
C   C246      1.0  0.49850  0.18223  0.84491  1.0000 0.1650267954
C   C247      1.0  0.50150  0.68223  0.65509  1.0000 0.1644968207
C   C248      1.0  0.00150  0.81777  0.34491  1.0000 0.1644968207
C   C249      1.0  0.15509  0.99850  0.31777  1.0000 0.1644968207
C   C250      1.0  0.84491  0.49850  0.18223  1.0000 0.1650267954
C   C251      1.0  0.65509  0.50150  0.68223  1.0000 0.1650267954
C   C252      1.0  0.34491  0.00150  0.81777  1.0000 0.1644968207
C   C253      1.0  0.68223  0.84491  0.00150  1.0000 0.1644968207
C   C254      1.0  0.81777  0.15509  0.50150  1.0000 0.1644968207
C   C255      1.0  0.31777  0.34491  0.49850  1.0000 0.1644968207
C   C256      1.0  0.18223  0.65509  0.99850  1.0000 0.1650267954
C   C257      1.0  0.00150  0.68223  0.84491  1.0000 0.1644968207
C   C258      1.0  0.50150  0.81777  0.15509  1.0000 0.1644968207
C   C259      1.0  0.49850  0.31777  0.34491  1.0000 0.1644968207
C   C260      1.0  0.99850  0.18223  0.65509  1.0000 0.1650267954
C   C261      1.0  0.84491  0.00150  0.68223  1.0000 0.1644968207
C   C262      1.0  0.15509  0.50150  0.81777  1.0000 0.1644968207
C   C263      1.0  0.34491  0.49850  0.31777  1.0000 0.1644968207
C   C264      1.0  0.65509  0.99850  0.18223  1.0000 0.1644968207
C   C265      1.0  0.32775  0.18269  0.00630  1.0000 -0.2186703927
C   C266      1.0  0.17225  0.81731  0.50630  1.0000 -0.2186703927
C   C267      1.0  0.67225  0.68269  0.49370  1.0000 -0.2186703927
C   C268      1.0  0.82775  0.31731  0.99370  1.0000 -0.2186703927
C   C269      1.0  0.00630  0.32775  0.18269  1.0000 -0.2186703927
C   C270      1.0  0.50630  0.17225  0.81731  1.0000 -0.2186703927
C   C271      1.0  0.49370  0.67225  0.68269  1.0000 -0.2186703927
C   C272      1.0  0.99370  0.82775  0.31731  1.0000 -0.2186703927
C   C273      1.0  0.18269  0.00630  0.32775  1.0000 -0.2186703927
C   C274      1.0  0.81731  0.50630  0.17225  1.0000 -0.2186703927
C   C275      1.0  0.68269  0.49370  0.67225  1.0000 -0.2186703927
C   C276      1.0  0.31731  0.99370  0.82775  1.0000 -0.2186703927
C   C277      1.0  0.67225  0.81731  0.99370  1.0000 -0.2186703927
C   C278      1.0  0.82775  0.18269  0.49370  1.0000 -0.2186703927
C   C279      1.0  0.32775  0.31731  0.50630  1.0000 -0.2186703927
C   C280      1.0  0.17225  0.68269  0.00630  1.0000 -0.2186703927
C   C281      1.0  0.99370  0.67225  0.81731  1.0000 -0.2186703927
C   C282      1.0  0.49370  0.82775  0.18269  1.0000 -0.2186703927
C   C283      1.0  0.50630  0.32775  0.31731  1.0000 -0.2186703927
C   C284      1.0  0.00630  0.17225  0.68269  1.0000 -0.2186703927
C   C285      1.0  0.81731  0.99370  0.67225  1.0000 -0.2186703927
C   C286      1.0  0.18269  0.49370  0.82775  1.0000 -0.2186703927
C   C287      1.0  0.31731  0.50630  0.32775  1.0000 -0.2186703927
C   C288      1.0  0.68269  0.00630  0.17225  1.0000 -0.2186703927
C   C289      1.0  0.35703  0.18685  0.01320  1.0000 -0.0556306642
C   C290      1.0  0.14297  0.81315  0.51320  1.0000 -0.0556306642
C   C291      1.0  0.64297  0.68685  0.48680  1.0000 -0.0556306642
C   C292      1.0  0.85703  0.31315  0.98680  1.0000 -0.0556306642
C   C293      1.0  0.01320  0.35703  0.18685  1.0000 -0.0556306642
C   C294      1.0  0.51320  0.14297  0.81315  1.0000 -0.0556306642
C   C295      1.0  0.48680  0.64297  0.68685  1.0000 -0.0556306642
C   C296      1.0  0.98680  0.85703  0.31315  1.0000 -0.0556306642
C   C297      1.0  0.18685  0.01320  0.35703  1.0000 -0.0556306642
C   C298      1.0  0.81315  0.51320  0.14297  1.0000 -0.0556306642
C   C299      1.0  0.68685  0.48680  0.64297  1.0000 -0.0556306642
C   C300      1.0  0.31315  0.98680  0.85703  1.0000 -0.0556306642
C   C301      1.0  0.64297  0.81315  0.98680  1.0000 -0.0556306642
C   C302      1.0  0.85703  0.18685  0.48680  1.0000 -0.0556306642
C   C303      1.0  0.35703  0.31315  0.51320  1.0000 -0.0556306642
C   C304      1.0  0.14297  0.68685  0.01320  1.0000 -0.0556306642
C   C305      1.0  0.98680  0.64297  0.81315  1.0000 -0.0556306642
C   C306      1.0  0.48680  0.85703  0.18685  1.0000 -0.0556306642
C   C307      1.0  0.51320  0.35703  0.31315  1.0000 -0.0556306642
C   C308      1.0  0.01320  0.14297  0.68685  1.0000 -0.0556306642
C   C309      1.0  0.81315  0.98680  0.64297  1.0000 -0.0556306642
C   C310      1.0  0.18685  0.48680  0.85703  1.0000 -0.0556306642
C   C311      1.0  0.31315  0.51320  0.35703  1.0000 -0.0556306642
C   C312      1.0  0.68685  0.01320  0.14297  1.0000 -0.0556306642
C   C313      1.0  0.38540  0.95678  0.15879  1.0000 -0.0382229571
C   C314      1.0  0.11460  0.04322  0.65879  1.0000 -0.0382229571
C   C315      1.0  0.61460  0.45678  0.34121  1.0000 -0.0382229571
C   C316      1.0  0.88540  0.54322  0.84121  1.0000 -0.0382229571
C   C317      1.0  0.15879  0.38540  0.95678  1.0000 -0.0382229571
C   C318      1.0  0.65879  0.11460  0.04322  1.0000 -0.0382229571
C   C319      1.0  0.34121  0.61460  0.45678  1.0000 -0.0382229571
C   C320      1.0  0.84121  0.88540  0.54322  1.0000 -0.0382229571
C   C321      1.0  0.95678  0.15879  0.38540  1.0000 -0.0382229571
C   C322      1.0  0.04322  0.65879  0.11460  1.0000 -0.0382229571
C   C323      1.0  0.45678  0.34121  0.61460  1.0000 -0.0382229571
C   C324      1.0  0.54322  0.84121  0.88540  1.0000 -0.0382229571
C   C325      1.0  0.61460  0.04322  0.84121  1.0000 -0.0382229571
C   C326      1.0  0.88540  0.95678  0.34121  1.0000 -0.0382229571
C   C327      1.0  0.38540  0.54322  0.65879  1.0000 -0.0382229571
C   C328      1.0  0.11460  0.45678  0.15879  1.0000 -0.0382229571
C   C329      1.0  0.84121  0.61460  0.04322  1.0000 -0.0382229571
C   C330      1.0  0.34121  0.88540  0.95678  1.0000 -0.0382229571
C   C331      1.0  0.65879  0.38540  0.54322  1.0000 -0.0382229571
C   C332      1.0  0.15879  0.11460  0.45678  1.0000 -0.0382229571
C   C333      1.0  0.04322  0.84121  0.61460  1.0000 -0.0382229571
C   C334      1.0  0.95678  0.34121  0.88540  1.0000 -0.0382229571
C   C335      1.0  0.54322  0.65879  0.38540  1.0000 -0.0382229571
C   C336      1.0  0.45678  0.15879  0.11460  1.0000 -0.0382229571
C   C337      1.0  0.37452  0.95849  0.13049  1.0000 -0.1199633914
C   C338      1.0  0.12548  0.04151  0.63049  1.0000 -0.1199633914
C   C339      1.0  0.62548  0.45849  0.36951  1.0000 -0.1199633914
C   C340      1.0  0.87452  0.54151  0.86951  1.0000 -0.1199633914
C   C341      1.0  0.13049  0.37452  0.95849  1.0000 -0.1199633914
C   C342      1.0  0.63049  0.12548  0.04151  1.0000 -0.1199633914
C   C343      1.0  0.36951  0.62548  0.45849  1.0000 -0.1199633914
C   C344      1.0  0.86951  0.87452  0.54151  1.0000 -0.1199633914
C   C345      1.0  0.95849  0.13049  0.37452  1.0000 -0.1199633914
C   C346      1.0  0.04151  0.63049  0.12548  1.0000 -0.1199633914
C   C347      1.0  0.45849  0.36951  0.62548  1.0000 -0.1199633914
C   C348      1.0  0.54151  0.86951  0.87452  1.0000 -0.1199633914
C   C349      1.0  0.62548  0.04151  0.86951  1.0000 -0.1199633914
C   C350      1.0  0.87452  0.95849  0.36951  1.0000 -0.1199633914
C   C351      1.0  0.37452  0.54151  0.63049  1.0000 -0.1199633914
C   C352      1.0  0.12548  0.45849  0.13049  1.0000 -0.1199633914
C   C353      1.0  0.86951  0.62548  0.04151  1.0000 -0.1199633914
C   C354      1.0  0.36951  0.87452  0.95849  1.0000 -0.1199633914
C   C355      1.0  0.63049  0.37452  0.54151  1.0000 -0.1199633914
C   C356      1.0  0.13049  0.12548  0.45849  1.0000 -0.1199633914
C   C357      1.0  0.04151  0.86951  0.62548  1.0000 -0.1199633914
C   C358      1.0  0.95849  0.36951  0.87452  1.0000 -0.1199633914
C   C359      1.0  0.54151  0.63049  0.37452  1.0000 -0.1199633914
C   C360      1.0  0.45849  0.13049  0.12548  1.0000 -0.1199633914
C   C361      1.0  0.34452  0.95869  0.12574  1.0000 -0.0329697918
C   C362      1.0  0.15548  0.04131  0.62574  1.0000 -0.0329697918
C   C363      1.0  0.65548  0.45869  0.37426  1.0000 -0.0329697918
C   C364      1.0  0.84452  0.54131  0.87426  1.0000 -0.0329697918
C   C365      1.0  0.12574  0.34452  0.95869  1.0000 -0.0329697918
C   C366      1.0  0.62574  0.15548  0.04131  1.0000 -0.0329697918
C   C367      1.0  0.37426  0.65548  0.45869  1.0000 -0.0329697918
C   C368      1.0  0.87426  0.84452  0.54131  1.0000 -0.0329697918
C   C369      1.0  0.95869  0.12574  0.34452  1.0000 -0.0329697918
C   C370      1.0  0.04131  0.62574  0.15548  1.0000 -0.0329697918
C   C371      1.0  0.45869  0.37426  0.65548  1.0000 -0.0329697918
C   C372      1.0  0.54131  0.87426  0.84452  1.0000 -0.0329697918
C   C373      1.0  0.65548  0.04131  0.87426  1.0000 -0.0329697918
C   C374      1.0  0.84452  0.95869  0.37426  1.0000 -0.0329697918
C   C375      1.0  0.34452  0.54131  0.62574  1.0000 -0.0329697918
C   C376      1.0  0.15548  0.45869  0.12574  1.0000 -0.0329697918
C   C377      1.0  0.87426  0.65548  0.04131  1.0000 -0.0329697918
C   C378      1.0  0.37426  0.84452  0.95869  1.0000 -0.0329697918
C   C379      1.0  0.62574  0.34452  0.54131  1.0000 -0.0329697918
C   C380      1.0  0.12574  0.15548  0.45869  1.0000 -0.0329697918
C   C381      1.0  0.04131  0.87426  0.65548  1.0000 -0.0329697918
C   C382      1.0  0.95869  0.37426  0.84452  1.0000 -0.0329697918
C   C383      1.0  0.54131  0.62574  0.34452  1.0000 -0.0329697918
C   C384      1.0  0.45869  0.12574  0.15548  1.0000 -0.0329697918
C   C385      1.0  0.32541  0.95720  0.14929  1.0000 0.1405807626
C   C386      1.0  0.17459  0.04280  0.64929  1.0000 0.1405807626
C   C387      1.0  0.67459  0.45720  0.35071  1.0000 0.1405807626
C   C388      1.0  0.82541  0.54280  0.85071  1.0000 0.1405807626
C   C389      1.0  0.14929  0.32541  0.95720  1.0000 0.1405807626
C   C390      1.0  0.64929  0.17459  0.04280  1.0000 0.1405807626
C   C391      1.0  0.35071  0.67459  0.45720  1.0000 0.1405807626
C   C392      1.0  0.85071  0.82541  0.54280  1.0000 0.1405807626
C   C393      1.0  0.95720  0.14929  0.32541  1.0000 0.1405807626
C   C394      1.0  0.04280  0.64929  0.17459  1.0000 0.1405807626
C   C395      1.0  0.45720  0.35071  0.67459  1.0000 0.1405807626
C   C396      1.0  0.54280  0.85071  0.82541  1.0000 0.1405807626
C   C397      1.0  0.67459  0.04280  0.85071  1.0000 0.1405807626
C   C398      1.0  0.82541  0.95720  0.35071  1.0000 0.1405807626
C   C399      1.0  0.32541  0.54280  0.64929  1.0000 0.1405807626
C   C400      1.0  0.17459  0.45720  0.14929  1.0000 0.1405807626
C   C401      1.0  0.85071  0.67459  0.04280  1.0000 0.1405807626
C   C402      1.0  0.35071  0.82541  0.95720  1.0000 0.1405807626
C   C403      1.0  0.64929  0.32541  0.54280  1.0000 0.1405807626
C   C404      1.0  0.14929  0.17459  0.45720  1.0000 0.1405807626
C   C405      1.0  0.04280  0.85071  0.67459  1.0000 0.1405807626
C   C406      1.0  0.95720  0.35071  0.82541  1.0000 0.1405807626
C   C407      1.0  0.54280  0.64929  0.32541  1.0000 0.1405807626
C   C408      1.0  0.45720  0.14929  0.17459  1.0000 0.1405807626
C   C409      1.0  0.33629  0.95550  0.17759  1.0000 -0.2068579895
C   C410      1.0  0.16371  0.04450  0.67759  1.0000 -0.2068579895
C   C411      1.0  0.66371  0.45550  0.32241  1.0000 -0.2068579895
C   C412      1.0  0.83629  0.54450  0.82241  1.0000 -0.2068579895
C   C413      1.0  0.17759  0.33629  0.95550  1.0000 -0.2068579895
C   C414      1.0  0.67759  0.16371  0.04450  1.0000 -0.2068579895
C   C415      1.0  0.32241  0.66371  0.45550  1.0000 -0.2068579895
C   C416      1.0  0.82241  0.83629  0.54450  1.0000 -0.2068579895
C   C417      1.0  0.95550  0.17759  0.33629  1.0000 -0.2068579895
C   C418      1.0  0.04450  0.67759  0.16371  1.0000 -0.2068579895
C   C419      1.0  0.45550  0.32241  0.66371  1.0000 -0.2068579895
C   C420      1.0  0.54450  0.82241  0.83629  1.0000 -0.2068579895
C   C421      1.0  0.66371  0.04450  0.82241  1.0000 -0.2068579895
C   C422      1.0  0.83629  0.95550  0.32241  1.0000 -0.2068579895
C   C423      1.0  0.33629  0.54450  0.67759  1.0000 -0.2068579895
C   C424      1.0  0.16371  0.45550  0.17759  1.0000 -0.2068579895
C   C425      1.0  0.82241  0.66371  0.04450  1.0000 -0.2068579895
C   C426      1.0  0.32241  0.83629  0.95550  1.0000 -0.2068579895
C   C427      1.0  0.67759  0.33629  0.54450  1.0000 -0.2068579895
C   C428      1.0  0.17759  0.16371  0.45550  1.0000 -0.2068579895
C   C429      1.0  0.04450  0.82241  0.66371  1.0000 -0.2068579895
C   C430      1.0  0.95550  0.32241  0.83629  1.0000 -0.2068579895
C   C431      1.0  0.54450  0.67759  0.33629  1.0000 -0.2068579895
C   C432      1.0  0.45550  0.17759  0.16371  1.0000 -0.2068579895
C   C433      1.0  0.36628  0.95530  0.18234  1.0000 -0.0742168136
C   C434      1.0  0.13372  0.04470  0.68234  1.0000 -0.0742168136
C   C435      1.0  0.63372  0.45530  0.31766  1.0000 -0.0742168136
C   C436      1.0  0.86628  0.54470  0.81766  1.0000 -0.0742168136
C   C437      1.0  0.18234  0.36628  0.95530  1.0000 -0.0742168136
C   C438      1.0  0.68234  0.13372  0.04470  1.0000 -0.0742168136
C   C439      1.0  0.31766  0.63372  0.45530  1.0000 -0.0742168136
C   C440      1.0  0.81766  0.86628  0.54470  1.0000 -0.0742168136
C   C441      1.0  0.95530  0.18234  0.36628  1.0000 -0.0742168136
C   C442      1.0  0.04470  0.68234  0.13372  1.0000 -0.0742168136
C   C443      1.0  0.45530  0.31766  0.63372  1.0000 -0.0742168136
C   C444      1.0  0.54470  0.81766  0.86628  1.0000 -0.0742168136
C   C445      1.0  0.63372  0.04470  0.81766  1.0000 -0.0742168136
C   C446      1.0  0.86628  0.95530  0.31766  1.0000 -0.0742168136
C   C447      1.0  0.36628  0.54470  0.68234  1.0000 -0.0742168136
C   C448      1.0  0.13372  0.45530  0.18234  1.0000 -0.0742168136
C   C449      1.0  0.81766  0.63372  0.04470  1.0000 -0.0742168136
C   C450      1.0  0.31766  0.86628  0.95530  1.0000 -0.0742168136
C   C451      1.0  0.68234  0.36628  0.54470  1.0000 -0.0742168136
C   C452      1.0  0.18234  0.13372  0.45530  1.0000 -0.0742168136
C   C453      1.0  0.04470  0.81766  0.63372  1.0000 -0.0742168136
C   C454      1.0  0.95530  0.31766  0.86628  1.0000 -0.0742168136
C   C455      1.0  0.54470  0.68234  0.36628  1.0000 -0.0742168136
C   C456      1.0  0.45530  0.18234  0.13372  1.0000 -0.0742168136
C   C457      1.0  0.31420  0.96780  0.01920  1.0000 0.559021087
C   C458      1.0  0.18580  0.03220  0.51920  1.0000 0.559021087
C   C459      1.0  0.68580  0.46780  0.48080  1.0000 0.559021087
C   C460      1.0  0.81420  0.53220  0.98080  1.0000 0.559021087
C   C461      1.0  0.01920  0.31420  0.96780  1.0000 0.559021087
C   C462      1.0  0.51920  0.18580  0.03220  1.0000 0.559021087
C   C463      1.0  0.48080  0.68580  0.46780  1.0000 0.559021087
C   C464      1.0  0.98080  0.81420  0.53220  1.0000 0.559021087
C   C465      1.0  0.96780  0.01920  0.31420  1.0000 0.559021087
C   C466      1.0  0.03220  0.51920  0.18580  1.0000 0.559021087
C   C467      1.0  0.46780  0.48080  0.68580  1.0000 0.559021087
C   C468      1.0  0.53220  0.98080  0.81420  1.0000 0.559021087
C   C469      1.0  0.68580  0.03220  0.98080  1.0000 0.559021087
C   C470      1.0  0.81420  0.96780  0.48080  1.0000 0.559021087
C   C471      1.0  0.31420  0.53220  0.51920  1.0000 0.559021087
C   C472      1.0  0.18580  0.46780  0.01920  1.0000 0.559021087
C   C473      1.0  0.98080  0.68580  0.03220  1.0000 0.559021087
C   C474      1.0  0.48080  0.81420  0.96780  1.0000 0.559021087
C   C475      1.0  0.51920  0.31420  0.53220  1.0000 0.559021087
C   C476      1.0  0.01920  0.18580  0.46780  1.0000 0.559021087
C   C477      1.0  0.03220  0.98080  0.68580  1.0000 0.559021087
C   C478      1.0  0.96780  0.48080  0.81420  1.0000 0.559021087
C   C479      1.0  0.53220  0.51920  0.31420  1.0000 0.559021087
C   C480      1.0  0.46780  0.01920  0.18580  1.0000 0.559021087
C   C481      1.0  0.30920  0.96270  0.05037  1.0000 -0.0382229571
C   C482      1.0  0.19080  0.03730  0.55037  1.0000 -0.0382229571
C   C483      1.0  0.69080  0.46270  0.44963  1.0000 -0.0382229571
C   C484      1.0  0.80920  0.53730  0.94963  1.0000 -0.0382229571
C   C485      1.0  0.05037  0.30920  0.96270  1.0000 -0.0382229571
C   C486      1.0  0.55037  0.19080  0.03730  1.0000 -0.0382229571
C   C487      1.0  0.44963  0.69080  0.46270  1.0000 -0.0382229571
C   C488      1.0  0.94963  0.80920  0.53730  1.0000 -0.0382229571
C   C489      1.0  0.96270  0.05037  0.30920  1.0000 -0.0382229571
C   C490      1.0  0.03730  0.55037  0.19080  1.0000 -0.0382229571
C   C491      1.0  0.46270  0.44963  0.69080  1.0000 -0.0382229571
C   C492      1.0  0.53730  0.94963  0.80920  1.0000 -0.0382229571
C   C493      1.0  0.69080  0.03730  0.94963  1.0000 -0.0382229571
C   C494      1.0  0.80920  0.96270  0.44963  1.0000 -0.0382229571
C   C495      1.0  0.30920  0.53730  0.55037  1.0000 -0.0382229571
C   C496      1.0  0.19080  0.46270  0.05037  1.0000 -0.0382229571
C   C497      1.0  0.94963  0.69080  0.03730  1.0000 -0.0382229571
C   C498      1.0  0.44963  0.80920  0.96270  1.0000 -0.0382229571
C   C499      1.0  0.55037  0.30920  0.53730  1.0000 -0.0382229571
C   C500      1.0  0.05037  0.19080  0.46270  1.0000 -0.0382229571
C   C501      1.0  0.03730  0.94963  0.69080  1.0000 -0.0382229571
C   C502      1.0  0.96270  0.44963  0.80920  1.0000 -0.0382229571
C   C503      1.0  0.53730  0.55037  0.30920  1.0000 -0.0382229571
C   C504      1.0  0.46270  0.05037  0.19080  1.0000 -0.0382229571
C   C505      1.0  0.28048  0.96310  0.06031  1.0000 -0.0881123068
C   C506      1.0  0.21952  0.03690  0.56031  1.0000 -0.0881123068
C   C507      1.0  0.71952  0.46310  0.43969  1.0000 -0.0881123068
C   C508      1.0  0.78048  0.53690  0.93969  1.0000 -0.0881123068
C   C509      1.0  0.06031  0.28048  0.96310  1.0000 -0.0881123068
C   C510      1.0  0.56031  0.21952  0.03690  1.0000 -0.0881123068
C   C511      1.0  0.43969  0.71952  0.46310  1.0000 -0.0881123068
C   C512      1.0  0.93969  0.78048  0.53690  1.0000 -0.0881123068
C   C513      1.0  0.96310  0.06031  0.28048  1.0000 -0.0881123068
C   C514      1.0  0.03690  0.56031  0.21952  1.0000 -0.0881123068
C   C515      1.0  0.46310  0.43969  0.71952  1.0000 -0.0881123068
C   C516      1.0  0.53690  0.93969  0.78048  1.0000 -0.0881123068
C   C517      1.0  0.71952  0.03690  0.93969  1.0000 -0.0881123068
C   C518      1.0  0.78048  0.96310  0.43969  1.0000 -0.0881123068
C   C519      1.0  0.28048  0.53690  0.56031  1.0000 -0.0881123068
C   C520      1.0  0.21952  0.46310  0.06031  1.0000 -0.0881123068
C   C521      1.0  0.93969  0.71952  0.03690  1.0000 -0.0881123068
C   C522      1.0  0.43969  0.78048  0.96310  1.0000 -0.0881123068
C   C523      1.0  0.56031  0.28048  0.53690  1.0000 -0.0881123068
C   C524      1.0  0.06031  0.21952  0.46310  1.0000 -0.0881123068
C   C525      1.0  0.03690  0.93969  0.71952  1.0000 -0.0881123068
C   C526      1.0  0.96310  0.43969  0.78048  1.0000 -0.0881123068
C   C527      1.0  0.53690  0.56031  0.28048  1.0000 -0.0881123068
C   C528      1.0  0.46310  0.06031  0.21952  1.0000 -0.0881123068
C   C529      1.0  0.27472  0.96220  0.09011  1.0000 -0.1903604378
C   C530      1.0  0.22528  0.03780  0.59011  1.0000 -0.1903604378
C   C531      1.0  0.72528  0.46220  0.40989  1.0000 -0.1903604378
C   C532      1.0  0.77472  0.53780  0.90989  1.0000 -0.1903604378
C   C533      1.0  0.09011  0.27472  0.96220  1.0000 -0.1903604378
C   C534      1.0  0.59011  0.22528  0.03780  1.0000 -0.1903604378
C   C535      1.0  0.40989  0.72528  0.46220  1.0000 -0.1903604378
C   C536      1.0  0.90989  0.77472  0.53780  1.0000 -0.1903604378
C   C537      1.0  0.96220  0.09011  0.27472  1.0000 -0.1903604378
C   C538      1.0  0.03780  0.59011  0.22528  1.0000 -0.1903604378
C   C539      1.0  0.46220  0.40989  0.72528  1.0000 -0.1903604378
C   C540      1.0  0.53780  0.90989  0.77472  1.0000 -0.1903604378
C   C541      1.0  0.72528  0.03780  0.90989  1.0000 -0.1903604378
C   C542      1.0  0.77472  0.96220  0.40989  1.0000 -0.1903604378
C   C543      1.0  0.27472  0.53780  0.59011  1.0000 -0.1903604378
C   C544      1.0  0.22528  0.46220  0.09011  1.0000 -0.1903604378
C   C545      1.0  0.90989  0.72528  0.03780  1.0000 -0.1903604378
C   C546      1.0  0.40989  0.77472  0.96220  1.0000 -0.1903604378
C   C547      1.0  0.59011  0.27472  0.53780  1.0000 -0.1903604378
C   C548      1.0  0.09011  0.22528  0.46220  1.0000 -0.1903604378
C   C549      1.0  0.03780  0.90989  0.72528  1.0000 -0.1903604378
C   C550      1.0  0.96220  0.40989  0.77472  1.0000 -0.1903604378
C   C551      1.0  0.53780  0.59011  0.27472  1.0000 -0.1903604378
C   C552      1.0  0.46220  0.09011  0.22528  1.0000 -0.1903604378
C   C553      1.0  0.29765  0.96090  0.10998  1.0000 0.1012051465
C   C554      1.0  0.20235  0.03910  0.60998  1.0000 0.1012051465
C   C555      1.0  0.70235  0.46090  0.39002  1.0000 0.1012051465
C   C556      1.0  0.79765  0.53910  0.89002  1.0000 0.1012051465
C   C557      1.0  0.10998  0.29765  0.96090  1.0000 0.1012051465
C   C558      1.0  0.60998  0.20235  0.03910  1.0000 0.1012051465
C   C559      1.0  0.39002  0.70235  0.46090  1.0000 0.1012051465
C   C560      1.0  0.89002  0.79765  0.53910  1.0000 0.1012051465
C   C561      1.0  0.96090  0.10998  0.29765  1.0000 0.1012051465
C   C562      1.0  0.03910  0.60998  0.20235  1.0000 0.1012051465
C   C563      1.0  0.46090  0.39002  0.70235  1.0000 0.1012051465
C   C564      1.0  0.53910  0.89002  0.79765  1.0000 0.1012051465
C   C565      1.0  0.70235  0.03910  0.89002  1.0000 0.1012051465
C   C566      1.0  0.79765  0.96090  0.39002  1.0000 0.1125177458
C   C567      1.0  0.29765  0.53910  0.60998  1.0000 0.1012051465
C   C568      1.0  0.20235  0.46090  0.10998  1.0000 0.1012051465
C   C569      1.0  0.89002  0.70235  0.03910  1.0000 0.1012051465
C   C570      1.0  0.39002  0.79765  0.96090  1.0000 0.1125177458
C   C571      1.0  0.60998  0.29765  0.53910  1.0000 0.1012051465
C   C572      1.0  0.10998  0.20235  0.46090  1.0000 0.1012051465
C   C573      1.0  0.03910  0.89002  0.70235  1.0000 0.1012051465
C   C574      1.0  0.96090  0.39002  0.79765  1.0000 0.1125177458
C   C575      1.0  0.53910  0.60998  0.29765  1.0000 0.1012051465
C   C576      1.0  0.46090  0.10998  0.20235  1.0000 0.1012051465
C   C577      1.0  0.32635  0.96050  0.10004  1.0000 -0.0225597889
C   C578      1.0  0.17365  0.03950  0.60004  1.0000 -0.014571868
C   C579      1.0  0.67365  0.46050  0.39996  1.0000 -0.014571868
C   C580      1.0  0.82635  0.53950  0.89996  1.0000 -0.014571868
C   C581      1.0  0.10004  0.32635  0.96050  1.0000 -0.014571868
C   C582      1.0  0.60004  0.17365  0.03950  1.0000 -0.014571868
C   C583      1.0  0.39996  0.67365  0.46050  1.0000 -0.014571868
C   C584      1.0  0.89996  0.82635  0.53950  1.0000 -0.0225597889
C   C585      1.0  0.96050  0.10004  0.32635  1.0000 -0.014571868
C   C586      1.0  0.03950  0.60004  0.17365  1.0000 -0.014571868
C   C587      1.0  0.46050  0.39996  0.67365  1.0000 -0.014571868
C   C588      1.0  0.53950  0.89996  0.82635  1.0000 -0.014571868
C   C589      1.0  0.67365  0.03950  0.89996  1.0000 -0.014571868
C   C590      1.0  0.82635  0.96050  0.39996  1.0000 -0.0225597889
C   C591      1.0  0.32635  0.53950  0.60004  1.0000 -0.014571868
C   C592      1.0  0.17365  0.46050  0.10004  1.0000 -0.014571868
C   C593      1.0  0.89996  0.67365  0.03950  1.0000 -0.014571868
C   C594      1.0  0.39996  0.82635  0.96050  1.0000 -0.014571868
C   C595      1.0  0.60004  0.32635  0.53950  1.0000 -0.014571868
C   C596      1.0  0.10004  0.17365  0.46050  1.0000 -0.014571868
C   C597      1.0  0.03950  0.89996  0.67365  1.0000 -0.014571868
C   C598      1.0  0.96050  0.39996  0.82635  1.0000 -0.014571868
C   C599      1.0  0.53950  0.60004  0.32635  1.0000 -0.014571868
C   C600      1.0  0.46050  0.10004  0.17365  1.0000 -0.014571868
C   C601      1.0  0.33211  0.96140  0.07020  1.0000 -0.1199633914
C   C602      1.0  0.16789  0.03860  0.57020  1.0000 -0.1199633914
C   C603      1.0  0.66789  0.46140  0.42980  1.0000 -0.1199633914
C   C604      1.0  0.83211  0.53860  0.92980  1.0000 -0.1199633914
C   C605      1.0  0.07020  0.33211  0.96140  1.0000 -0.1199633914
C   C606      1.0  0.57020  0.16789  0.03860  1.0000 -0.1199633914
C   C607      1.0  0.42980  0.66789  0.46140  1.0000 -0.1199633914
C   C608      1.0  0.92980  0.83211  0.53860  1.0000 -0.1199633914
C   C609      1.0  0.96140  0.07020  0.33211  1.0000 -0.1199633914
C   C610      1.0  0.03860  0.57020  0.16789  1.0000 -0.1199633914
C   C611      1.0  0.46140  0.42980  0.66789  1.0000 -0.1199633914
C   C612      1.0  0.53860  0.92980  0.83211  1.0000 -0.1199633914
C   C613      1.0  0.66789  0.03860  0.92980  1.0000 -0.1199633914
C   C614      1.0  0.83211  0.96140  0.42980  1.0000 -0.1199633914
C   C615      1.0  0.33211  0.53860  0.57020  1.0000 -0.1199633914
C   C616      1.0  0.16789  0.46140  0.07020  1.0000 -0.1199633914
C   C617      1.0  0.92980  0.66789  0.03860  1.0000 -0.1199633914
C   C618      1.0  0.42980  0.83211  0.96140  1.0000 -0.1199633914
C   C619      1.0  0.57020  0.33211  0.53860  1.0000 -0.1199633914
C   C620      1.0  0.07020  0.16789  0.46140  1.0000 -0.1199633914
C   C621      1.0  0.03860  0.92980  0.66789  1.0000 -0.1199633914
C   C622      1.0  0.96140  0.42980  0.83211  1.0000 -0.1199633914
C   C623      1.0  0.53860  0.57020  0.33211  1.0000 -0.1199633914
C   C624      1.0  0.46140  0.07020  0.16789  1.0000 -0.1199633914
C   C625      1.0  0.33140  0.98090  0.90510  1.0000 0.4975984472
C   C626      1.0  0.16860  0.01910  0.40510  1.0000 0.4975984472
C   C627      1.0  0.66860  0.48090  0.59490  1.0000 0.4975984472
C   C628      1.0  0.83140  0.51910  0.09490  1.0000 0.4975984472
C   C629      1.0  0.90510  0.33140  0.98090  1.0000 0.4975984472
C   C630      1.0  0.40510  0.16860  0.01910  1.0000 0.4975984472
C   C631      1.0  0.59490  0.66860  0.48090  1.0000 0.4975984472
C   C632      1.0  0.09490  0.83140  0.51910  1.0000 0.4975984472
C   C633      1.0  0.98090  0.90510  0.33140  1.0000 0.4975984472
C   C634      1.0  0.01910  0.40510  0.16860  1.0000 0.4975984472
C   C635      1.0  0.48090  0.59490  0.66860  1.0000 0.4975984472
C   C636      1.0  0.51910  0.09490  0.83140  1.0000 0.4975984472
C   C637      1.0  0.66860  0.01910  0.09490  1.0000 0.4975984472
C   C638      1.0  0.83140  0.98090  0.59490  1.0000 0.4975984472
C   C639      1.0  0.33140  0.51910  0.40510  1.0000 0.4975984472
C   C640      1.0  0.16860  0.48090  0.90510  1.0000 0.4975984472
C   C641      1.0  0.09490  0.66860  0.01910  1.0000 0.4975984472
C   C642      1.0  0.59490  0.83140  0.98090  1.0000 0.4975984472
C   C643      1.0  0.40510  0.33140  0.51910  1.0000 0.4975984472
C   C644      1.0  0.90510  0.16860  0.48090  1.0000 0.4975984472
C   C645      1.0  0.01910  0.09490  0.66860  1.0000 0.4975984472
C   C646      1.0  0.98090  0.59490  0.83140  1.0000 0.4975984472
C   C647      1.0  0.51910  0.40510  0.33140  1.0000 0.4975984472
C   C648      1.0  0.48090  0.90510  0.16860  1.0000 0.4975984472
C   C649      1.0  0.41700  0.95830  0.16510  1.0000 0.5935875739
C   C650      1.0  0.08300  0.04170  0.66510  1.0000 0.5935875739
C   C651      1.0  0.58300  0.45830  0.33490  1.0000 0.5935875739
C   C652      1.0  0.91700  0.54170  0.83490  1.0000 0.5935875739
C   C653      1.0  0.16510  0.41700  0.95830  1.0000 0.5935875739
C   C654      1.0  0.66510  0.08300  0.04170  1.0000 0.5935875739
C   C655      1.0  0.33490  0.58300  0.45830  1.0000 0.5935875739
C   C656      1.0  0.83490  0.91700  0.54170  1.0000 0.5935875739
C   C657      1.0  0.95830  0.16510  0.41700  1.0000 0.5935875739
C   C658      1.0  0.04170  0.66510  0.08300  1.0000 0.5935875739
C   C659      1.0  0.45830  0.33490  0.58300  1.0000 0.5935875739
C   C660      1.0  0.54170  0.83490  0.91700  1.0000 0.5935875739
C   C661      1.0  0.58300  0.04170  0.83490  1.0000 0.5935875739
C   C662      1.0  0.91700  0.95830  0.33490  1.0000 0.5935875739
C   C663      1.0  0.41700  0.54170  0.66510  1.0000 0.5935875739
C   C664      1.0  0.08300  0.45830  0.16510  1.0000 0.5935875739
C   C665      1.0  0.83490  0.58300  0.04170  1.0000 0.5935875739
C   C666      1.0  0.33490  0.91700  0.95830  1.0000 0.5935875739
C   C667      1.0  0.66510  0.41700  0.54170  1.0000 0.5935875739
C   C668      1.0  0.16510  0.08300  0.45830  1.0000 0.5935875739
C   C669      1.0  0.04170  0.83490  0.58300  1.0000 0.5935875739
C   C670      1.0  0.95830  0.33490  0.91700  1.0000 0.5935875739
C   C671      1.0  0.54170  0.66510  0.41700  1.0000 0.5935875739
C   C672      1.0  0.45830  0.16510  0.08300  1.0000 0.5935875739
C   C673      1.0  0.22493  0.96460  0.19610  1.0000 0.0658353068
C   C674      1.0  0.27507  0.03540  0.69610  1.0000 0.0658353068
C   C675      1.0  0.77507  0.46460  0.30390  1.0000 0.0658353068
C   C676      1.0  0.72493  0.53540  0.80390  1.0000 0.0658353068
C   C677      1.0  0.19610  0.22493  0.96460  1.0000 0.0658353068
C   C678      1.0  0.69610  0.27507  0.03540  1.0000 0.0658353068
C   C679      1.0  0.30390  0.77507  0.46460  1.0000 0.0658353068
C   C680      1.0  0.80390  0.72493  0.53540  1.0000 0.0658353068
C   C681      1.0  0.96460  0.19610  0.22493  1.0000 0.0658353068
C   C682      1.0  0.03540  0.69610  0.27507  1.0000 0.0658353068
C   C683      1.0  0.46460  0.30390  0.77507  1.0000 0.0658353068
C   C684      1.0  0.53540  0.80390  0.72493  1.0000 0.0658353068
C   C685      1.0  0.77507  0.03540  0.80390  1.0000 0.0658353068
C   C686      1.0  0.72493  0.96460  0.30390  1.0000 0.0658353068
C   C687      1.0  0.22493  0.53540  0.69610  1.0000 0.0658353068
C   C688      1.0  0.27507  0.46460  0.19610  1.0000 0.0658353068
C   C689      1.0  0.80390  0.77507  0.03540  1.0000 0.0658353068
C   C690      1.0  0.30390  0.72493  0.96460  1.0000 0.0658353068
C   C691      1.0  0.69610  0.22493  0.53540  1.0000 0.0658353068
C   C692      1.0  0.19610  0.27507  0.46460  1.0000 0.0658353068
C   C693      1.0  0.03540  0.80390  0.77507  1.0000 0.0658353068
C   C694      1.0  0.96460  0.30390  0.72493  1.0000 0.0658353068
C   C695      1.0  0.53540  0.69610  0.22493  1.0000 0.0658353068
C   C696      1.0  0.46460  0.19610  0.27507  1.0000 0.0658353068
C   C697      1.0  0.23080  0.98670  0.17610  1.0000 -0.1484543583
C   C698      1.0  0.26920  0.01330  0.67610  1.0000 -0.1484543583
C   C699      1.0  0.76920  0.48670  0.32390  1.0000 -0.1484543583
C   C700      1.0  0.73080  0.51330  0.82390  1.0000 -0.1484543583
C   C701      1.0  0.17610  0.23080  0.98670  1.0000 -0.1484543583
C   C702      1.0  0.67610  0.26920  0.01330  1.0000 -0.1484543583
C   C703      1.0  0.32390  0.76920  0.48670  1.0000 -0.1484543583
C   C704      1.0  0.82390  0.73080  0.51330  1.0000 -0.1484543583
C   C705      1.0  0.98670  0.17610  0.23080  1.0000 -0.1484543583
C   C706      1.0  0.01330  0.67610  0.26920  1.0000 -0.1484543583
C   C707      1.0  0.48670  0.32390  0.76920  1.0000 -0.1484543583
C   C708      1.0  0.51330  0.82390  0.73080  1.0000 -0.1484543583
C   C709      1.0  0.76920  0.01330  0.82390  1.0000 -0.1484543583
C   C710      1.0  0.73080  0.98670  0.32390  1.0000 -0.1484543583
C   C711      1.0  0.23080  0.51330  0.67610  1.0000 -0.1484543583
C   C712      1.0  0.26920  0.48670  0.17610  1.0000 -0.1484543583
C   C713      1.0  0.82390  0.76920  0.01330  1.0000 -0.1484543583
C   C714      1.0  0.32390  0.73080  0.98670  1.0000 -0.1484543583
C   C715      1.0  0.67610  0.23080  0.51330  1.0000 -0.1484543583
C   C716      1.0  0.17610  0.26920  0.48670  1.0000 -0.1484543583
C   C717      1.0  0.01330  0.82390  0.76920  1.0000 -0.1484543583
C   C718      1.0  0.98670  0.32390  0.73080  1.0000 -0.1484543583
C   C719      1.0  0.51330  0.67610  0.23080  1.0000 -0.1484543583
C   C720      1.0  0.48670  0.17610  0.26920  1.0000 -0.1484543583
C   C721      1.0  0.25480  0.98460  0.15770  1.0000 -0.1903604378
C   C722      1.0  0.24520  0.01540  0.65770  1.0000 -0.1903604378
C   C723      1.0  0.74520  0.48460  0.34230  1.0000 -0.1903604378
C   C724      1.0  0.75480  0.51540  0.84230  1.0000 -0.1903604378
C   C725      1.0  0.15770  0.25480  0.98460  1.0000 -0.1903604378
C   C726      1.0  0.65770  0.24520  0.01540  1.0000 -0.1903604378
C   C727      1.0  0.34230  0.74520  0.48460  1.0000 -0.1903604378
C   C728      1.0  0.84230  0.75480  0.51540  1.0000 -0.1903604378
C   C729      1.0  0.98460  0.15770  0.25480  1.0000 -0.1903604378
C   C730      1.0  0.01540  0.65770  0.24520  1.0000 -0.1903604378
C   C731      1.0  0.48460  0.34230  0.74520  1.0000 -0.1903604378
C   C732      1.0  0.51540  0.84230  0.75480  1.0000 -0.1903604378
C   C733      1.0  0.74520  0.01540  0.84230  1.0000 -0.1903604378
C   C734      1.0  0.75480  0.98460  0.34230  1.0000 -0.1903604378
C   C735      1.0  0.25480  0.51540  0.65770  1.0000 -0.1903604378
C   C736      1.0  0.24520  0.48460  0.15770  1.0000 -0.1903604378
C   C737      1.0  0.84230  0.74520  0.01540  1.0000 -0.1903604378
C   C738      1.0  0.34230  0.75480  0.98460  1.0000 -0.1903604378
C   C739      1.0  0.65770  0.25480  0.51540  1.0000 -0.1903604378
C   C740      1.0  0.15770  0.24520  0.48460  1.0000 -0.1903604378
C   C741      1.0  0.01540  0.84230  0.74520  1.0000 -0.1903604378
C   C742      1.0  0.98460  0.34230  0.75480  1.0000 -0.1903604378
C   C743      1.0  0.51540  0.65770  0.25480  1.0000 -0.1903604378
C   C744      1.0  0.48460  0.15770  0.24520  1.0000 -0.1903604378
C   C745      1.0  0.27305  0.96030  0.15930  1.0000 0.1489896097
C   C746      1.0  0.22695  0.03970  0.65930  1.0000 0.1489896097
C   C747      1.0  0.72695  0.46030  0.34070  1.0000 0.1489896097
C   C748      1.0  0.77305  0.53970  0.84070  1.0000 0.1489896097
C   C749      1.0  0.15930  0.27305  0.96030  1.0000 0.1489896097
C   C750      1.0  0.65930  0.22695  0.03970  1.0000 0.1489896097
C   C751      1.0  0.34070  0.72695  0.46030  1.0000 0.1489896097
C   C752      1.0  0.84070  0.77305  0.53970  1.0000 0.1489896097
C   C753      1.0  0.96030  0.15930  0.27305  1.0000 0.1489896097
C   C754      1.0  0.03970  0.65930  0.22695  1.0000 0.1489896097
C   C755      1.0  0.46030  0.34070  0.72695  1.0000 0.1489896097
C   C756      1.0  0.53970  0.84070  0.77305  1.0000 0.1489896097
C   C757      1.0  0.72695  0.03970  0.84070  1.0000 0.1489896097
C   C758      1.0  0.77305  0.96030  0.34070  1.0000 0.1489896097
C   C759      1.0  0.27305  0.53970  0.65930  1.0000 0.1489896097
C   C760      1.0  0.22695  0.46030  0.15930  1.0000 0.1489896097
C   C761      1.0  0.84070  0.72695  0.03970  1.0000 0.1489896097
C   C762      1.0  0.34070  0.77305  0.96030  1.0000 0.1489896097
C   C763      1.0  0.65930  0.27305  0.53970  1.0000 0.1489896097
C   C764      1.0  0.15930  0.22695  0.46030  1.0000 0.1489896097
C   C765      1.0  0.03970  0.84070  0.72695  1.0000 0.1489896097
C   C766      1.0  0.96030  0.34070  0.77305  1.0000 0.1489896097
C   C767      1.0  0.53970  0.65930  0.27305  1.0000 0.1489896097
C   C768      1.0  0.46030  0.15930  0.22695  1.0000 0.1489896097
C   C769      1.0  0.26720  0.93820  0.17930  1.0000 -0.1800709454
C   C770      1.0  0.23280  0.06180  0.67930  1.0000 -0.1800709454
C   C771      1.0  0.73280  0.43820  0.32070  1.0000 -0.1800709454
C   C772      1.0  0.76720  0.56180  0.82070  1.0000 -0.1800709454
C   C773      1.0  0.17930  0.26720  0.93820  1.0000 -0.1800709454
C   C774      1.0  0.67930  0.23280  0.06180  1.0000 -0.1800709454
C   C775      1.0  0.32070  0.73280  0.43820  1.0000 -0.1800709454
C   C776      1.0  0.82070  0.76720  0.56180  1.0000 -0.1800709454
C   C777      1.0  0.93820  0.17930  0.26720  1.0000 -0.1800709454
C   C778      1.0  0.06180  0.67930  0.23280  1.0000 -0.1800709454
C   C779      1.0  0.43820  0.32070  0.73280  1.0000 -0.1800709454
C   C780      1.0  0.56180  0.82070  0.76720  1.0000 -0.1800709454
C   C781      1.0  0.73280  0.06180  0.82070  1.0000 -0.1800709454
C   C782      1.0  0.76720  0.93820  0.32070  1.0000 -0.1800709454
C   C783      1.0  0.26720  0.56180  0.67930  1.0000 -0.1800709454
C   C784      1.0  0.23280  0.43820  0.17930  1.0000 -0.1800709454
C   C785      1.0  0.82070  0.73280  0.06180  1.0000 -0.1800709454
C   C786      1.0  0.32070  0.76720  0.93820  1.0000 -0.1800709454
C   C787      1.0  0.67930  0.26720  0.56180  1.0000 -0.1800709454
C   C788      1.0  0.17930  0.23280  0.43820  1.0000 -0.1800709454
C   C789      1.0  0.06180  0.82070  0.73280  1.0000 -0.1800709454
C   C790      1.0  0.93820  0.32070  0.76720  1.0000 -0.1800709454
C   C791      1.0  0.56180  0.67930  0.26720  1.0000 -0.1800709454
C   C792      1.0  0.43820  0.17930  0.23280  1.0000 -0.1800709454
C   C793      1.0  0.24310  0.94030  0.19770  1.0000 -0.1555111592
C   C794      1.0  0.25690  0.05970  0.69770  1.0000 -0.1555111592
C   C795      1.0  0.75690  0.44030  0.30230  1.0000 -0.1555111592
C   C796      1.0  0.74310  0.55970  0.80230  1.0000 -0.1555111592
C   C797      1.0  0.19770  0.24310  0.94030  1.0000 -0.1555111592
C   C798      1.0  0.69770  0.25690  0.05970  1.0000 -0.1484543583
C   C799      1.0  0.30230  0.75690  0.44030  1.0000 -0.1555111592
C   C800      1.0  0.80230  0.74310  0.55970  1.0000 -0.1555111592
C   C801      1.0  0.94030  0.19770  0.24310  1.0000 -0.1555111592
C   C802      1.0  0.05970  0.69770  0.25690  1.0000 -0.1555111592
C   C803      1.0  0.44030  0.30230  0.75690  1.0000 -0.1555111592
C   C804      1.0  0.55970  0.80230  0.74310  1.0000 -0.1555111592
C   C805      1.0  0.75690  0.05970  0.80230  1.0000 -0.1555111592
C   C806      1.0  0.74310  0.94030  0.30230  1.0000 -0.1484543583
C   C807      1.0  0.24310  0.55970  0.69770  1.0000 -0.1555111592
C   C808      1.0  0.25690  0.44030  0.19770  1.0000 -0.1555111592
C   C809      1.0  0.80230  0.75690  0.05970  1.0000 -0.1555111592
C   C810      1.0  0.30230  0.74310  0.94030  1.0000 -0.1484543583
C   C811      1.0  0.69770  0.24310  0.55970  1.0000 -0.1555111592
C   C812      1.0  0.19770  0.25690  0.44030  1.0000 -0.1555111592
C   C813      1.0  0.05970  0.80230  0.75690  1.0000 -0.1555111592
C   C814      1.0  0.94030  0.30230  0.74310  1.0000 -0.1484543583
C   C815      1.0  0.55970  0.69770  0.24310  1.0000 -0.1555111592
C   C816      1.0  0.44030  0.19770  0.25690  1.0000 -0.1555111592
C   C817      1.0  0.26800  0.16570  0.97770  1.0000 0.1298621719
C   C818      1.0  0.23200  0.83430  0.47770  1.0000 0.1298621719
C   C819      1.0  0.73200  0.66570  0.52230  1.0000 0.1298621719
C   C820      1.0  0.76800  0.33430  0.02230  1.0000 0.1298621719
C   C821      1.0  0.97770  0.26800  0.16570  1.0000 0.1298621719
C   C822      1.0  0.47770  0.23200  0.83430  1.0000 0.1298621719
C   C823      1.0  0.52230  0.73200  0.66570  1.0000 0.1298621719
C   C824      1.0  0.02230  0.76800  0.33430  1.0000 0.1298621719
C   C825      1.0  0.16570  0.97770  0.26800  1.0000 0.1298621719
C   C826      1.0  0.83430  0.47770  0.23200  1.0000 0.1298621719
C   C827      1.0  0.66570  0.52230  0.73200  1.0000 0.1298621719
C   C828      1.0  0.33430  0.02230  0.76800  1.0000 0.1298621719
C   C829      1.0  0.73200  0.83430  0.02230  1.0000 0.1298621719
C   C830      1.0  0.76800  0.16570  0.52230  1.0000 0.1298621719
C   C831      1.0  0.26800  0.33430  0.47770  1.0000 0.1298621719
C   C832      1.0  0.23200  0.66570  0.97770  1.0000 0.1298621719
C   C833      1.0  0.02230  0.73200  0.83430  1.0000 0.1298621719
C   C834      1.0  0.52230  0.76800  0.16570  1.0000 0.1298621719
C   C835      1.0  0.47770  0.26800  0.33430  1.0000 0.1298621719
C   C836      1.0  0.97770  0.23200  0.66570  1.0000 0.1298621719
C   C837      1.0  0.83430  0.02230  0.73200  1.0000 0.1298621719
C   C838      1.0  0.16570  0.52230  0.76800  1.0000 0.1298621719
C   C839      1.0  0.33430  0.47770  0.26800  1.0000 0.1298621719
C   C840      1.0  0.66570  0.97770  0.23200  1.0000 0.1298621719
C   C841      1.0  0.26880  0.18640  0.95560  1.0000 -0.1903604378
C   C842      1.0  0.23120  0.81360  0.45560  1.0000 -0.1903604378
C   C843      1.0  0.73120  0.68640  0.54440  1.0000 -0.1903604378
C   C844      1.0  0.76880  0.31360  0.04440  1.0000 -0.1903604378
C   C845      1.0  0.95560  0.26880  0.18640  1.0000 -0.1903604378
C   C846      1.0  0.45560  0.23120  0.81360  1.0000 -0.1903604378
C   C847      1.0  0.54440  0.73120  0.68640  1.0000 -0.1903604378
C   C848      1.0  0.04440  0.76880  0.31360  1.0000 -0.1903604378
C   C849      1.0  0.18640  0.95560  0.26880  1.0000 -0.1903604378
C   C850      1.0  0.81360  0.45560  0.23120  1.0000 -0.1903604378
C   C851      1.0  0.68640  0.54440  0.73120  1.0000 -0.1903604378
C   C852      1.0  0.31360  0.04440  0.76880  1.0000 -0.1903604378
C   C853      1.0  0.73120  0.81360  0.04440  1.0000 -0.1903604378
C   C854      1.0  0.76880  0.18640  0.54440  1.0000 -0.1903604378
C   C855      1.0  0.26880  0.31360  0.45560  1.0000 -0.1903604378
C   C856      1.0  0.23120  0.68640  0.95560  1.0000 -0.1903604378
C   C857      1.0  0.04440  0.73120  0.81360  1.0000 -0.1903604378
C   C858      1.0  0.54440  0.76880  0.18640  1.0000 -0.1903604378
C   C859      1.0  0.45560  0.26880  0.31360  1.0000 -0.1903604378
C   C860      1.0  0.95560  0.23120  0.68640  1.0000 -0.1903604378
C   C861      1.0  0.81360  0.04440  0.73120  1.0000 -0.1903604378
C   C862      1.0  0.18640  0.54440  0.76880  1.0000 -0.1903604378
C   C863      1.0  0.31360  0.45560  0.26880  1.0000 -0.1903604378
C   C864      1.0  0.68640  0.95560  0.23120  1.0000 -0.1903604378
C   C865      1.0  0.24700  0.20750  0.95370  1.0000 -0.1440430778
C   C866      1.0  0.25300  0.79250  0.45370  1.0000 -0.1484543583
C   C867      1.0  0.75300  0.70750  0.54630  1.0000 -0.1440430778
C   C868      1.0  0.74700  0.29250  0.04630  1.0000 -0.1440430778
C   C869      1.0  0.95370  0.24700  0.20750  1.0000 -0.1440430778
C   C870      1.0  0.45370  0.25300  0.79250  1.0000 -0.1440430778
C   C871      1.0  0.54630  0.75300  0.70750  1.0000 -0.1440430778
C   C872      1.0  0.04630  0.74700  0.29250  1.0000 -0.1440430778
C   C873      1.0  0.20750  0.95370  0.24700  1.0000 -0.1440430778
C   C874      1.0  0.79250  0.45370  0.25300  1.0000 -0.1440430778
C   C875      1.0  0.70750  0.54630  0.75300  1.0000 -0.1440430778
C   C876      1.0  0.29250  0.04630  0.74700  1.0000 -0.1440430778
C   C877      1.0  0.75300  0.79250  0.04630  1.0000 -0.1440430778
C   C878      1.0  0.74700  0.20750  0.54630  1.0000 -0.1440430778
C   C879      1.0  0.24700  0.29250  0.45370  1.0000 -0.1440430778
C   C880      1.0  0.25300  0.70750  0.95370  1.0000 -0.1440430778
C   C881      1.0  0.04630  0.75300  0.79250  1.0000 -0.1440430778
C   C882      1.0  0.54630  0.74700  0.20750  1.0000 -0.1440430778
C   C883      1.0  0.45370  0.24700  0.29250  1.0000 -0.1440430778
C   C884      1.0  0.95370  0.25300  0.70750  1.0000 -0.1440430778
C   C885      1.0  0.79250  0.04630  0.75300  1.0000 -0.1440430778
C   C886      1.0  0.20750  0.54630  0.74700  1.0000 -0.1440430778
C   C887      1.0  0.29250  0.45370  0.24700  1.0000 -0.1440430778
C   C888      1.0  0.70750  0.95370  0.25300  1.0000 -0.1440430778
C   C889      1.0  0.22430  0.20770  0.97390  1.0000 0.0658353068
C   C890      1.0  0.27570  0.79230  0.47390  1.0000 0.0658353068
C   C891      1.0  0.77570  0.70770  0.52610  1.0000 0.0658353068
C   C892      1.0  0.72430  0.29230  0.02610  1.0000 0.0658353068
C   C893      1.0  0.97390  0.22430  0.20770  1.0000 0.0658353068
C   C894      1.0  0.47390  0.27570  0.79230  1.0000 0.0658353068
C   C895      1.0  0.52610  0.77570  0.70770  1.0000 0.0658353068
C   C896      1.0  0.02610  0.72430  0.29230  1.0000 0.0658353068
C   C897      1.0  0.20770  0.97390  0.22430  1.0000 0.0647533501
C   C898      1.0  0.79230  0.47390  0.27570  1.0000 0.0658353068
C   C899      1.0  0.70770  0.52610  0.77570  1.0000 0.0658353068
C   C900      1.0  0.29230  0.02610  0.72430  1.0000 0.0658353068
C   C901      1.0  0.77570  0.79230  0.02610  1.0000 0.0658353068
C   C902      1.0  0.72430  0.20770  0.52610  1.0000 0.0658353068
C   C903      1.0  0.22430  0.29230  0.47390  1.0000 0.0658353068
C   C904      1.0  0.27570  0.70770  0.97390  1.0000 0.0658353068
C   C905      1.0  0.02610  0.77570  0.79230  1.0000 0.0658353068
C   C906      1.0  0.52610  0.72430  0.20770  1.0000 0.0658353068
C   C907      1.0  0.47390  0.22430  0.29230  1.0000 0.0658353068
C   C908      1.0  0.97390  0.27570  0.70770  1.0000 0.0658353068
C   C909      1.0  0.79230  0.02610  0.77570  1.0000 0.0658353068
C   C910      1.0  0.20770  0.52610  0.72430  1.0000 0.0658353068
C   C911      1.0  0.29230  0.47390  0.22430  1.0000 0.0658353068
C   C912      1.0  0.70770  0.97390  0.27570  1.0000 0.0658353068
C   C913      1.0  0.22350  0.18690  0.99600  1.0000 -0.1484543583
C   C914      1.0  0.27650  0.81310  0.49600  1.0000 -0.1484543583
C   C915      1.0  0.77650  0.68690  0.50400  1.0000 -0.1484543583
C   C916      1.0  0.72350  0.31310  0.00400  1.0000 -0.1484543583
C   C917      1.0  0.99600  0.22350  0.18690  1.0000 -0.1484543583
C   C918      1.0  0.49600  0.27650  0.81310  1.0000 -0.1484543583
C   C919      1.0  0.50400  0.77650  0.68690  1.0000 -0.1484543583
C   C920      1.0  0.00400  0.72350  0.31310  1.0000 -0.1484543583
C   C921      1.0  0.18690  0.99600  0.22350  1.0000 -0.1484543583
C   C922      1.0  0.81310  0.49600  0.27650  1.0000 -0.1484543583
C   C923      1.0  0.68690  0.50400  0.77650  1.0000 -0.1484543583
C   C924      1.0  0.31310  0.00400  0.72350  1.0000 -0.1484543583
C   C925      1.0  0.77650  0.81310  0.00400  1.0000 -0.1484543583
C   C926      1.0  0.72350  0.18690  0.50400  1.0000 -0.1484543583
C   C927      1.0  0.22350  0.31310  0.49600  1.0000 -0.1484543583
C   C928      1.0  0.27650  0.68690  0.99600  1.0000 -0.1484543583
C   C929      1.0  0.00400  0.77650  0.81310  1.0000 -0.1484543583
C   C930      1.0  0.50400  0.72350  0.18690  1.0000 -0.1484543583
C   C931      1.0  0.49600  0.22350  0.31310  1.0000 -0.1484543583
C   C932      1.0  0.99600  0.27650  0.68690  1.0000 -0.1484543583
C   C933      1.0  0.81310  0.00400  0.77650  1.0000 -0.1484543583
C   C934      1.0  0.18690  0.50400  0.72350  1.0000 -0.1484543583
C   C935      1.0  0.31310  0.49600  0.22350  1.0000 -0.1484543583
C   C936      1.0  0.68690  0.99600  0.27650  1.0000 -0.1484543583
C   C937      1.0  0.24530  0.16590  0.99790  1.0000 -0.1800709454
C   C938      1.0  0.25470  0.83410  0.49790  1.0000 -0.1800709454
C   C939      1.0  0.75470  0.66590  0.50210  1.0000 -0.1800709454
C   C940      1.0  0.74530  0.33410  0.00210  1.0000 -0.1800709454
C   C941      1.0  0.99790  0.24530  0.16590  1.0000 -0.1800709454
C   C942      1.0  0.49790  0.25470  0.83410  1.0000 -0.1800709454
C   C943      1.0  0.50210  0.75470  0.66590  1.0000 -0.1800709454
C   C944      1.0  0.00210  0.74530  0.33410  1.0000 -0.1800709454
C   C945      1.0  0.16590  0.99790  0.24530  1.0000 -0.1800709454
C   C946      1.0  0.83410  0.49790  0.25470  1.0000 -0.1800709454
C   C947      1.0  0.66590  0.50210  0.75470  1.0000 -0.1800709454
C   C948      1.0  0.33410  0.00210  0.74530  1.0000 -0.1800709454
C   C949      1.0  0.75470  0.83410  0.00210  1.0000 -0.1800709454
C   C950      1.0  0.74530  0.16590  0.50210  1.0000 -0.1800709454
C   C951      1.0  0.24530  0.33410  0.49790  1.0000 -0.1800709454
C   C952      1.0  0.25470  0.66590  0.99790  1.0000 -0.1800709454
C   C953      1.0  0.00210  0.75470  0.83410  1.0000 -0.1800709454
C   C954      1.0  0.50210  0.74530  0.16590  1.0000 -0.1800709454
C   C955      1.0  0.49790  0.24530  0.33410  1.0000 -0.1800709454
C   C956      1.0  0.99790  0.25470  0.66590  1.0000 -0.1800709454
C   C957      1.0  0.83410  0.00210  0.75470  1.0000 -0.1800709454
C   C958      1.0  0.16590  0.50210  0.74530  1.0000 -0.1800709454
C   C959      1.0  0.33410  0.49790  0.24530  1.0000 -0.1800709454
C   C960      1.0  0.66590  0.99790  0.25470  1.0000 -0.1800709454
N   N1        1.0  0.29290  0.14620  0.98840  1.0000 -0.0812096755
N   N2        1.0  0.20710  0.85380  0.48840  1.0000 -0.0812096755
N   N3        1.0  0.70710  0.64620  0.51160  1.0000 -0.0812096755
N   N4        1.0  0.79290  0.35380  0.01160  1.0000 -0.0812096755
N   N5        1.0  0.98840  0.29290  0.14620  1.0000 -0.0812096755
N   N6        1.0  0.48840  0.20710  0.85380  1.0000 -0.0812096755
N   N7        1.0  0.51160  0.70710  0.64620  1.0000 -0.0812096755
N   N8        1.0  0.01160  0.79290  0.35380  1.0000 -0.0742168136
N   N9        1.0  0.14620  0.98840  0.29290  1.0000 -0.0812096755
N   N10       1.0  0.85380  0.48840  0.20710  1.0000 -0.0812096755
N   N11       1.0  0.64620  0.51160  0.70710  1.0000 -0.0812096755
N   N12       1.0  0.35380  0.01160  0.79290  1.0000 -0.0812096755
N   N13       1.0  0.70710  0.85380  0.01160  1.0000 -0.0742168136
N   N14       1.0  0.79290  0.14620  0.51160  1.0000 -0.0812096755
N   N15       1.0  0.29290  0.35380  0.48840  1.0000 -0.0812096755
N   N16       1.0  0.20710  0.64620  0.98840  1.0000 -0.0812096755
N   N17       1.0  0.01160  0.70710  0.85380  1.0000 -0.0742168136
N   N18       1.0  0.51160  0.79290  0.14620  1.0000 -0.0812096755
N   N19       1.0  0.48840  0.29290  0.35380  1.0000 -0.0812096755
N   N20       1.0  0.98840  0.20710  0.64620  1.0000 -0.0812096755
N   N21       1.0  0.85380  0.01160  0.70710  1.0000 -0.0812096755
N   N22       1.0  0.14620  0.51160  0.79290  1.0000 -0.0812096755
N   N23       1.0  0.35380  0.48840  0.29290  1.0000 -0.0812096755
N   N24       1.0  0.64620  0.98840  0.20710  1.0000 -0.0812096755
N   N25       1.0  0.29760  0.95590  0.14080  1.0000 -0.0812096755
N   N26       1.0  0.20240  0.04410  0.64080  1.0000 -0.0812096755
N   N27       1.0  0.70240  0.45590  0.35920  1.0000 -0.0812096755
N   N28       1.0  0.79760  0.54410  0.85920  1.0000 -0.0812096755
N   N29       1.0  0.14080  0.29760  0.95590  1.0000 -0.0812096755
N   N30       1.0  0.64080  0.20240  0.04410  1.0000 -0.0812096755
N   N31       1.0  0.35920  0.70240  0.45590  1.0000 -0.0812096755
N   N32       1.0  0.85920  0.79760  0.54410  1.0000 -0.0812096755
N   N33       1.0  0.95590  0.14080  0.29760  1.0000 -0.0812096755
N   N34       1.0  0.04410  0.64080  0.20240  1.0000 -0.0812096755
N   N35       1.0  0.45590  0.35920  0.70240  1.0000 -0.0812096755
N   N36       1.0  0.54410  0.85920  0.79760  1.0000 -0.0812096755
N   N37       1.0  0.70240  0.04410  0.85920  1.0000 -0.0812096755
N   N38       1.0  0.79760  0.95590  0.35920  1.0000 -0.0812096755
N   N39       1.0  0.29760  0.54410  0.64080  1.0000 -0.0812096755
N   N40       1.0  0.20240  0.45590  0.14080  1.0000 -0.0812096755
N   N41       1.0  0.85920  0.70240  0.04410  1.0000 -0.0812096755
N   N42       1.0  0.35920  0.79760  0.95590  1.0000 -0.0812096755
N   N43       1.0  0.64080  0.29760  0.54410  1.0000 -0.0812096755
N   N44       1.0  0.14080  0.20240  0.45590  1.0000 -0.0812096755
N   N45       1.0  0.04410  0.85920  0.70240  1.0000 -0.0812096755
N   N46       1.0  0.95590  0.35920  0.79760  1.0000 -0.0812096755
N   N47       1.0  0.54410  0.64080  0.29760  1.0000 -0.0812096755
N   N48       1.0  0.45590  0.14080  0.20240  1.0000 -0.0812096755
O   O1        1.0  0.34123  0.96960  0.01088  1.0000 -0.5448966359
O   O2        1.0  0.15877  0.03040  0.51088  1.0000 -0.5454297398
O   O3        1.0  0.65877  0.46960  0.48912  1.0000 -0.5448966359
O   O4        1.0  0.84123  0.53040  0.98912  1.0000 -0.5448966359
O   O5        1.0  0.01088  0.34123  0.96960  1.0000 -0.5454297398
O   O6        1.0  0.51088  0.15877  0.03040  1.0000 -0.5454297398
O   O7        1.0  0.48912  0.65877  0.46960  1.0000 -0.5448966359
O   O8        1.0  0.98912  0.84123  0.53040  1.0000 -0.5448966359
O   O9        1.0  0.96960  0.01088  0.34123  1.0000 -0.5454297398
O   O10       1.0  0.03040  0.51088  0.15877  1.0000 -0.5454297398
O   O11       1.0  0.46960  0.48912  0.65877  1.0000 -0.5448966359
O   O12       1.0  0.53040  0.98912  0.84123  1.0000 -0.5448966359
O   O13       1.0  0.65877  0.03040  0.98912  1.0000 -0.5454297398
O   O14       1.0  0.84123  0.96960  0.48912  1.0000 -0.5448966359
O   O15       1.0  0.34123  0.53040  0.51088  1.0000 -0.5448966359
O   O16       1.0  0.15877  0.46960  0.01088  1.0000 -0.5448966359
O   O17       1.0  0.98912  0.65877  0.03040  1.0000 -0.5454297398
O   O18       1.0  0.48912  0.84123  0.96960  1.0000 -0.5448966359
O   O19       1.0  0.51088  0.34123  0.53040  1.0000 -0.5448966359
O   O20       1.0  0.01088  0.15877  0.46960  1.0000 -0.5454297398
O   O21       1.0  0.03040  0.98912  0.65877  1.0000 -0.5454297398
O   O22       1.0  0.96960  0.48912  0.84123  1.0000 -0.5448966359
O   O23       1.0  0.53040  0.51088  0.34123  1.0000 -0.5448966359
O   O24       1.0  0.46960  0.01088  0.15877  1.0000 -0.5454297398
O   O25       1.0  0.29160  0.96430  0.99900  1.0000 -0.5842724438
O   O26       1.0  0.20840  0.03570  0.49900  1.0000 -0.5842724438
O   O27       1.0  0.70840  0.46430  0.50100  1.0000 -0.5842724438
O   O28       1.0  0.79160  0.53570  0.00100  1.0000 -0.5842724438
O   O29       1.0  0.99900  0.29160  0.96430  1.0000 -0.5842724438
O   O30       1.0  0.49900  0.20840  0.03570  1.0000 -0.5842724438
O   O31       1.0  0.50100  0.70840  0.46430  1.0000 -0.5842724438
O   O32       1.0  0.00100  0.79160  0.53570  1.0000 -0.5842724438
O   O33       1.0  0.96430  0.99900  0.29160  1.0000 -0.5842724438
O   O34       1.0  0.03570  0.49900  0.20840  1.0000 -0.5842724438
O   O35       1.0  0.46430  0.50100  0.70840  1.0000 -0.5842724438
O   O36       1.0  0.53570  0.00100  0.79160  1.0000 -0.5842724438
O   O37       1.0  0.70840  0.03570  0.00100  1.0000 -0.5842724438
O   O38       1.0  0.79160  0.96430  0.50100  1.0000 -0.5842724438
O   O39       1.0  0.29160  0.53570  0.49900  1.0000 -0.5842724438
O   O40       1.0  0.20840  0.46430  0.99900  1.0000 -0.5842724438
O   O41       1.0  0.00100  0.70840  0.03570  1.0000 -0.5867071127
O   O42       1.0  0.50100  0.79160  0.96430  1.0000 -0.5842724438
O   O43       1.0  0.49900  0.29160  0.53570  1.0000 -0.5842724438
O   O44       1.0  0.99900  0.20840  0.46430  1.0000 -0.5842724438
O   O45       1.0  0.03570  0.00100  0.70840  1.0000 -0.5842724438
O   O46       1.0  0.96430  0.50100  0.79160  1.0000 -0.5842724438
O   O47       1.0  0.53570  0.49900  0.29160  1.0000 -0.5842724438
O   O48       1.0  0.46430  0.99900  0.20840  1.0000 -0.5842724438
O   O49       1.0  0.35272  0.98354  0.92538  1.0000 -0.5867071127
O   O50       1.0  0.14728  0.01646  0.42538  1.0000 -0.5867071127
O   O51       1.0  0.64728  0.48354  0.57462  1.0000 -0.5867071127
O   O52       1.0  0.85272  0.51646  0.07462  1.0000 -0.5867071127
O   O53       1.0  0.92538  0.35272  0.98354  1.0000 -0.5867071127
O   O54       1.0  0.42538  0.14728  0.01646  1.0000 -0.5867071127
O   O55       1.0  0.57462  0.64728  0.48354  1.0000 -0.5867071127
O   O56       1.0  0.07462  0.85272  0.51646  1.0000 -0.5867071127
O   O57       1.0  0.98354  0.92538  0.35272  1.0000 -0.5867071127
O   O58       1.0  0.01646  0.42538  0.14728  1.0000 -0.5867071127
O   O59       1.0  0.48354  0.57462  0.64728  1.0000 -0.5867071127
O   O60       1.0  0.51646  0.07462  0.85272  1.0000 -0.5867071127
O   O61       1.0  0.64728  0.01646  0.07462  1.0000 -0.5867071127
O   O62       1.0  0.85272  0.98354  0.57462  1.0000 -0.5867071127
O   O63       1.0  0.35272  0.51646  0.42538  1.0000 -0.5867071127
O   O64       1.0  0.14728  0.48354  0.92538  1.0000 -0.5867071127
O   O65       1.0  0.07462  0.64728  0.01646  1.0000 -0.5867071127
O   O66       1.0  0.57462  0.85272  0.98354  1.0000 -0.5867071127
O   O67       1.0  0.42538  0.35272  0.51646  1.0000 -0.5867071127
O   O68       1.0  0.92538  0.14728  0.48354  1.0000 -0.5867071127
O   O69       1.0  0.01646  0.07462  0.64728  1.0000 -0.5867071127
O   O70       1.0  0.98354  0.57462  0.85272  1.0000 -0.5867071127
O   O71       1.0  0.51646  0.42538  0.35272  1.0000 -0.5867071127
O   O72       1.0  0.48354  0.92538  0.14728  1.0000 -0.5867071127
O   O73       1.0  0.30500  0.97198  0.91555  1.0000 -0.5619314099
O   O74       1.0  0.19500  0.02802  0.41555  1.0000 -0.5619314099
O   O75       1.0  0.69500  0.47198  0.58445  1.0000 -0.5619314099
O   O76       1.0  0.80500  0.52802  0.08445  1.0000 -0.5619314099
O   O77       1.0  0.91555  0.30500  0.97198  1.0000 -0.5619314099
O   O78       1.0  0.41555  0.19500  0.02802  1.0000 -0.5619314099
O   O79       1.0  0.58445  0.69500  0.47198  1.0000 -0.5619314099
O   O80       1.0  0.08445  0.80500  0.52802  1.0000 -0.5619314099
O   O81       1.0  0.97198  0.91555  0.30500  1.0000 -0.5619314099
O   O82       1.0  0.02802  0.41555  0.19500  1.0000 -0.5619314099
O   O83       1.0  0.47198  0.58445  0.69500  1.0000 -0.5619314099
O   O84       1.0  0.52802  0.08445  0.80500  1.0000 -0.5619314099
O   O85       1.0  0.69500  0.02802  0.08445  1.0000 -0.5619314099
O   O86       1.0  0.80500  0.97198  0.58445  1.0000 -0.5619314099
O   O87       1.0  0.30500  0.52802  0.41555  1.0000 -0.5619314099
O   O88       1.0  0.19500  0.47198  0.91555  1.0000 -0.5619314099
O   O89       1.0  0.08445  0.69500  0.02802  1.0000 -0.5619314099
O   O90       1.0  0.58445  0.80500  0.97198  1.0000 -0.5619314099
O   O91       1.0  0.41555  0.30500  0.52802  1.0000 -0.5619314099
O   O92       1.0  0.91555  0.19500  0.47198  1.0000 -0.5619314099
O   O93       1.0  0.02802  0.08445  0.69500  1.0000 -0.5619314099
O   O94       1.0  0.97198  0.58445  0.80500  1.0000 -0.5619314099
O   O95       1.0  0.52802  0.41555  0.30500  1.0000 -0.5619314099
O   O96       1.0  0.47198  0.91555  0.19500  1.0000 -0.5619314099
O   O97       1.0  0.33787  0.01986  0.97528  1.0000 -0.6458658789
O   O98       1.0  0.16213  0.98014  0.47528  1.0000 -0.6458658789
O   O99       1.0  0.66213  0.51986  0.52472  1.0000 -0.6458658789
O   O100      1.0  0.83787  0.48014  0.02472  1.0000 -0.6458658789
O   O101      1.0  0.97528  0.33787  0.01986  1.0000 -0.6458658789
O   O102      1.0  0.47528  0.16213  0.98014  1.0000 -0.6458658789
O   O103      1.0  0.52472  0.66213  0.51986  1.0000 -0.6458658789
O   O104      1.0  0.02472  0.83787  0.48014  1.0000 -0.6458658789
O   O105      1.0  0.01986  0.97528  0.33787  1.0000 -0.6458658789
O   O106      1.0  0.98014  0.47528  0.16213  1.0000 -0.6458658789
O   O107      1.0  0.51986  0.52472  0.66213  1.0000 -0.6458658789
O   O108      1.0  0.48014  0.02472  0.83787  1.0000 -0.6458658789
O   O109      1.0  0.66213  0.98014  0.02472  1.0000 -0.6458658789
O   O110      1.0  0.83787  0.01986  0.52472  1.0000 -0.6458658789
O   O111      1.0  0.33787  0.48014  0.47528  1.0000 -0.6458658789
O   O112      1.0  0.16213  0.51986  0.97528  1.0000 -0.6441727017
O   O113      1.0  0.02472  0.66213  0.98014  1.0000 -0.6458658789
O   O114      1.0  0.52472  0.83787  0.01986  1.0000 -0.6441727017
O   O115      1.0  0.47528  0.33787  0.48014  1.0000 -0.6458658789
O   O116      1.0  0.97528  0.16213  0.51986  1.0000 -0.6441727017
O   O117      1.0  0.98014  0.02472  0.66213  1.0000 -0.6458658789
O   O118      1.0  0.01986  0.52472  0.83787  1.0000 -0.6458658789
O   O119      1.0  0.48014  0.47528  0.33787  1.0000 -0.6458658789
O   O120      1.0  0.51986  0.97528  0.16213  1.0000 -0.6441727017
O   O121      1.0  0.29007  0.00810  0.96091  1.0000 -0.4475154489
O   O122      1.0  0.20993  0.99190  0.46091  1.0000 -0.4475154489
O   O123      1.0  0.70993  0.50810  0.53909  1.0000 -0.4475154489
O   O124      1.0  0.79007  0.49190  0.03909  1.0000 -0.4475154489
O   O125      1.0  0.96091  0.29007  0.00810  1.0000 -0.4475154489
O   O126      1.0  0.46091  0.20993  0.99190  1.0000 -0.4475154489
O   O127      1.0  0.53909  0.70993  0.50810  1.0000 -0.4475154489
O   O128      1.0  0.03909  0.79007  0.49190  1.0000 -0.4475154489
O   O129      1.0  0.00810  0.96091  0.29007  1.0000 -0.4475154489
O   O130      1.0  0.99190  0.46091  0.20993  1.0000 -0.4475154489
O   O131      1.0  0.50810  0.53909  0.70993  1.0000 -0.4475154489
O   O132      1.0  0.49190  0.03909  0.79007  1.0000 -0.4475154489
O   O133      1.0  0.70993  0.99190  0.03909  1.0000 -0.4475154489
O   O134      1.0  0.79007  0.00810  0.53909  1.0000 -0.4475154489
O   O135      1.0  0.29007  0.49190  0.46091  1.0000 -0.4475154489
O   O136      1.0  0.20993  0.50810  0.96091  1.0000 -0.4475154489
O   O137      1.0  0.03909  0.70993  0.99190  1.0000 -0.4475154489
O   O138      1.0  0.53909  0.79007  0.00810  1.0000 -0.4475154489
O   O139      1.0  0.46091  0.29007  0.49190  1.0000 -0.4475154489
O   O140      1.0  0.96091  0.20993  0.50810  1.0000 -0.4475154489
O   O141      1.0  0.99190  0.03909  0.70993  1.0000 -0.4475154489
O   O142      1.0  0.00810  0.53909  0.79007  1.0000 -0.4475154489
O   O143      1.0  0.49190  0.46091  0.29007  1.0000 -0.4475154489
O   O144      1.0  0.50810  0.96091  0.20993  1.0000 -0.4475154489
O   O145      1.0  0.43398  0.96205  0.14197  1.0000 -0.5703413099
O   O146      1.0  0.06602  0.03795  0.64197  1.0000 -0.5703413099
O   O147      1.0  0.56602  0.46205  0.35803  1.0000 -0.5703413099
O   O148      1.0  0.93398  0.53795  0.85803  1.0000 -0.5703413099
O   O149      1.0  0.14197  0.43398  0.96205  1.0000 -0.5703413099
O   O150      1.0  0.64197  0.06602  0.03795  1.0000 -0.5703413099
O   O151      1.0  0.35803  0.56602  0.46205  1.0000 -0.5703413099
O   O152      1.0  0.85803  0.93398  0.53795  1.0000 -0.5703413099
O   O153      1.0  0.96205  0.14197  0.43398  1.0000 -0.5703413099
O   O154      1.0  0.03795  0.64197  0.06602  1.0000 -0.5703413099
O   O155      1.0  0.46205  0.35803  0.56602  1.0000 -0.5703413099
O   O156      1.0  0.53795  0.85803  0.93398  1.0000 -0.5703413099
O   O157      1.0  0.56602  0.03795  0.85803  1.0000 -0.5703413099
O   O158      1.0  0.93398  0.96205  0.35803  1.0000 -0.5703413099
O   O159      1.0  0.43398  0.53795  0.64197  1.0000 -0.5703413099
O   O160      1.0  0.06602  0.46205  0.14197  1.0000 -0.5703413099
O   O161      1.0  0.85803  0.56602  0.03795  1.0000 -0.5703413099
O   O162      1.0  0.35803  0.93398  0.96205  1.0000 -0.5703413099
O   O163      1.0  0.64197  0.43398  0.53795  1.0000 -0.5703413099
O   O164      1.0  0.14197  0.06602  0.46205  1.0000 -0.5703413099
O   O165      1.0  0.03795  0.85803  0.56602  1.0000 -0.5703413099
O   O166      1.0  0.96205  0.35803  0.93398  1.0000 -0.5703413099
O   O167      1.0  0.53795  0.64197  0.43398  1.0000 -0.5703413099
O   O168      1.0  0.46205  0.14197  0.06602  1.0000 -0.5703413099
O   O169      1.0  0.42635  0.95723  0.19030  1.0000 -0.5037314499
O   O170      1.0  0.07365  0.04277  0.69030  1.0000 -0.5037314499
O   O171      1.0  0.57365  0.45723  0.30970  1.0000 -0.5037314499
O   O172      1.0  0.92635  0.54277  0.80970  1.0000 -0.5037314499
O   O173      1.0  0.19030  0.42635  0.95723  1.0000 -0.5037314499
O   O174      1.0  0.69030  0.07365  0.04277  1.0000 -0.5037314499
O   O175      1.0  0.30970  0.57365  0.45723  1.0000 -0.5037314499
O   O176      1.0  0.80970  0.92635  0.54277  1.0000 -0.5037314499
O   O177      1.0  0.95723  0.19030  0.42635  1.0000 -0.5057568287
O   O178      1.0  0.04277  0.69030  0.07365  1.0000 -0.5037314499
O   O179      1.0  0.45723  0.30970  0.57365  1.0000 -0.5037314499
O   O180      1.0  0.54277  0.80970  0.92635  1.0000 -0.5037314499
O   O181      1.0  0.57365  0.04277  0.80970  1.0000 -0.5037314499
O   O182      1.0  0.92635  0.95723  0.30970  1.0000 -0.5037314499
O   O183      1.0  0.42635  0.54277  0.69030  1.0000 -0.5037314499
O   O184      1.0  0.07365  0.45723  0.19030  1.0000 -0.5037314499
O   O185      1.0  0.80970  0.57365  0.04277  1.0000 -0.5037314499
O   O186      1.0  0.30970  0.92635  0.95723  1.0000 -0.5037314499
O   O187      1.0  0.69030  0.42635  0.54277  1.0000 -0.5037314499
O   O188      1.0  0.19030  0.07365  0.45723  1.0000 -0.5037314499
O   O189      1.0  0.04277  0.80970  0.57365  1.0000 -0.5037314499
O   O190      1.0  0.95723  0.30970  0.92635  1.0000 -0.5037314499
O   O191      1.0  0.54277  0.69030  0.42635  1.0000 -0.5037314499
O   O192      1.0  0.45723  0.19030  0.07365  1.0000 -0.5037314499
