# DDEC6 charges by PACMAN v1.1 (https://github.com/mtap-research/PACMAN-charge/)
data_2017[Zn][dia]3[FSR]7
_chemical_formula_sum              "Zn4 H120 C176 N40 O16"
_cell_length_a       9.3086
_cell_length_b       21.1829
_cell_length_c       21.456
_cell_angle_alpha    90
_cell_angle_beta     90
_cell_angle_gamma    90

_symmetry_space_group_name_H-M    "P 1"
_symmetry_Int_Tables_number       1

loop_
  _symmetry_equiv_pos_as_xyz
  'x, y, z'

loop_
  _atom_site_type_symbol
  _atom_site_label
  _atom_site_symmetry_multiplicity
  _atom_site_fract_x
  _atom_site_fract_y
  _atom_site_fract_z
  _atom_site_occupancy
  _atom_site_charge
Zn  Zn1       1.0  0.92275  0.50286  0.14663  1.0000 0.7803187469
Zn  Zn2       1.0  0.57725  0.49714  0.64663  1.0000 0.7803187469
Zn  Zn3       1.0  0.07725  0.00286  0.35337  1.0000 0.7803187469
Zn  Zn4       1.0  0.42275  0.99714  0.85337  1.0000 0.7803187469
H   H1        1.0  0.60656  0.55974  0.14206  1.0000 0.1291412777
H   H2        1.0  0.89344  0.44026  0.64206  1.0000 0.1291412777
H   H3        1.0  0.39344  0.05974  0.35794  1.0000 0.1291412777
H   H4        1.0  0.10656  0.94026  0.85794  1.0000 0.1291412777
H   H5        1.0  0.82962  0.49534  0.00314  1.0000 0.1203018563
H   H6        1.0  0.67038  0.50466  0.50314  1.0000 0.1203018563
H   H7        1.0  0.17038  0.99534  0.49686  1.0000 0.1203018563
H   H8        1.0  0.32962  0.00466  0.99686  1.0000 0.1203018563
H   H9        1.0  0.81592  0.52969  0.75415  1.0000 0.1291412777
H   H10       1.0  0.68408  0.47031  0.25415  1.0000 0.1291412777
H   H11       1.0  0.18408  0.02969  0.74585  1.0000 0.1291412777
H   H12       1.0  0.31592  0.97031  0.24585  1.0000 0.1291412777
H   H13       1.0  0.50472  0.63557  0.69476  1.0000 0.1203018563
H   H14       1.0  0.99528  0.36443  0.19476  1.0000 0.1203018563
H   H15       1.0  0.49528  0.13557  0.80524  1.0000 0.1203018563
H   H16       1.0  0.00472  0.86443  0.30524  1.0000 0.1203018563
H   H17       1.0  0.53231  0.67424  0.21348  1.0000 0.1203018563
H   H18       1.0  0.96769  0.32576  0.71348  1.0000 0.1203018563
H   H19       1.0  0.46769  0.17424  0.28652  1.0000 0.1203018563
H   H20       1.0  0.03231  0.82576  0.78652  1.0000 0.1203018563
H   H21       1.0  0.56081  0.82838  0.30459  1.0000 0.1009889344
H   H22       1.0  0.93919  0.17162  0.80459  1.0000 0.1009889344
H   H23       1.0  0.43919  0.32838  0.19541  1.0000 0.1009889344
H   H24       1.0  0.06081  0.67162  0.69541  1.0000 0.1009889344
H   H25       1.0  0.47154  0.61704  0.95268  1.0000 0.1291412777
H   H26       1.0  0.02846  0.38296  0.45268  1.0000 0.1291412777
H   H27       1.0  0.52846  0.11704  0.54732  1.0000 0.1291412777
H   H28       1.0  0.97154  0.88296  0.04732  1.0000 0.1291412777
H   H29       1.0  0.25518  0.66735  0.93589  1.0000 0.1203018563
H   H30       1.0  0.24482  0.33265  0.43589  1.0000 0.1203018563
H   H31       1.0  0.74482  0.16735  0.56411  1.0000 0.1203018563
H   H32       1.0  0.75518  0.83265  0.06411  1.0000 0.1203018563
H   H33       1.0  0.12943  0.62323  0.10909  1.0000 0.1291412777
H   H34       1.0  0.37057  0.37677  0.60909  1.0000 0.1291412777
H   H35       1.0  0.87057  0.12323  0.39091  1.0000 0.1291412777
H   H36       1.0  0.62943  0.87677  0.89091  1.0000 0.1291412777
H   H37       1.0  0.34608  0.57392  0.12651  1.0000 0.1291412777
H   H38       1.0  0.15392  0.42608  0.62651  1.0000 0.1291412777
H   H39       1.0  0.65392  0.07392  0.37349  1.0000 0.1291412777
H   H40       1.0  0.84608  0.92608  0.87349  1.0000 0.1291412777
H   H41       1.0  0.78398  0.72425  0.83506  1.0000 0.1291412777
H   H42       1.0  0.71602  0.27575  0.33506  1.0000 0.1291412777
H   H43       1.0  0.21602  0.22425  0.66494  1.0000 0.1291412777
H   H44       1.0  0.28398  0.77575  0.16494  1.0000 0.1291412777
H   H45       1.0  0.89397  0.74883  0.92814  1.0000 0.1203018563
H   H46       1.0  0.60603  0.25117  0.42814  1.0000 0.1203018563
H   H47       1.0  0.10603  0.24883  0.57186  1.0000 0.1203018563
H   H48       1.0  0.39397  0.75117  0.07186  1.0000 0.1203018563
H   H49       1.0  0.02454  0.56895  0.94538  1.0000 0.1480468313
H   H50       1.0  0.47546  0.43105  0.44538  1.0000 0.1480468313
H   H51       1.0  0.97546  0.06895  0.55462  1.0000 0.1480468313
H   H52       1.0  0.52454  0.93105  0.05462  1.0000 0.1480468313
H   H53       1.0  0.90219  0.54328  0.85573  1.0000 0.1357881675
H   H54       1.0  0.59781  0.45672  0.35573  1.0000 0.1357881675
H   H55       1.0  0.09781  0.04328  0.64427  1.0000 0.1357881675
H   H56       1.0  0.40219  0.95672  0.14427  1.0000 0.1357881675
H   H57       1.0  0.93681  0.77370  0.18510  1.0000 0.1291412777
H   H58       1.0  0.56319  0.22630  0.68510  1.0000 0.1291412777
H   H59       1.0  0.06319  0.27370  0.31490  1.0000 0.1291412777
H   H60       1.0  0.43681  0.72630  0.81490  1.0000 0.1291412777
H   H61       1.0  0.08321  0.74725  0.10255  1.0000 0.1203018563
H   H62       1.0  0.41679  0.25275  0.60255  1.0000 0.1203018563
H   H63       1.0  0.91679  0.24725  0.39745  1.0000 0.1203018563
H   H64       1.0  0.58321  0.75275  0.89745  1.0000 0.1203018563
H   H65       1.0  0.75625  0.65662  0.02042  1.0000 0.1203018563
H   H66       1.0  0.74375  0.34338  0.52042  1.0000 0.1203018563
H   H67       1.0  0.24375  0.15662  0.47958  1.0000 0.1203018563
H   H68       1.0  0.25625  0.84338  0.97958  1.0000 0.1203018563
H   H69       1.0  0.60703  0.68839  0.10032  1.0000 0.1113767403
H   H70       1.0  0.89297  0.31161  0.60032  1.0000 0.1113767403
H   H71       1.0  0.39297  0.18839  0.39968  1.0000 0.1113767403
H   H72       1.0  0.10703  0.81161  0.89968  1.0000 0.1113767403
H   H73       1.0  0.35133  0.44711  0.14200  1.0000 0.1113767403
H   H74       1.0  0.14867  0.55289  0.64200  1.0000 0.1113767403
H   H75       1.0  0.64867  0.94711  0.35800  1.0000 0.1113767403
H   H76       1.0  0.85133  0.05289  0.85800  1.0000 0.1113767403
H   H77       1.0  0.57923  0.40322  0.13382  1.0000 0.1113767403
H   H78       1.0  0.92077  0.59678  0.63382  1.0000 0.1113767403
H   H79       1.0  0.42077  0.90322  0.36618  1.0000 0.1113767403
H   H80       1.0  0.07923  0.09678  0.86618  1.0000 0.1113767403
H   H81       1.0  0.49346  0.35442  0.95705  1.0000 0.1113767403
H   H82       1.0  0.00654  0.64558  0.45705  1.0000 0.1113767403
H   H83       1.0  0.50654  0.85442  0.54295  1.0000 0.1113767403
H   H84       1.0  0.99346  0.14558  0.04295  1.0000 0.1113767403
H   H85       1.0  0.26551  0.39711  0.96697  1.0000 0.1203018563
H   H86       1.0  0.23449  0.60289  0.46697  1.0000 0.1203018563
H   H87       1.0  0.73449  0.89711  0.53303  1.0000 0.1203018563
H   H88       1.0  0.76551  0.10289  0.03303  1.0000 0.1203018563
H   H89       1.0  0.23826  0.17210  0.18933  1.0000 0.1113767403
H   H90       1.0  0.26174  0.82790  0.68933  1.0000 0.1113767403
H   H91       1.0  0.76174  0.67210  0.31067  1.0000 0.1113767403
H   H92       1.0  0.73826  0.32790  0.81067  1.0000 0.1113767403
H   H93       1.0  0.15868  0.24457  0.11777  1.0000 0.1203018563
H   H94       1.0  0.34132  0.75543  0.61777  1.0000 0.1203018563
H   H95       1.0  0.84132  0.74457  0.38223  1.0000 0.1203018563
H   H96       1.0  0.65868  0.25543  0.88223  1.0000 0.1203018563
H   H97       1.0  0.75304  0.21230  0.17130  1.0000 0.1203018563
H   H98       1.0  0.74696  0.78770  0.67130  1.0000 0.1203018563
H   H99       1.0  0.24696  0.71230  0.32870  1.0000 0.1203018563
H   H100      1.0  0.25304  0.28770  0.82870  1.0000 0.1203018563
H   H101      1.0  0.83352  0.14257  0.24582  1.0000 0.1203018563
H   H102      1.0  0.66648  0.85743  0.74582  1.0000 0.1203018563
H   H103      1.0  0.16648  0.64257  0.25418  1.0000 0.1203018563
H   H104      1.0  0.33352  0.35743  0.75418  1.0000 0.1203018563
H   H105      1.0  0.06499  0.26901  0.02754  1.0000 0.1113767403
H   H106      1.0  0.43501  0.73099  0.52754  1.0000 0.1113767403
H   H107      1.0  0.93501  0.76901  0.47246  1.0000 0.1113767403
H   H108      1.0  0.56499  0.23099  0.97246  1.0000 0.1113767403
H   H109      1.0  0.97544  0.32793  0.94554  1.0000 0.1203018563
H   H110      1.0  0.52456  0.67207  0.44554  1.0000 0.1203018563
H   H111      1.0  0.02456  0.82793  0.55446  1.0000 0.1203018563
H   H112      1.0  0.47544  0.17207  0.05446  1.0000 0.1203018563
H   H113      1.0  0.75324  0.37563  0.95345  1.0000 0.1203018563
H   H114      1.0  0.74676  0.62437  0.45345  1.0000 0.1203018563
H   H115      1.0  0.24676  0.87563  0.54655  1.0000 0.1203018563
H   H116      1.0  0.25324  0.12437  0.04655  1.0000 0.1203018563
H   H117      1.0  0.70566  0.30298  0.12416  1.0000 0.1113767403
H   H118      1.0  0.79434  0.69702  0.62416  1.0000 0.1113767403
H   H119      1.0  0.29434  0.80298  0.37584  1.0000 0.1113767403
H   H120      1.0  0.20566  0.19702  0.87584  1.0000 0.1113767403
C   C1        1.0  0.63660  0.54860  0.10220  1.0000 0.073814755
C   C2        1.0  0.86340  0.45140  0.60220  1.0000 0.073814755
C   C3        1.0  0.36340  0.04860  0.39780  1.0000 0.073814755
C   C4        1.0  0.13660  0.95140  0.89780  1.0000 0.073814755
C   C5        1.0  0.75590  0.51410  0.02580  1.0000 0.1480468313
C   C6        1.0  0.74410  0.48590  0.52580  1.0000 0.1480468313
C   C7        1.0  0.24410  0.01410  0.47420  1.0000 0.1480468313
C   C8        1.0  0.25590  0.98590  0.97420  1.0000 0.1480468313
C   C9        1.0  0.75090  0.56260  0.74910  1.0000 0.0920137005
C   C10       1.0  0.74910  0.43740  0.24910  1.0000 0.0920137005
C   C11       1.0  0.24910  0.06260  0.75090  1.0000 0.0920137005
C   C12       1.0  0.25090  0.93740  0.25090  1.0000 0.0920137005
C   C13       1.0  0.58230  0.62110  0.71810  1.0000 0.1566421339
C   C14       1.0  0.91770  0.37890  0.21810  1.0000 0.1566421339
C   C15       1.0  0.41770  0.12110  0.78190  1.0000 0.1566421339
C   C16       1.0  0.08230  0.87890  0.28190  1.0000 0.1566421339
C   C17       1.0  0.56060  0.71390  0.22740  1.0000 0.0920137005
C   C18       1.0  0.93940  0.28610  0.72740  1.0000 0.0920137005
C   C19       1.0  0.43940  0.21390  0.27260  1.0000 0.0920137005
C   C20       1.0  0.06060  0.78610  0.77260  1.0000 0.0920137005
C   C21       1.0  0.57860  0.79680  0.27550  1.0000 0.1291412777
C   C22       1.0  0.92140  0.20320  0.77550  1.0000 0.1291412777
C   C23       1.0  0.42140  0.29680  0.22450  1.0000 0.1291412777
C   C24       1.0  0.07860  0.70320  0.72450  1.0000 0.1291412777
C   C25       1.0  0.42930  0.58965  0.04120  1.0000 0.1203018563
C   C26       1.0  0.07070  0.41035  0.54120  1.0000 0.1203018563
C   C27       1.0  0.57070  0.08965  0.45880  1.0000 0.1203018563
C   C28       1.0  0.92930  0.91035  0.95880  1.0000 0.1203018563
C   C29       1.0  0.40250  0.61810  0.98400  1.0000 -0.1598811572
C   C30       1.0  0.09750  0.38190  0.48400  1.0000 -0.1598811572
C   C31       1.0  0.59750  0.11810  0.51600  1.0000 -0.1598811572
C   C32       1.0  0.90250  0.88190  0.01600  1.0000 -0.1598811572
C   C33       1.0  0.27280  0.64780  0.97400  1.0000 -0.1713826274
C   C34       1.0  0.22720  0.35220  0.47400  1.0000 -0.1713826274
C   C35       1.0  0.72720  0.14780  0.52600  1.0000 -0.1713826274
C   C36       1.0  0.77280  0.85220  0.02600  1.0000 -0.1713826274
C   C37       1.0  0.16770  0.64900  0.02040  1.0000 0.1757977108
C   C38       1.0  0.33230  0.35100  0.52040  1.0000 0.1757977108
C   C39       1.0  0.83230  0.14900  0.47960  1.0000 0.1757977108
C   C40       1.0  0.66770  0.85100  0.97960  1.0000 0.1757977108
C   C41       1.0  0.19760  0.62170  0.07740  1.0000 -0.1598811572
C   C42       1.0  0.30240  0.37830  0.57740  1.0000 -0.1598811572
C   C43       1.0  0.80240  0.12170  0.42260  1.0000 -0.1598811572
C   C44       1.0  0.69760  0.87830  0.92260  1.0000 -0.1598811572
C   C45       1.0  0.32720  0.59220  0.08790  1.0000 -0.1783107482
C   C46       1.0  0.17280  0.40780  0.58790  1.0000 -0.1783107482
C   C47       1.0  0.67280  0.09220  0.41210  1.0000 -0.1783107482
C   C48       1.0  0.82720  0.90780  0.91210  1.0000 -0.1783107482
C   C49       1.0  0.82910  0.63080  0.83780  1.0000 0.1203018563
C   C50       1.0  0.67090  0.36920  0.33780  1.0000 0.1203018563
C   C51       1.0  0.17090  0.13080  0.66220  1.0000 0.1203018563
C   C52       1.0  0.32910  0.86920  0.16220  1.0000 0.1203018563
C   C53       1.0  0.82910  0.69300  0.85830  1.0000 -0.1598811572
C   C54       1.0  0.67090  0.30700  0.35830  1.0000 -0.1598811572
C   C55       1.0  0.17090  0.19300  0.64170  1.0000 -0.1598811572
C   C56       1.0  0.32910  0.80700  0.14170  1.0000 -0.1598811572
C   C57       1.0  0.89650  0.70760  0.91320  1.0000 -0.1783107482
C   C58       1.0  0.60350  0.29240  0.41320  1.0000 -0.1783107482
C   C59       1.0  0.10350  0.20760  0.58680  1.0000 -0.1783107482
C   C60       1.0  0.39650  0.79240  0.08680  1.0000 -0.1783107482
C   C61       1.0  0.96900  0.66100  0.94680  1.0000 0.1713581184
C   C62       1.0  0.53100  0.33900  0.44680  1.0000 0.1713581184
C   C63       1.0  0.03100  0.16100  0.55320  1.0000 0.1713581184
C   C64       1.0  0.46900  0.83900  0.05320  1.0000 0.1713581184
C   C65       1.0  0.97320  0.59980  0.92410  1.0000 -0.1598811572
C   C66       1.0  0.52680  0.40020  0.42410  1.0000 -0.1598811572
C   C67       1.0  0.02680  0.09980  0.57590  1.0000 -0.1598811572
C   C68       1.0  0.47320  0.90020  0.07590  1.0000 -0.1598811572
C   C69       1.0  0.90170  0.58460  0.87030  1.0000 -0.1598811572
C   C70       1.0  0.59830  0.41540  0.37030  1.0000 -0.1598811572
C   C71       1.0  0.09830  0.08460  0.62970  1.0000 -0.1598811572
C   C72       1.0  0.40170  0.91540  0.12970  1.0000 -0.1598811572
C   C73       1.0  0.75830  0.73220  0.15080  1.0000 0.1203018563
C   C74       1.0  0.74170  0.26780  0.65080  1.0000 0.1203018563
C   C75       1.0  0.24170  0.23220  0.34920  1.0000 0.1203018563
C   C76       1.0  0.25830  0.76780  0.84920  1.0000 0.1203018563
C   C77       1.0  0.90070  0.75040  0.15190  1.0000 -0.1474419957
C   C78       1.0  0.59930  0.24960  0.65190  1.0000 -0.1474419957
C   C79       1.0  0.09930  0.25040  0.34810  1.0000 -0.1474419957
C   C80       1.0  0.40070  0.74960  0.84810  1.0000 -0.1474419957
C   C81       1.0  0.98840  0.73340  0.10290  1.0000 -0.1713826274
C   C82       1.0  0.51160  0.26660  0.60290  1.0000 -0.1713826274
C   C83       1.0  0.01160  0.23340  0.39710  1.0000 -0.1713826274
C   C84       1.0  0.48840  0.76660  0.89710  1.0000 -0.1713826274
C   C85       1.0  0.93890  0.69623  0.05390  1.0000 0.1891605953
C   C86       1.0  0.56110  0.30377  0.55390  1.0000 0.1891605953
C   C87       1.0  0.06110  0.19623  0.44610  1.0000 0.1891605953
C   C88       1.0  0.43890  0.80377  0.94610  1.0000 0.1891605953
C   C89       1.0  0.79330  0.68010  0.05340  1.0000 -0.1783107482
C   C90       1.0  0.70670  0.31990  0.55340  1.0000 -0.1783107482
C   C91       1.0  0.20670  0.18010  0.44660  1.0000 -0.1783107482
C   C92       1.0  0.29330  0.81990  0.94660  1.0000 -0.1783107482
C   C93       1.0  0.70410  0.69870  0.10140  1.0000 -0.1713826274
C   C94       1.0  0.79590  0.30130  0.60140  1.0000 -0.1713826274
C   C95       1.0  0.29590  0.19870  0.39860  1.0000 -0.1713826274
C   C96       1.0  0.20410  0.80130  0.89860  1.0000 -0.1713826274
C   C97       1.0  0.13530  0.45430  0.06090  1.0000 0.5553175906
C   C98       1.0  0.36470  0.54570  0.56090  1.0000 0.5553175906
C   C99       1.0  0.86470  0.95430  0.43910  1.0000 0.5553175906
C   C100      1.0  0.63530  0.04570  0.93910  1.0000 0.5553175906
C   C101      1.0  0.09830  0.09940  0.26990  1.0000 0.5509216288
C   C102      1.0  0.40170  0.90060  0.76990  1.0000 0.5509216288
C   C103      1.0  0.90170  0.59940  0.23010  1.0000 0.5509216288
C   C104      1.0  0.59830  0.40060  0.73010  1.0000 0.5509216288
C   C105      1.0  0.28370  0.42450  0.05580  1.0000 -0.0235155461
C   C106      1.0  0.21630  0.57550  0.55580  1.0000 -0.0235155461
C   C107      1.0  0.71630  0.92450  0.44420  1.0000 -0.0235155461
C   C108      1.0  0.78370  0.07550  0.94420  1.0000 -0.0235155461
C   C109      1.0  0.37900  0.42750  0.10510  1.0000 -0.1254708538
C   C110      1.0  0.12100  0.57250  0.60510  1.0000 -0.1254708538
C   C111      1.0  0.62100  0.92750  0.39490  1.0000 -0.1254708538
C   C112      1.0  0.87900  0.07250  0.89490  1.0000 -0.1254708538
C   C113      1.0  0.51650  0.40140  0.10010  1.0000 -0.1713826274
C   C114      1.0  0.98350  0.59860  0.60010  1.0000 -0.1713826274
C   C115      1.0  0.48350  0.90140  0.39990  1.0000 -0.1713826274
C   C116      1.0  0.01650  0.09860  0.89990  1.0000 -0.1713826274
C   C117      1.0  0.55950  0.37270  0.04480  1.0000 0.073814755
C   C118      1.0  0.94050  0.62730  0.54480  1.0000 0.073814755
C   C119      1.0  0.44050  0.87270  0.45520  1.0000 0.073814755
C   C120      1.0  0.05950  0.12730  0.95520  1.0000 0.073814755
C   C121      1.0  0.46520  0.37210  0.99480  1.0000 -0.1401495127
C   C122      1.0  0.03480  0.62790  0.49480  1.0000 -0.1401495127
C   C123      1.0  0.53480  0.87210  0.50520  1.0000 -0.1401495127
C   C124      1.0  0.96520  0.12790  0.00520  1.0000 -0.1401495127
C   C125      1.0  0.32790  0.39800  0.00080  1.0000 -0.101239744
C   C126      1.0  0.17210  0.60200  0.50080  1.0000 -0.101239744
C   C127      1.0  0.67210  0.89800  0.49920  1.0000 -0.101239744
C   C128      1.0  0.82790  0.10200  0.99920  1.0000 -0.101239744
C   C129      1.0  0.04450  0.14760  0.22410  1.0000 -0.0314041072
C   C130      1.0  0.45550  0.85240  0.72410  1.0000 -0.0314041072
C   C131      1.0  0.95550  0.64760  0.27590  1.0000 -0.0314041072
C   C132      1.0  0.54450  0.35240  0.77590  1.0000 -0.0314041072
C   C133      1.0  0.14030  0.17990  0.18570  1.0000 -0.101239744
C   C134      1.0  0.35970  0.82010  0.68570  1.0000 -0.101239744
C   C135      1.0  0.85970  0.67990  0.31430  1.0000 -0.101239744
C   C136      1.0  0.64030  0.32010  0.81430  1.0000 -0.101239744
C   C137      1.0  0.09240  0.22320  0.14240  1.0000 -0.1598811572
C   C138      1.0  0.40760  0.77680  0.64240  1.0000 -0.1598811572
C   C139      1.0  0.90760  0.72320  0.35760  1.0000 -0.1598811572
C   C140      1.0  0.59240  0.27680  0.85760  1.0000 -0.1598811572
C   C141      1.0  0.94570  0.23550  0.13500  1.0000 0.0643456528
C   C142      1.0  0.55430  0.76450  0.63500  1.0000 0.0643456528
C   C143      1.0  0.05430  0.73550  0.36500  1.0000 0.0643456528
C   C144      1.0  0.44570  0.26450  0.86500  1.0000 0.0643456528
C   C145      1.0  0.85100  0.20440  0.17470  1.0000 -0.1474419957
C   C146      1.0  0.64900  0.79560  0.67470  1.0000 -0.1474419957
C   C147      1.0  0.14900  0.70440  0.32530  1.0000 -0.1474419957
C   C148      1.0  0.35100  0.29560  0.82530  1.0000 -0.1474419957
C   C149      1.0  0.89900  0.16180  0.21910  1.0000 -0.101239744
C   C150      1.0  0.60100  0.83820  0.71910  1.0000 -0.101239744
C   C151      1.0  0.10100  0.66180  0.28090  1.0000 -0.101239744
C   C152      1.0  0.39900  0.33820  0.78090  1.0000 -0.101239744
C   C153      1.0  0.89360  0.27830  0.08480  1.0000 0.073814755
C   C154      1.0  0.60640  0.72170  0.58480  1.0000 0.073814755
C   C155      1.0  0.10640  0.77830  0.41520  1.0000 0.073814755
C   C156      1.0  0.39360  0.22170  0.91520  1.0000 0.073814755
C   C157      1.0  0.97440  0.28720  0.03070  1.0000 -0.1474419957
C   C158      1.0  0.52560  0.71280  0.53070  1.0000 -0.1474419957
C   C159      1.0  0.02560  0.78720  0.46930  1.0000 -0.1474419957
C   C160      1.0  0.47440  0.21280  0.96930  1.0000 -0.1474419957
C   C161      1.0  0.92120  0.32300  0.98160  1.0000 -0.0756128033
C   C162      1.0  0.57880  0.67700  0.48160  1.0000 -0.0756128033
C   C163      1.0  0.07880  0.82300  0.51840  1.0000 -0.0756128033
C   C164      1.0  0.42120  0.17700  0.01840  1.0000 -0.0756128033
C   C165      1.0  0.78780  0.35120  0.98620  1.0000 -0.1474419957
C   C166      1.0  0.71220  0.64880  0.48620  1.0000 -0.1474419957
C   C167      1.0  0.21220  0.85120  0.51380  1.0000 -0.1474419957
C   C168      1.0  0.28780  0.14880  0.01380  1.0000 -0.1474419957
C   C169      1.0  0.70560  0.34340  0.03930  1.0000 0.073814755
C   C170      1.0  0.79440  0.65660  0.53930  1.0000 0.073814755
C   C171      1.0  0.29440  0.84340  0.46070  1.0000 0.073814755
C   C172      1.0  0.20560  0.15660  0.96070  1.0000 0.073814755
C   C173      1.0  0.76020  0.30760  0.08810  1.0000 -0.1956079205
C   C174      1.0  0.73980  0.69240  0.58810  1.0000 -0.1956079205
C   C175      1.0  0.23980  0.80760  0.41190  1.0000 -0.1956079205
C   C176      1.0  0.26020  0.19240  0.91190  1.0000 -0.1956079205
N   N1        1.0  0.76060  0.52110  0.08810  1.0000 -0.3158898814
N   N2        1.0  0.73940  0.47890  0.58810  1.0000 -0.3158898814
N   N3        1.0  0.23940  0.02110  0.41190  1.0000 -0.3158898814
N   N4        1.0  0.26060  0.97890  0.91190  1.0000 -0.3158898814
N   N5        1.0  0.56250  0.55773  0.04996  1.0000 0.1291412777
N   N6        1.0  0.93750  0.44227  0.54996  1.0000 0.1291412777
N   N7        1.0  0.43750  0.05773  0.45004  1.0000 0.1291412777
N   N8        1.0  0.06250  0.94227  0.95004  1.0000 0.1291412777
N   N9        1.0  0.63790  0.53596  0.99974  1.0000 -0.2433796538
N   N10       1.0  0.86210  0.46404  0.49974  1.0000 -0.2433796538
N   N11       1.0  0.36210  0.03596  0.50026  1.0000 -0.2433796538
N   N12       1.0  0.13790  0.96404  0.00026  1.0000 -0.2433796538
N   N13       1.0  0.64790  0.56457  0.70676  1.0000 -0.3158898814
N   N14       1.0  0.85210  0.43543  0.20676  1.0000 -0.3158898814
N   N15       1.0  0.35210  0.06457  0.79324  1.0000 -0.3158898814
N   N16       1.0  0.14790  0.93543  0.29324  1.0000 -0.3158898814
N   N17       1.0  0.74780  0.61464  0.78323  1.0000 0.1203018563
N   N18       1.0  0.75220  0.38536  0.28323  1.0000 0.1203018563
N   N19       1.0  0.25220  0.11464  0.71677  1.0000 0.1203018563
N   N20       1.0  0.24780  0.88536  0.21677  1.0000 0.1203018563
N   N21       1.0  0.63740  0.65332  0.76423  1.0000 -0.2339061996
N   N22       1.0  0.86260  0.34668  0.26423  1.0000 -0.2339061996
N   N23       1.0  0.36260  0.15332  0.73577  1.0000 -0.2339061996
N   N24       1.0  0.13740  0.84668  0.23577  1.0000 -0.2339061996
N   N25       1.0  0.50220  0.74320  0.27500  1.0000 -0.3427110215
N   N26       1.0  0.99780  0.25680  0.77500  1.0000 -0.3427110215
N   N27       1.0  0.49780  0.24320  0.22500  1.0000 -0.3427110215
N   N28       1.0  0.00220  0.75680  0.72500  1.0000 -0.3427110215
N   N29       1.0  0.66640  0.74810  0.20124  1.0000 0.1203018563
N   N30       1.0  0.83360  0.25190  0.70124  1.0000 0.1203018563
N   N31       1.0  0.33360  0.24810  0.29876  1.0000 0.1203018563
N   N32       1.0  0.16640  0.75190  0.79876  1.0000 0.1203018563
N   N33       1.0  0.68100  0.80300  0.23250  1.0000 -0.2519325664
N   N34       1.0  0.81900  0.19700  0.73250  1.0000 -0.2519325664
N   N35       1.0  0.31900  0.30300  0.26750  1.0000 -0.2519325664
N   N36       1.0  0.18100  0.69700  0.76750  1.0000 -0.2519325664
N   N37       1.0  0.03180  0.67610  0.00628  1.0000 -0.1713826274
N   N38       1.0  0.46820  0.32390  0.50628  1.0000 -0.1713826274
N   N39       1.0  0.96820  0.17610  0.49372  1.0000 -0.1713826274
N   N40       1.0  0.53180  0.82390  0.99372  1.0000 -0.1713826274
O   O1        1.0  0.09280  0.46123  0.11715  1.0000 -0.5496306395
O   O2        1.0  0.40720  0.53877  0.61715  1.0000 -0.5496306395
O   O3        1.0  0.90720  0.96123  0.38285  1.0000 -0.5496306395
O   O4        1.0  0.59280  0.03877  0.88285  1.0000 -0.5496306395
O   O5        1.0  0.07090  0.47045  0.01435  1.0000 -0.5361629923
O   O6        1.0  0.42910  0.52955  0.51435  1.0000 -0.5361629923
O   O7        1.0  0.92910  0.97045  0.48565  1.0000 -0.5361629923
O   O8        1.0  0.57090  0.02955  0.98565  1.0000 -0.5361629923
O   O9        1.0  0.00350  0.07453  0.30556  1.0000 -0.5496306395
O   O10       1.0  0.49650  0.92547  0.80556  1.0000 -0.5496306395
O   O11       1.0  0.99650  0.57453  0.19444  1.0000 -0.5496306395
O   O12       1.0  0.50350  0.42547  0.69444  1.0000 -0.5496306395
O   O13       1.0  0.22760  0.08516  0.27102  1.0000 -0.5878476998
O   O14       1.0  0.27240  0.91484  0.77102  1.0000 -0.5878476998
O   O15       1.0  0.77240  0.58516  0.22898  1.0000 -0.5878476998
O   O16       1.0  0.72760  0.41484  0.72898  1.0000 -0.5878476998
