# DDEC6 charges by PACMAN v1.1 (https://github.com/mtap-research/PACMAN-charge/)
data_c9ce01567a2_4_FSR_pacman
_symmetry_space_group_name_H-M   'P 1'
_cell_length_a   44.21000000
_cell_length_b   44.21000000
_cell_length_c   44.21000000
_cell_angle_alpha   90.00000000
_cell_angle_beta   90.00000000
_cell_angle_gamma   90.00000000
_symmetry_Int_Tables_number   1
_chemical_formula_structural   Zn95H1139C2206O395
_chemical_formula_sum   'Zn95 H1139 C2206 O395'
_cell_volume   86409.51046100
_cell_formula_units_Z   1
loop_
 _symmetry_equiv_pos_site_id
 _symmetry_equiv_pos_as_xyz
  1  'x, y, z'
loop_
 _atom_site_type_symbol
 _atom_site_label
 _atom_site_symmetry_multiplicity
 _atom_site_fract_x
 _atom_site_fract_y
 _atom_site_fract_z
 _atom_site_occupancy
 _atom_site_charge
Zn  Zn1  1  0.25000000  0.00000000  0.25000000  1.0 0.9026550116
Zn  Zn2  1  0.50000000  0.75000000  0.25000000  1.0 0.8224864929
Zn  Zn3  1  0.25000000  0.75000000  0.00000000  1.0 0.9689632451
Zn  Zn4  1  0.50000000  0.00000000  0.00000000  1.0 0.8369905192
Zn  Zn5  1  0.75000000  0.25000000  0.00000000  1.0 0.9026550116
Zn  Zn6  1  0.00000000  0.75000000  0.75000000  1.0 0.9026550116
Zn  Zn7  1  0.00000000  0.50000000  0.00000000  1.0 0.7701382964
Zn  Zn8  1  0.75000000  0.75000000  0.50000000  1.0 0.8224864929
Zn  Zn9  1  0.75000000  0.50000000  0.25000000  1.0 0.8224864929
Zn  Zn10  1  0.75000000  0.00000000  0.75000000  1.0 0.9689632451
Zn  Zn11  1  0.00000000  0.25000000  0.25000000  1.0 0.9689632451
Zn  Zn12  1  0.00000000  0.00000000  0.50000000  1.0 0.8369905192
Zn  Zn13  1  0.50000000  0.75000000  0.75000000  1.0 1.0323285489
Zn  Zn14  1  0.75000000  0.00000000  0.25000000  1.0 0.9026550116
Zn  Zn15  1  0.75000000  0.75000000  0.00000000  1.0 0.9026550116
Zn  Zn16  1  0.50000000  0.00000000  0.50000000  1.0 0.8369905192
Zn  Zn17  1  0.75000000  0.25000000  0.50000000  1.0 1.0158636301
Zn  Zn18  1  0.00000000  0.50000000  0.50000000  1.0 0.8285609413
Zn  Zn19  1  0.00000000  0.25000000  0.75000000  1.0 0.9689632451
Zn  Zn20  1  0.00000000  0.75000000  0.25000000  1.0 0.9026550116
Zn  Zn21  1  0.25000000  0.50000000  0.75000000  1.0 0.9689632451
Zn  Zn22  1  0.50000000  0.25000000  0.75000000  1.0 0.8369905192
Zn  Zn23  1  0.25000000  0.25000000  0.50000000  1.0 0.9689632451
Zn  Zn24  1  0.50000000  0.50000000  0.50000000  1.0 0.9445830314
Zn  Zn25  1  0.50000000  0.25000000  0.25000000  1.0 0.9026550116
Zn  Zn26  1  0.75000000  0.50000000  0.75000000  1.0 0.9026550116
Zn  Zn27  1  0.50000000  0.50000000  0.00000000  1.0 0.8369905192
Zn  Zn28  1  0.00000000  0.00000000  0.00000000  1.0 0.9689632451
Zn  Zn29  1  0.25000000  0.00000000  0.75000000  1.0 0.9689632451
Zn  Zn30  1  0.25000000  0.75000000  0.50000000  1.0 0.9026550116
Zn  Zn31  1  0.25000000  0.25000000  0.00000000  1.0 0.9689632451
Zn  Zn32  1  0.25000000  0.50000000  0.25000000  1.0 1.0158636301
Zn  Zn33  1  0.29847000  0.95153000  0.20153000  1.0 0.8369905192
Zn  Zn34  1  0.45153000  0.79847000  0.20153000  1.0 0.7183199852
Zn  Zn35  1  0.29847000  0.79847000  0.04847000  1.0 1.0397914379
Zn  Zn36  1  0.45153000  0.95153000  0.04847000  1.0 0.8285609413
Zn  Zn37  1  0.79847000  0.29847000  0.04847000  1.0 0.8369905192
Zn  Zn38  1  0.95153000  0.79847000  0.70153000  1.0 0.8369905192
Zn  Zn39  1  0.95153000  0.45153000  0.04847000  1.0 0.7183199852
Zn  Zn40  1  0.79847000  0.79847000  0.54847000  1.0 0.7183199852
Zn  Zn41  1  0.79847000  0.45153000  0.20153000  1.0 0.7183199852
Zn  Zn42  1  0.79847000  0.95153000  0.70153000  1.0 1.0397914379
Zn  Zn43  1  0.95153000  0.29847000  0.20153000  1.0 1.0397914379
Zn  Zn44  1  0.95153000  0.95153000  0.54847000  1.0 0.8285609413
Zn  Zn45  1  0.54847000  0.70153000  0.79847000  1.0 1.0323285489
Zn  Zn46  1  0.70153000  0.04847000  0.29847000  1.0 0.8285609413
Zn  Zn47  1  0.70153000  0.70153000  0.95153000  1.0 0.8285609413
Zn  Zn48  1  0.54847000  0.04847000  0.45153000  1.0 0.8285609413
Zn  Zn49  1  0.70153000  0.20153000  0.45153000  1.0 1.0323285489
Zn  Zn50  1  0.04847000  0.54847000  0.45153000  1.0 0.8285609413
Zn  Zn51  1  0.04847000  0.20153000  0.79847000  1.0 1.0397914379
Zn  Zn52  1  0.04847000  0.70153000  0.29847000  1.0 0.8285609413
Zn  Zn53  1  0.29847000  0.45153000  0.70153000  1.0 1.0323285489
Zn  Zn54  1  0.45153000  0.29847000  0.70153000  1.0 0.8224864929
Zn  Zn55  1  0.29847000  0.29847000  0.54847000  1.0 1.0323285489
Zn  Zn56  1  0.45153000  0.45153000  0.54847000  1.0 1.069411084
Zn  Zn57  1  0.54847000  0.20153000  0.29847000  1.0 0.8369905192
Zn  Zn58  1  0.70153000  0.54847000  0.79847000  1.0 0.8369905192
Zn  Zn59  1  0.54847000  0.54847000  0.95153000  1.0 0.8285609413
Zn  Zn60  1  0.04847000  0.04847000  0.95153000  1.0 1.0397914379
Zn  Zn61  1  0.20153000  0.04847000  0.79847000  1.0 1.0397914379
Zn  Zn62  1  0.20153000  0.70153000  0.45153000  1.0 0.8369905192
Zn  Zn63  1  0.20153000  0.20153000  0.95153000  1.0 1.0397914379
Zn  Zn64  1  0.20153000  0.54847000  0.29847000  1.0 1.0323285489
Zn  Zn65  1  0.70153000  0.04847000  0.79847000  1.0 1.0816563695
Zn  Zn66  1  0.04847000  0.70153000  0.79847000  1.0 0.9970233659
Zn  Zn67  1  0.70153000  0.70153000  0.45153000  1.0 0.9837599723
Zn  Zn68  1  0.04847000  0.04847000  0.45153000  1.0 0.9970233659
Zn  Zn69  1  0.20153000  0.70153000  0.95153000  1.0 1.069411084
Zn  Zn70  1  0.04847000  0.20153000  0.29847000  1.0 1.069411084
Zn  Zn71  1  0.54847000  0.04847000  0.95153000  1.0 0.9970233659
Zn  Zn72  1  0.70153000  0.20153000  0.95153000  1.0 0.9970233659
Zn  Zn73  1  0.20153000  0.04847000  0.29847000  1.0 0.9970233659
Zn  Zn74  1  0.70153000  0.54847000  0.29847000  1.0 0.9837599723
Zn  Zn75  1  0.54847000  0.70153000  0.29847000  1.0 0.9837599723
Zn  Zn76  1  0.04847000  0.54847000  0.95153000  1.0 0.9347939222
Zn  Zn77  1  0.45153000  0.29847000  0.20153000  1.0 0.9970233659
Zn  Zn78  1  0.79847000  0.45153000  0.70153000  1.0 0.9970233659
Zn  Zn79  1  0.79847000  0.29847000  0.54847000  1.0 1.0323285489
Zn  Zn80  1  0.45153000  0.45153000  0.04847000  1.0 0.9970233659
Zn  Zn81  1  0.29847000  0.79847000  0.54847000  1.0 0.9970233659
Zn  Zn82  1  0.29847000  0.95153000  0.70153000  1.0 1.059003803
Zn  Zn83  1  0.45153000  0.95153000  0.54847000  1.0 0.9970233659
Zn  Zn84  1  0.45153000  0.79847000  0.70153000  1.0 1.0397914379
Zn  Zn85  1  0.29847000  0.45153000  0.20153000  1.0 1.0323285489
Zn  Zn86  1  0.95153000  0.95153000  0.04847000  1.0 1.069411084
Zn  Zn87  1  0.20153000  0.20153000  0.45153000  1.0 1.069411084
Zn  Zn88  1  0.79847000  0.79847000  0.04847000  1.0 0.9850457041
Zn  Zn89  1  0.29847000  0.29847000  0.04847000  1.0 1.059003803
Zn  Zn90  1  0.95153000  0.45153000  0.54847000  1.0 0.9970233659
Zn  Zn91  1  0.54847000  0.20153000  0.79847000  1.0 1.006931278
Zn  Zn92  1  0.95153000  0.29847000  0.70153000  1.0 1.059003803
Zn  Zn93  1  0.79847000  0.95153000  0.20153000  1.0 0.9850457041
Zn  Zn94  1  0.95153000  0.79847000  0.20153000  1.0 0.9850457041
Zn  Zn95  1  0.20153000  0.54847000  0.79847000  1.0 1.0816563695
H  H1  1  0.21543000  0.93723000  0.28431000  1.0 0.1374446762
H  H2  1  0.53457000  0.81277000  0.28431000  1.0 0.1299974584
H  H3  1  0.21543000  0.81277000  0.96569000  1.0 0.1374446762
H  H4  1  0.53457000  0.93723000  0.96569000  1.0 0.1374446762
H  H5  1  0.71569000  0.21543000  0.06277000  1.0 0.1374446762
H  H6  1  0.93723000  0.71569000  0.78457000  1.0 0.1374446762
H  H7  1  0.03431000  0.53457000  0.06277000  1.0 0.1374446762
H  H8  1  0.81277000  0.71569000  0.46543000  1.0 0.1299974584
H  H9  1  0.71569000  0.53457000  0.18723000  1.0 0.1299974584
H  H10  1  0.81277000  0.03431000  0.78457000  1.0 0.1374446762
H  H11  1  0.03431000  0.21543000  0.18723000  1.0 0.1374446762
H  H12  1  0.93723000  0.03431000  0.46543000  1.0 0.1374446762
H  H13  1  0.56277000  0.78457000  0.71569000  1.0 0.1299974584
H  H14  1  0.68723000  0.96543000  0.21569000  1.0 0.1299974584
H  H15  1  0.68723000  0.78457000  0.03431000  1.0 0.1299974584
H  H16  1  0.56277000  0.96543000  0.53431000  1.0 0.1374446762
H  H17  1  0.78457000  0.28431000  0.43723000  1.0 0.1299974584
H  H18  1  0.78431000  0.06277000  0.21543000  1.0 0.1299974584
H  H19  1  0.96543000  0.46569000  0.43723000  1.0 0.1374446762
H  H20  1  0.78431000  0.68723000  0.03457000  1.0 0.1299974584
H  H21  1  0.96543000  0.28431000  0.81277000  1.0 0.1299974584
H  H22  1  0.96569000  0.68723000  0.21543000  1.0 0.1299974584
H  H23  1  0.78457000  0.96569000  0.31277000  1.0 0.1299974584
H  H24  1  0.46569000  0.06277000  0.53457000  1.0 0.1299974584
H  H25  1  0.21543000  0.43723000  0.78431000  1.0 0.1299974584
H  H26  1  0.53457000  0.31277000  0.78431000  1.0 0.1201782266
H  H27  1  0.21543000  0.31277000  0.46569000  1.0 0.1374446762
H  H28  1  0.53457000  0.43723000  0.46569000  1.0 0.1299974584
H  H29  1  0.71569000  0.71543000  0.56277000  1.0 0.1201782266
H  H30  1  0.93723000  0.21569000  0.28457000  1.0 0.1299974584
H  H31  1  0.03431000  0.03457000  0.56277000  1.0 0.1299974584
H  H32  1  0.81277000  0.21569000  0.96543000  1.0 0.1299974584
H  H33  1  0.71569000  0.03457000  0.68723000  1.0 0.1299974584
H  H34  1  0.81277000  0.53431000  0.28457000  1.0 0.1299974584
H  H35  1  0.03431000  0.71543000  0.68723000  1.0 0.1299974584
H  H36  1  0.93723000  0.53431000  0.96543000  1.0 0.1201782266
H  H37  1  0.56277000  0.28457000  0.21569000  1.0 0.1374446762
H  H38  1  0.68723000  0.46543000  0.71569000  1.0 0.1299974584
H  H39  1  0.68723000  0.28457000  0.53431000  1.0 0.1374446762
H  H40  1  0.56277000  0.46543000  0.03431000  1.0 0.1299974584
H  H41  1  0.78457000  0.78431000  0.93723000  1.0 0.1299974584
H  H42  1  0.78431000  0.56277000  0.71543000  1.0 0.1374446762
H  H43  1  0.96543000  0.96569000  0.93723000  1.0 0.1374446762
H  H44  1  0.78431000  0.18723000  0.53457000  1.0 0.1299974584
H  H45  1  0.96543000  0.78431000  0.31277000  1.0 0.1299974584
H  H46  1  0.96569000  0.18723000  0.71543000  1.0 0.1374446762
H  H47  1  0.78457000  0.46569000  0.81277000  1.0 0.1299974584
H  H48  1  0.46569000  0.56277000  0.03457000  1.0 0.1374446762
H  H49  1  0.71543000  0.93723000  0.78431000  1.0 0.1299974584
H  H50  1  0.03457000  0.81277000  0.78431000  1.0 0.1299974584
H  H51  1  0.71543000  0.81277000  0.46569000  1.0 0.1299974584
H  H52  1  0.03457000  0.93723000  0.46569000  1.0 0.1299974584
H  H53  1  0.21569000  0.21543000  0.56277000  1.0 0.1299974584
H  H54  1  0.43723000  0.71569000  0.28457000  1.0 0.1201782266
H  H55  1  0.53431000  0.53457000  0.56277000  1.0 0.1299974584
H  H56  1  0.31277000  0.71569000  0.96543000  1.0 0.1299974584
H  H57  1  0.21569000  0.53457000  0.68723000  1.0 0.1299974584
H  H58  1  0.31277000  0.03431000  0.28457000  1.0 0.1299974584
H  H59  1  0.53431000  0.21543000  0.68723000  1.0 0.1299974584
H  H60  1  0.43723000  0.03431000  0.96543000  1.0 0.1299974584
H  H61  1  0.06277000  0.78457000  0.21569000  1.0 0.1299974584
H  H62  1  0.18723000  0.96543000  0.71569000  1.0 0.1299974584
H  H63  1  0.18723000  0.78457000  0.53431000  1.0 0.1299974584
H  H64  1  0.06277000  0.96543000  0.03431000  1.0 0.1299974584
H  H65  1  0.28457000  0.28431000  0.93723000  1.0 0.1299974584
H  H66  1  0.28431000  0.06277000  0.71543000  1.0 0.1299974584
H  H67  1  0.46543000  0.46569000  0.93723000  1.0 0.1299974584
H  H68  1  0.28431000  0.68723000  0.53457000  1.0 0.1299974584
H  H69  1  0.46543000  0.28431000  0.31277000  1.0 0.1299974584
H  H70  1  0.46569000  0.68723000  0.71543000  1.0 0.1299974584
H  H71  1  0.28457000  0.96569000  0.81277000  1.0 0.1374446762
H  H72  1  0.96569000  0.06277000  0.03457000  1.0 0.1299974584
H  H73  1  0.71543000  0.43723000  0.28431000  1.0 0.1201782266
H  H74  1  0.03457000  0.31277000  0.28431000  1.0 0.1299974584
H  H75  1  0.71543000  0.31277000  0.96569000  1.0 0.1299974584
H  H76  1  0.03457000  0.43723000  0.96569000  1.0 0.1299974584
H  H77  1  0.21569000  0.71543000  0.06277000  1.0 0.1299974584
H  H78  1  0.43723000  0.21569000  0.78457000  1.0 0.1299974584
H  H79  1  0.53431000  0.03457000  0.06277000  1.0 0.1299974584
H  H80  1  0.31277000  0.21569000  0.46543000  1.0 0.1299974584
H  H81  1  0.21569000  0.03457000  0.18723000  1.0 0.1299974584
H  H82  1  0.31277000  0.53431000  0.78457000  1.0 0.1374446762
H  H83  1  0.53431000  0.71543000  0.18723000  1.0 0.1299974584
H  H84  1  0.43723000  0.53431000  0.46543000  1.0 0.1299974584
H  H85  1  0.06277000  0.28457000  0.71569000  1.0 0.1299974584
H  H86  1  0.18723000  0.46543000  0.21569000  1.0 0.1299974584
H  H87  1  0.18723000  0.28457000  0.03431000  1.0 0.1374446762
H  H88  1  0.06277000  0.46543000  0.53431000  1.0 0.1299974584
H  H89  1  0.28457000  0.78431000  0.43723000  1.0 0.1374446762
H  H90  1  0.28431000  0.56277000  0.21543000  1.0 0.1299974584
H  H91  1  0.46543000  0.96569000  0.43723000  1.0 0.1299974584
H  H92  1  0.28431000  0.18723000  0.03457000  1.0 0.1299974584
H  H93  1  0.46543000  0.78431000  0.81277000  1.0 0.1299974584
H  H94  1  0.46569000  0.18723000  0.21543000  1.0 0.1299974584
H  H95  1  0.28457000  0.46569000  0.31277000  1.0 0.1374446762
H  H96  1  0.96569000  0.56277000  0.53457000  1.0 0.1299974584
H  H97  1  0.78457000  0.06277000  0.71569000  1.0 0.1374446762
H  H98  1  0.96543000  0.68723000  0.71569000  1.0 0.1299974584
H  H99  1  0.78457000  0.68723000  0.53431000  1.0 0.1201782266
H  H100  1  0.96543000  0.06277000  0.53431000  1.0 0.1299974584
H  H101  1  0.28431000  0.78457000  0.93723000  1.0 0.1374446762
H  H102  1  0.06277000  0.28431000  0.21543000  1.0 0.1374446762
H  H103  1  0.46569000  0.96543000  0.93723000  1.0 0.1299974584
H  H104  1  0.68723000  0.28431000  0.03457000  1.0 0.1299974584
H  H105  1  0.28431000  0.96543000  0.31277000  1.0 0.1299974584
H  H106  1  0.68723000  0.46569000  0.21543000  1.0 0.1201782266
H  H107  1  0.46569000  0.78457000  0.31277000  1.0 0.1299974584
H  H108  1  0.06277000  0.46569000  0.03457000  1.0 0.1299974584
H  H109  1  0.43723000  0.21543000  0.28431000  1.0 0.1299974584
H  H110  1  0.81277000  0.53457000  0.78431000  1.0 0.1299974584
H  H111  1  0.81277000  0.21543000  0.46569000  1.0 0.1299974584
H  H112  1  0.43723000  0.53457000  0.96569000  1.0 0.1299974584
H  H113  1  0.21543000  0.71569000  0.56277000  1.0 0.1299974584
H  H114  1  0.21569000  0.93723000  0.78457000  1.0 0.1374446762
H  H115  1  0.53457000  0.03431000  0.56277000  1.0 0.1299974584
H  H116  1  0.21569000  0.81277000  0.46543000  1.0 0.1299974584
H  H117  1  0.53457000  0.71569000  0.68723000  1.0 0.1299974584
H  H118  1  0.53431000  0.81277000  0.78457000  1.0 0.1299974584
H  H119  1  0.21543000  0.53431000  0.18723000  1.0 0.1299974584
H  H120  1  0.03431000  0.93723000  0.96543000  1.0 0.1299974584
H  H121  1  0.78457000  0.56277000  0.21569000  1.0 0.1299974584
H  H122  1  0.28431000  0.28457000  0.43723000  1.0 0.1374446762
H  H123  1  0.06277000  0.78431000  0.71543000  1.0 0.1299974584
H  H124  1  0.43723000  0.71543000  0.78431000  1.0 0.1299974584
H  H125  1  0.81277000  0.71543000  0.96569000  1.0 0.1299974584
H  H126  1  0.21543000  0.21569000  0.06277000  1.0 0.1374446762
H  H127  1  0.21569000  0.43723000  0.28457000  1.0 0.1299974584
H  H128  1  0.53457000  0.21569000  0.18723000  1.0 0.1299974584
H  H129  1  0.03431000  0.43723000  0.46543000  1.0 0.1299974584
H  H130  1  0.28457000  0.06277000  0.21569000  1.0 0.1299974584
H  H131  1  0.78431000  0.78457000  0.43723000  1.0 0.1299974584
H  H132  1  0.56277000  0.28431000  0.71543000  1.0 0.1299974584
H  H133  1  0.93723000  0.21543000  0.78431000  1.0 0.1374446762
H  H134  1  0.71543000  0.71569000  0.06277000  1.0 0.1299974584
H  H135  1  0.71569000  0.93723000  0.28457000  1.0 0.1299974584
H  H136  1  0.03431000  0.81277000  0.28457000  1.0 0.1299974584
H  H137  1  0.28457000  0.56277000  0.71569000  1.0 0.1374446762
H  H138  1  0.78431000  0.28457000  0.93723000  1.0 0.1299974584
H  H139  1  0.56277000  0.78431000  0.21543000  1.0 0.1299974584
H  H140  1  0.93723000  0.71543000  0.28431000  1.0 0.1299974584
H  H141  1  0.71543000  0.21569000  0.56277000  1.0 0.1299974584
H  H142  1  0.71569000  0.43723000  0.78457000  1.0 0.1299974584
H  H143  1  0.71543000  0.03431000  0.18723000  1.0 0.1299974584
H  H144  1  0.17898000  0.86981000  0.34249000  1.0 0.1374446762
H  H145  1  0.57102000  0.88019000  0.34249000  1.0 0.1112483297
H  H146  1  0.17898000  0.88019000  0.90751000  1.0 0.1374446762
H  H147  1  0.57102000  0.86981000  0.90751000  1.0 0.1299974584
H  H148  1  0.65751000  0.17898000  0.13019000  1.0 0.1374446762
H  H149  1  0.86981000  0.65751000  0.82102000  1.0 0.1374446762
H  H150  1  0.09249000  0.57102000  0.13019000  1.0 0.1299974584
H  H151  1  0.88019000  0.65751000  0.42898000  1.0 0.1112483297
H  H152  1  0.65751000  0.57102000  0.11981000  1.0 0.1112483297
H  H153  1  0.88019000  0.09249000  0.82102000  1.0 0.1374446762
H  H154  1  0.09249000  0.17898000  0.11981000  1.0 0.1374446762
H  H155  1  0.86981000  0.09249000  0.42898000  1.0 0.1299974584
H  H156  1  0.63019000  0.82102000  0.65751000  1.0 0.1299974584
H  H157  1  0.61981000  0.92898000  0.15751000  1.0 0.1374446762
H  H158  1  0.61981000  0.82102000  0.09249000  1.0 0.1112483297
H  H159  1  0.63019000  0.92898000  0.59249000  1.0 0.1299974584
H  H160  1  0.82102000  0.34249000  0.36981000  1.0 0.1299974584
H  H161  1  0.84249000  0.13019000  0.17898000  1.0 0.1299974584
H  H162  1  0.92898000  0.40751000  0.36981000  1.0 0.1299974584
H  H163  1  0.84249000  0.61981000  0.07102000  1.0 0.1374446762
H  H164  1  0.92898000  0.34249000  0.88019000  1.0 0.1299974584
H  H165  1  0.90751000  0.61981000  0.17898000  1.0 0.1112483297
H  H166  1  0.82102000  0.90751000  0.38019000  1.0 0.1112483297
H  H167  1  0.40751000  0.13019000  0.57102000  1.0 0.1299974584
H  H168  1  0.17898000  0.36981000  0.84249000  1.0 0.1374446762
H  H169  1  0.57102000  0.38019000  0.84249000  1.0 0.1299974584
H  H170  1  0.17898000  0.38019000  0.40751000  1.0 0.1299974584
H  H171  1  0.57102000  0.36981000  0.40751000  1.0 0.1299974584
H  H172  1  0.65751000  0.67898000  0.63019000  1.0 0.1299974584
H  H173  1  0.86981000  0.15751000  0.32102000  1.0 0.1299974584
H  H174  1  0.09249000  0.07102000  0.63019000  1.0 0.1299974584
H  H175  1  0.88019000  0.15751000  0.92898000  1.0 0.1112483297
H  H176  1  0.65751000  0.07102000  0.61981000  1.0 0.1299974584
H  H177  1  0.88019000  0.59249000  0.32102000  1.0 0.1112483297
H  H178  1  0.09249000  0.67898000  0.61981000  1.0 0.1299974584
H  H179  1  0.86981000  0.59249000  0.92898000  1.0 0.1112483297
H  H180  1  0.63019000  0.32102000  0.15751000  1.0 0.1374446762
H  H181  1  0.61981000  0.42898000  0.65751000  1.0 0.1112483297
H  H182  1  0.61981000  0.32102000  0.59249000  1.0 0.1374446762
H  H183  1  0.63019000  0.42898000  0.09249000  1.0 0.1112483297
H  H184  1  0.82102000  0.84249000  0.86981000  1.0 0.1299974584
H  H185  1  0.84249000  0.63019000  0.67898000  1.0 0.1374446762
H  H186  1  0.92898000  0.90751000  0.86981000  1.0 0.1299974584
H  H187  1  0.84249000  0.11981000  0.57102000  1.0 0.1299974584
H  H188  1  0.92898000  0.84249000  0.38019000  1.0 0.1374446762
H  H189  1  0.90751000  0.11981000  0.67898000  1.0 0.1299974584
H  H190  1  0.82102000  0.40751000  0.88019000  1.0 0.1299974584
H  H191  1  0.40751000  0.63019000  0.07102000  1.0 0.1299974584
H  H192  1  0.67898000  0.86981000  0.84249000  1.0 0.1299974584
H  H193  1  0.07102000  0.88019000  0.84249000  1.0 0.1112483297
H  H194  1  0.67898000  0.88019000  0.40751000  1.0 0.1112483297
H  H195  1  0.07102000  0.86981000  0.40751000  1.0 0.1112483297
H  H196  1  0.15751000  0.17898000  0.63019000  1.0 0.1299974584
H  H197  1  0.36981000  0.65751000  0.32102000  1.0 0.1299974584
H  H198  1  0.59249000  0.57102000  0.63019000  1.0 0.1299974584
H  H199  1  0.38019000  0.65751000  0.92898000  1.0 0.1299974584
H  H200  1  0.15751000  0.57102000  0.61981000  1.0 0.1299974584
H  H201  1  0.38019000  0.09249000  0.32102000  1.0 0.1299974584
H  H202  1  0.59249000  0.17898000  0.61981000  1.0 0.1112483297
H  H203  1  0.36981000  0.09249000  0.92898000  1.0 0.1299974584
H  H204  1  0.13019000  0.82102000  0.15751000  1.0 0.1299974584
H  H205  1  0.11981000  0.92898000  0.65751000  1.0 0.1299974584
H  H206  1  0.11981000  0.82102000  0.59249000  1.0 0.1299974584
H  H207  1  0.13019000  0.92898000  0.09249000  1.0 0.1299974584
H  H208  1  0.32102000  0.34249000  0.86981000  1.0 0.1299974584
H  H209  1  0.34249000  0.13019000  0.67898000  1.0 0.1299974584
H  H210  1  0.42898000  0.40751000  0.86981000  1.0 0.1299974584
H  H211  1  0.34249000  0.61981000  0.57102000  1.0 0.1112483297
H  H212  1  0.42898000  0.34249000  0.38019000  1.0 0.1112483297
H  H213  1  0.40751000  0.61981000  0.67898000  1.0 0.1374446762
H  H214  1  0.32102000  0.90751000  0.88019000  1.0 0.1299974584
H  H215  1  0.90751000  0.13019000  0.07102000  1.0 0.1299974584
H  H216  1  0.67898000  0.36981000  0.34249000  1.0 0.1299974584
H  H217  1  0.07102000  0.38019000  0.34249000  1.0 0.1299974584
H  H218  1  0.67898000  0.38019000  0.90751000  1.0 0.1299974584
H  H219  1  0.07102000  0.36981000  0.90751000  1.0 0.1112483297
H  H220  1  0.15751000  0.67898000  0.13019000  1.0 0.1299974584
H  H221  1  0.36981000  0.15751000  0.82102000  1.0 0.1299974584
H  H222  1  0.59249000  0.07102000  0.13019000  1.0 0.1112483297
H  H223  1  0.38019000  0.15751000  0.42898000  1.0 0.1299974584
H  H224  1  0.15751000  0.07102000  0.11981000  1.0 0.1112483297
H  H225  1  0.38019000  0.59249000  0.82102000  1.0 0.1299974584
H  H226  1  0.59249000  0.67898000  0.11981000  1.0 0.1112483297
H  H227  1  0.36981000  0.59249000  0.42898000  1.0 0.1299974584
H  H228  1  0.13019000  0.32102000  0.65751000  1.0 0.1299974584
H  H229  1  0.11981000  0.42898000  0.15751000  1.0 0.1299974584
H  H230  1  0.11981000  0.32102000  0.09249000  1.0 0.1299974584
H  H231  1  0.13019000  0.42898000  0.59249000  1.0 0.1299974584
H  H232  1  0.32102000  0.84249000  0.36981000  1.0 0.1374446762
H  H233  1  0.34249000  0.63019000  0.17898000  1.0 0.1299974584
H  H234  1  0.42898000  0.90751000  0.36981000  1.0 0.1112483297
H  H235  1  0.34249000  0.11981000  0.07102000  1.0 0.1299974584
H  H236  1  0.42898000  0.84249000  0.88019000  1.0 0.1299974584
H  H237  1  0.40751000  0.11981000  0.17898000  1.0 0.1299974584
H  H238  1  0.32102000  0.40751000  0.38019000  1.0 0.1374446762
H  H239  1  0.90751000  0.63019000  0.57102000  1.0 0.1112483297
H  H240  1  0.82102000  0.13019000  0.65751000  1.0 0.1299974584
H  H241  1  0.92898000  0.61981000  0.65751000  1.0 0.1299974584
H  H242  1  0.82102000  0.61981000  0.59249000  1.0 0.1374446762
H  H243  1  0.92898000  0.13019000  0.59249000  1.0 0.1299974584
H  H244  1  0.34249000  0.82102000  0.86981000  1.0 0.1299974584
H  H245  1  0.13019000  0.34249000  0.17898000  1.0 0.1299974584
H  H246  1  0.40751000  0.92898000  0.86981000  1.0 0.1299974584
H  H247  1  0.61981000  0.34249000  0.07102000  1.0 0.1299974584
H  H248  1  0.34249000  0.92898000  0.38019000  1.0 0.1299974584
H  H249  1  0.61981000  0.40751000  0.17898000  1.0 0.1374446762
H  H250  1  0.40751000  0.82102000  0.38019000  1.0 0.1374446762
H  H251  1  0.13019000  0.40751000  0.07102000  1.0 0.1374446762
H  H252  1  0.36981000  0.17898000  0.34249000  1.0 0.1299974584
H  H253  1  0.88019000  0.57102000  0.84249000  1.0 0.1299974584
H  H254  1  0.88019000  0.17898000  0.40751000  1.0 0.1201782266
H  H255  1  0.36981000  0.57102000  0.90751000  1.0 0.1299974584
H  H256  1  0.17898000  0.65751000  0.63019000  1.0 0.1299974584
H  H257  1  0.15751000  0.86981000  0.82102000  1.0 0.1299974584
H  H258  1  0.57102000  0.09249000  0.63019000  1.0 0.1299974584
H  H259  1  0.15751000  0.88019000  0.42898000  1.0 0.1299974584
H  H260  1  0.57102000  0.65751000  0.61981000  1.0 0.1201782266
H  H261  1  0.59249000  0.88019000  0.82102000  1.0 0.1201782266
H  H262  1  0.17898000  0.59249000  0.11981000  1.0 0.1201782266
H  H263  1  0.09249000  0.86981000  0.92898000  1.0 0.1299974584
H  H264  1  0.82102000  0.63019000  0.15751000  1.0 0.1299974584
H  H265  1  0.92898000  0.61981000  0.15751000  1.0 0.1112483297
H  H266  1  0.92898000  0.63019000  0.59249000  1.0 0.1112483297
H  H267  1  0.34249000  0.32102000  0.36981000  1.0 0.1299974584
H  H268  1  0.13019000  0.84249000  0.67898000  1.0 0.1299974584
H  H269  1  0.40751000  0.92898000  0.36981000  1.0 0.1112483297
H  H270  1  0.61981000  0.84249000  0.07102000  1.0 0.1112483297
H  H271  1  0.61981000  0.40751000  0.67898000  1.0 0.1112483297
H  H272  1  0.40751000  0.32102000  0.38019000  1.0 0.1112483297
H  H273  1  0.36981000  0.67898000  0.84249000  1.0 0.1299974584
H  H274  1  0.88019000  0.57102000  0.34249000  1.0 0.1112483297
H  H275  1  0.88019000  0.67898000  0.90751000  1.0 0.1374446762
H  H276  1  0.17898000  0.15751000  0.13019000  1.0 0.1299974584
H  H277  1  0.15751000  0.36981000  0.32102000  1.0 0.1299974584
H  H278  1  0.57102000  0.09249000  0.13019000  1.0 0.1112483297
H  H279  1  0.57102000  0.15751000  0.11981000  1.0 0.1299974584
H  H280  1  0.59249000  0.88019000  0.32102000  1.0 0.1112483297
H  H281  1  0.17898000  0.09249000  0.11981000  1.0 0.1112483297
H  H282  1  0.09249000  0.36981000  0.42898000  1.0 0.1299974584
H  H283  1  0.32102000  0.13019000  0.15751000  1.0 0.1299974584
H  H284  1  0.32102000  0.61981000  0.59249000  1.0 0.1112483297
H  H285  1  0.84249000  0.82102000  0.36981000  1.0 0.1299974584
H  H286  1  0.63019000  0.34249000  0.67898000  1.0 0.1299974584
H  H287  1  0.84249000  0.92898000  0.38019000  1.0 0.1112483297
H  H288  1  0.63019000  0.40751000  0.07102000  1.0 0.1112483297
H  H289  1  0.86981000  0.17898000  0.84249000  1.0 0.1299974584
H  H290  1  0.88019000  0.17898000  0.90751000  1.0 0.1112483297
H  H291  1  0.86981000  0.57102000  0.90751000  1.0 0.1112483297
H  H292  1  0.67898000  0.65751000  0.13019000  1.0 0.1201782266
H  H293  1  0.65751000  0.86981000  0.32102000  1.0 0.1201782266
H  H294  1  0.65751000  0.88019000  0.42898000  1.0 0.1112483297
H  H295  1  0.57102000  0.65751000  0.11981000  1.0 0.1112483297
H  H296  1  0.09249000  0.88019000  0.32102000  1.0 0.1374446762
H  H297  1  0.67898000  0.59249000  0.11981000  1.0 0.1112483297
H  H298  1  0.09249000  0.86981000  0.42898000  1.0 0.1112483297
H  H299  1  0.32102000  0.63019000  0.65751000  1.0 0.1299974584
H  H300  1  0.84249000  0.32102000  0.86981000  1.0 0.1299974584
H  H301  1  0.63019000  0.84249000  0.17898000  1.0 0.1299974584
H  H302  1  0.86981000  0.67898000  0.34249000  1.0 0.1201782266
H  H303  1  0.88019000  0.67898000  0.40751000  1.0 0.1112483297
H  H304  1  0.67898000  0.15751000  0.63019000  1.0 0.1299974584
H  H305  1  0.65751000  0.36981000  0.82102000  1.0 0.1299974584
H  H306  1  0.57102000  0.15751000  0.61981000  1.0 0.1112483297
H  H307  1  0.09249000  0.88019000  0.82102000  1.0 0.1112483297
H  H308  1  0.67898000  0.09249000  0.11981000  1.0 0.1374446762
H  H309  1  0.09249000  0.36981000  0.92898000  1.0 0.1112483297
H  H310  1  0.15104000  0.97033000  0.35754000  1.0 0.1299974584
H  H311  1  0.59896000  0.77967000  0.35754000  1.0 0.0980222923
H  H312  1  0.15104000  0.77967000  0.89246000  1.0 0.1299974584
H  H313  1  0.59896000  0.97033000  0.89246000  1.0 0.1299974584
H  H314  1  0.64246000  0.15104000  0.02967000  1.0 0.1299974584
H  H315  1  0.97033000  0.64246000  0.84896000  1.0 0.1299974584
H  H316  1  0.10754000  0.59896000  0.02967000  1.0 0.1299974584
H  H317  1  0.77967000  0.64246000  0.40104000  1.0 0.0980222923
H  H318  1  0.64246000  0.59896000  0.22033000  1.0 0.0980222923
H  H319  1  0.77967000  0.10754000  0.84896000  1.0 0.1299974584
H  H320  1  0.10754000  0.15104000  0.22033000  1.0 0.1299974584
H  H321  1  0.97033000  0.10754000  0.40104000  1.0 0.1299974584
H  H322  1  0.52967000  0.84896000  0.64246000  1.0 0.1374446762
H  H323  1  0.72033000  0.90104000  0.14246000  1.0 0.1299974584
H  H324  1  0.72033000  0.84896000  0.10754000  1.0 0.0980222923
H  H325  1  0.52967000  0.90104000  0.60754000  1.0 0.1299974584
H  H326  1  0.84896000  0.35754000  0.47033000  1.0 0.1374446762
H  H327  1  0.85754000  0.02967000  0.15104000  1.0 0.1374446762
H  H328  1  0.90104000  0.39246000  0.47033000  1.0 0.1299974584
H  H329  1  0.85754000  0.72033000  0.09896000  1.0 0.1299974584
H  H330  1  0.90104000  0.35754000  0.77967000  1.0 0.1299974584
H  H331  1  0.89246000  0.72033000  0.15104000  1.0 0.0980222923
H  H332  1  0.84896000  0.89246000  0.27967000  1.0 0.0980222923
H  H333  1  0.39246000  0.02967000  0.59896000  1.0 0.1374446762
H  H334  1  0.15104000  0.47033000  0.85754000  1.0 0.1299974584
H  H335  1  0.59896000  0.27967000  0.85754000  1.0 0.1299974584
H  H336  1  0.15104000  0.27967000  0.39246000  1.0 0.1299974584
H  H337  1  0.59896000  0.47033000  0.39246000  1.0 0.1299974584
H  H338  1  0.64246000  0.65104000  0.52967000  1.0 0.1299974584
H  H339  1  0.97033000  0.14246000  0.34896000  1.0 0.1299974584
H  H340  1  0.10754000  0.09896000  0.52967000  1.0 0.1299974584
H  H341  1  0.77967000  0.14246000  0.90104000  1.0 0.0980222923
H  H342  1  0.64246000  0.09896000  0.72033000  1.0 0.1299974584
H  H343  1  0.77967000  0.60754000  0.34896000  1.0 0.0881362836
H  H344  1  0.10754000  0.65104000  0.72033000  1.0 0.1299974584
H  H345  1  0.97033000  0.60754000  0.90104000  1.0 0.0881362836
H  H346  1  0.52967000  0.34896000  0.14246000  1.0 0.1299974584
H  H347  1  0.72033000  0.40104000  0.64246000  1.0 0.0980222923
H  H348  1  0.72033000  0.34896000  0.60754000  1.0 0.1299974584
H  H349  1  0.52967000  0.40104000  0.10754000  1.0 0.0881362836
H  H350  1  0.84896000  0.85754000  0.97033000  1.0 0.1299974584
H  H351  1  0.85754000  0.52967000  0.65104000  1.0 0.1299974584
H  H352  1  0.90104000  0.89246000  0.97033000  1.0 0.1299974584
H  H353  1  0.85754000  0.22033000  0.59896000  1.0 0.1299974584
H  H354  1  0.90104000  0.85754000  0.27967000  1.0 0.1299974584
H  H355  1  0.89246000  0.22033000  0.65104000  1.0 0.1299974584
H  H356  1  0.84896000  0.39246000  0.77967000  1.0 0.1299974584
H  H357  1  0.39246000  0.52967000  0.09896000  1.0 0.1299974584
H  H358  1  0.65104000  0.97033000  0.85754000  1.0 0.1299974584
H  H359  1  0.09896000  0.77967000  0.85754000  1.0 0.0980222923
H  H360  1  0.65104000  0.77967000  0.39246000  1.0 0.0881362836
H  H361  1  0.09896000  0.97033000  0.39246000  1.0 0.0881362836
H  H362  1  0.14246000  0.15104000  0.52967000  1.0 0.1374446762
H  H363  1  0.47033000  0.64246000  0.34896000  1.0 0.1299974584
H  H364  1  0.60754000  0.59896000  0.52967000  1.0 0.1299974584
H  H365  1  0.27967000  0.64246000  0.90104000  1.0 0.1299974584
H  H366  1  0.14246000  0.59896000  0.72033000  1.0 0.1299974584
H  H367  1  0.27967000  0.10754000  0.34896000  1.0 0.1299974584
H  H368  1  0.60754000  0.15104000  0.72033000  1.0 0.0980222923
H  H369  1  0.47033000  0.10754000  0.90104000  1.0 0.1299974584
H  H370  1  0.02967000  0.84896000  0.14246000  1.0 0.1299974584
H  H371  1  0.22033000  0.90104000  0.64246000  1.0 0.1299974584
H  H372  1  0.22033000  0.84896000  0.60754000  1.0 0.1299974584
H  H373  1  0.02967000  0.90104000  0.10754000  1.0 0.1299974584
H  H374  1  0.34896000  0.35754000  0.97033000  1.0 0.1374446762
H  H375  1  0.35754000  0.02967000  0.65104000  1.0 0.1374446762
H  H376  1  0.40104000  0.39246000  0.97033000  1.0 0.1299974584
H  H377  1  0.35754000  0.72033000  0.59896000  1.0 0.0980222923
H  H378  1  0.40104000  0.35754000  0.27967000  1.0 0.0980222923
H  H379  1  0.39246000  0.72033000  0.65104000  1.0 0.1299974584
H  H380  1  0.34896000  0.89246000  0.77967000  1.0 0.1299974584
H  H381  1  0.89246000  0.02967000  0.09896000  1.0 0.1299974584
H  H382  1  0.65104000  0.47033000  0.35754000  1.0 0.1299974584
H  H383  1  0.09896000  0.27967000  0.35754000  1.0 0.1299974584
H  H384  1  0.65104000  0.27967000  0.89246000  1.0 0.1299974584
H  H385  1  0.09896000  0.47033000  0.89246000  1.0 0.0980222923
H  H386  1  0.14246000  0.65104000  0.02967000  1.0 0.1299974584
H  H387  1  0.47033000  0.14246000  0.84896000  1.0 0.1374446762
H  H388  1  0.60754000  0.09896000  0.02967000  1.0 0.0881362836
H  H389  1  0.27967000  0.14246000  0.40104000  1.0 0.1299974584
H  H390  1  0.14246000  0.09896000  0.22033000  1.0 0.0980222923
H  H391  1  0.27967000  0.60754000  0.84896000  1.0 0.1299974584
H  H392  1  0.60754000  0.65104000  0.22033000  1.0 0.0881362836
H  H393  1  0.47033000  0.60754000  0.40104000  1.0 0.1299974584
H  H394  1  0.02967000  0.34896000  0.64246000  1.0 0.1299974584
H  H395  1  0.22033000  0.40104000  0.14246000  1.0 0.1299974584
H  H396  1  0.22033000  0.34896000  0.10754000  1.0 0.1299974584
H  H397  1  0.02967000  0.40104000  0.60754000  1.0 0.1299974584
H  H398  1  0.34896000  0.85754000  0.47033000  1.0 0.1299974584
H  H399  1  0.35754000  0.52967000  0.15104000  1.0 0.1374446762
H  H400  1  0.40104000  0.89246000  0.47033000  1.0 0.0881362836
H  H401  1  0.35754000  0.22033000  0.09896000  1.0 0.1299974584
H  H402  1  0.40104000  0.85754000  0.77967000  1.0 0.1299974584
H  H403  1  0.39246000  0.22033000  0.15104000  1.0 0.1299974584
H  H404  1  0.34896000  0.39246000  0.27967000  1.0 0.1299974584
H  H405  1  0.89246000  0.52967000  0.59896000  1.0 0.0881362836
H  H406  1  0.84896000  0.02967000  0.64246000  1.0 0.1299974584
H  H407  1  0.90104000  0.72033000  0.64246000  1.0 0.1374446762
H  H408  1  0.84896000  0.72033000  0.60754000  1.0 0.1299974584
H  H409  1  0.90104000  0.02967000  0.60754000  1.0 0.1299974584
H  H410  1  0.35754000  0.84896000  0.97033000  1.0 0.1299974584
H  H411  1  0.02967000  0.35754000  0.15104000  1.0 0.1299974584
H  H412  1  0.39246000  0.90104000  0.97033000  1.0 0.1299974584
H  H413  1  0.72033000  0.35754000  0.09896000  1.0 0.1299974584
H  H414  1  0.35754000  0.90104000  0.27967000  1.0 0.1374446762
H  H415  1  0.72033000  0.39246000  0.15104000  1.0 0.1299974584
H  H416  1  0.39246000  0.84896000  0.27967000  1.0 0.1299974584
H  H417  1  0.02967000  0.39246000  0.09896000  1.0 0.1299974584
H  H418  1  0.47033000  0.15104000  0.35754000  1.0 0.1374446762
H  H419  1  0.77967000  0.59896000  0.85754000  1.0 0.1299974584
H  H420  1  0.77967000  0.15104000  0.39246000  1.0 0.1374446762
H  H421  1  0.47033000  0.59896000  0.89246000  1.0 0.1299974584
H  H422  1  0.15104000  0.64246000  0.52967000  1.0 0.1374446762
H  H423  1  0.14246000  0.97033000  0.84896000  1.0 0.1374446762
H  H424  1  0.59896000  0.10754000  0.52967000  1.0 0.1299974584
H  H425  1  0.14246000  0.77967000  0.40104000  1.0 0.1299974584
H  H426  1  0.59896000  0.64246000  0.72033000  1.0 0.1374446762
H  H427  1  0.60754000  0.77967000  0.84896000  1.0 0.1374446762
H  H428  1  0.15104000  0.60754000  0.22033000  1.0 0.1374446762
H  H429  1  0.10754000  0.97033000  0.90104000  1.0 0.1374446762
H  H430  1  0.84896000  0.52967000  0.14246000  1.0 0.1374446762
H  H431  1  0.90104000  0.72033000  0.14246000  1.0 0.0881362836
H  H432  1  0.90104000  0.52967000  0.60754000  1.0 0.0881362836
H  H433  1  0.35754000  0.34896000  0.47033000  1.0 0.1374446762
H  H434  1  0.02967000  0.85754000  0.65104000  1.0 0.1374446762
H  H435  1  0.39246000  0.90104000  0.47033000  1.0 0.0881362836
H  H436  1  0.72033000  0.85754000  0.09896000  1.0 0.0881362836
H  H437  1  0.72033000  0.39246000  0.65104000  1.0 0.0980222923
H  H438  1  0.39246000  0.34896000  0.27967000  1.0 0.0980222923
H  H439  1  0.47033000  0.65104000  0.85754000  1.0 0.1299974584
H  H440  1  0.77967000  0.59896000  0.35754000  1.0 0.0881362836
H  H441  1  0.77967000  0.65104000  0.89246000  1.0 0.1299974584
H  H442  1  0.15104000  0.14246000  0.02967000  1.0 0.1374446762
H  H443  1  0.14246000  0.47033000  0.34896000  1.0 0.1299974584
H  H444  1  0.59896000  0.10754000  0.02967000  1.0 0.0881362836
H  H445  1  0.59896000  0.14246000  0.22033000  1.0 0.1299974584
H  H446  1  0.60754000  0.77967000  0.34896000  1.0 0.0980222923
H  H447  1  0.15104000  0.10754000  0.22033000  1.0 0.0980222923
H  H448  1  0.10754000  0.47033000  0.40104000  1.0 0.1299974584
H  H449  1  0.34896000  0.02967000  0.14246000  1.0 0.1374446762
H  H450  1  0.34896000  0.72033000  0.60754000  1.0 0.0980222923
H  H451  1  0.85754000  0.84896000  0.47033000  1.0 0.1374446762
H  H452  1  0.52967000  0.35754000  0.65104000  1.0 0.1374446762
H  H453  1  0.85754000  0.90104000  0.27967000  1.0 0.0881362836
H  H454  1  0.52967000  0.39246000  0.09896000  1.0 0.0881362836
H  H455  1  0.97033000  0.15104000  0.85754000  1.0 0.1374446762
H  H456  1  0.77967000  0.15104000  0.89246000  1.0 0.0980222923
H  H457  1  0.97033000  0.59896000  0.89246000  1.0 0.0881362836
H  H458  1  0.65104000  0.64246000  0.02967000  1.0 0.1374446762
H  H459  1  0.64246000  0.97033000  0.34896000  1.0 0.1374446762
H  H460  1  0.64246000  0.77967000  0.40104000  1.0 0.0881362836
H  H461  1  0.59896000  0.64246000  0.22033000  1.0 0.0881362836
H  H462  1  0.10754000  0.77967000  0.34896000  1.0 0.1299974584
H  H463  1  0.65104000  0.60754000  0.22033000  1.0 0.0980222923
H  H464  1  0.10754000  0.97033000  0.40104000  1.0 0.0881362836
H  H465  1  0.34896000  0.52967000  0.64246000  1.0 0.1374446762
H  H466  1  0.85754000  0.34896000  0.97033000  1.0 0.1374446762
H  H467  1  0.52967000  0.85754000  0.15104000  1.0 0.1374446762
H  H468  1  0.97033000  0.65104000  0.35754000  1.0 0.1374446762
H  H469  1  0.77967000  0.65104000  0.39246000  1.0 0.0980222923
H  H470  1  0.65104000  0.14246000  0.52967000  1.0 0.1299974584
H  H471  1  0.64246000  0.47033000  0.84896000  1.0 0.1374446762
H  H472  1  0.59896000  0.14246000  0.72033000  1.0 0.0881362836
H  H473  1  0.10754000  0.77967000  0.84896000  1.0 0.0980222923
H  H474  1  0.65104000  0.10754000  0.22033000  1.0 0.1299974584
H  H475  1  0.10754000  0.47033000  0.90104000  1.0 0.0980222923
H  H476  1  0.19444000  0.95862000  0.33003000  1.0 0.1374446762
H  H477  1  0.55556000  0.79138000  0.33003000  1.0 0.1201782266
H  H478  1  0.19444000  0.79138000  0.91997000  1.0 0.1374446762
H  H479  1  0.55556000  0.95862000  0.91997000  1.0 0.1299974584
H  H480  1  0.66997000  0.19444000  0.04138000  1.0 0.1374446762
H  H481  1  0.95862000  0.66997000  0.80556000  1.0 0.1374446762
H  H482  1  0.08003000  0.55556000  0.04138000  1.0 0.1299974584
H  H483  1  0.79138000  0.66997000  0.44444000  1.0 0.1201782266
H  H484  1  0.66997000  0.55556000  0.20862000  1.0 0.1201782266
H  H485  1  0.79138000  0.08003000  0.80556000  1.0 0.1374446762
H  H486  1  0.08003000  0.19444000  0.20862000  1.0 0.1374446762
H  H487  1  0.95862000  0.08003000  0.44444000  1.0 0.1299974584
H  H488  1  0.54138000  0.80556000  0.66997000  1.0 0.1374446762
H  H489  1  0.70862000  0.94444000  0.16997000  1.0 0.1374446762
H  H490  1  0.70862000  0.80556000  0.08003000  1.0 0.1201782266
H  H491  1  0.54138000  0.94444000  0.58003000  1.0 0.1299974584
H  H492  1  0.80556000  0.33003000  0.45862000  1.0 0.1299974584
H  H493  1  0.83003000  0.04138000  0.19444000  1.0 0.1299974584
H  H494  1  0.94444000  0.41997000  0.45862000  1.0 0.1299974584
H  H495  1  0.83003000  0.70862000  0.05556000  1.0 0.1374446762
H  H496  1  0.94444000  0.33003000  0.79138000  1.0 0.1299974584
H  H497  1  0.91997000  0.70862000  0.19444000  1.0 0.1201782266
H  H498  1  0.80556000  0.91997000  0.29138000  1.0 0.1201782266
H  H499  1  0.41997000  0.04138000  0.55556000  1.0 0.1299974584
H  H500  1  0.19444000  0.45862000  0.83003000  1.0 0.1299974584
H  H501  1  0.55556000  0.29138000  0.83003000  1.0 0.1299974584
H  H502  1  0.19444000  0.29138000  0.41997000  1.0 0.1299974584
H  H503  1  0.55556000  0.45862000  0.41997000  1.0 0.1299974584
H  H504  1  0.66997000  0.69444000  0.54138000  1.0 0.1299974584
H  H505  1  0.95862000  0.16997000  0.30556000  1.0 0.1299974584
H  H506  1  0.08003000  0.05556000  0.54138000  1.0 0.1299974584
H  H507  1  0.79138000  0.16997000  0.94444000  1.0 0.1201782266
H  H508  1  0.66997000  0.05556000  0.70862000  1.0 0.1299974584
H  H509  1  0.79138000  0.58003000  0.30556000  1.0 0.1201782266
H  H510  1  0.08003000  0.69444000  0.70862000  1.0 0.1299974584
H  H511  1  0.95862000  0.58003000  0.94444000  1.0 0.1201782266
H  H512  1  0.54138000  0.30556000  0.16997000  1.0 0.1374446762
H  H513  1  0.70862000  0.44444000  0.66997000  1.0 0.1201782266
H  H514  1  0.70862000  0.30556000  0.58003000  1.0 0.1374446762
H  H515  1  0.54138000  0.44444000  0.08003000  1.0 0.1201782266
H  H516  1  0.80556000  0.83003000  0.95862000  1.0 0.1299974584
H  H517  1  0.83003000  0.54138000  0.69444000  1.0 0.1374446762
H  H518  1  0.94444000  0.91997000  0.95862000  1.0 0.1299974584
H  H519  1  0.83003000  0.20862000  0.55556000  1.0 0.1299974584
H  H520  1  0.94444000  0.83003000  0.29138000  1.0 0.1374446762
H  H521  1  0.91997000  0.20862000  0.69444000  1.0 0.1299974584
H  H522  1  0.80556000  0.41997000  0.79138000  1.0 0.1299974584
H  H523  1  0.41997000  0.54138000  0.05556000  1.0 0.1299974584
H  H524  1  0.69444000  0.95862000  0.83003000  1.0 0.1201782266
H  H525  1  0.05556000  0.79138000  0.83003000  1.0 0.1201782266
H  H526  1  0.69444000  0.79138000  0.41997000  1.0 0.1201782266
H  H527  1  0.05556000  0.95862000  0.41997000  1.0 0.1201782266
H  H528  1  0.16997000  0.19444000  0.54138000  1.0 0.1299974584
H  H529  1  0.45862000  0.66997000  0.30556000  1.0 0.1299974584
H  H530  1  0.58003000  0.55556000  0.54138000  1.0 0.1299974584
H  H531  1  0.29138000  0.66997000  0.94444000  1.0 0.1299974584
H  H532  1  0.16997000  0.55556000  0.70862000  1.0 0.1299974584
H  H533  1  0.29138000  0.08003000  0.30556000  1.0 0.1299974584
H  H534  1  0.58003000  0.19444000  0.70862000  1.0 0.1201782266
H  H535  1  0.45862000  0.08003000  0.94444000  1.0 0.1299974584
H  H536  1  0.04138000  0.80556000  0.16997000  1.0 0.1299974584
H  H537  1  0.20862000  0.94444000  0.66997000  1.0 0.1299974584
H  H538  1  0.20862000  0.80556000  0.58003000  1.0 0.1299974584
H  H539  1  0.04138000  0.94444000  0.08003000  1.0 0.1299974584
H  H540  1  0.30556000  0.33003000  0.95862000  1.0 0.1299974584
H  H541  1  0.33003000  0.04138000  0.69444000  1.0 0.1299974584
H  H542  1  0.44444000  0.41997000  0.95862000  1.0 0.1299974584
H  H543  1  0.33003000  0.70862000  0.55556000  1.0 0.1201782266
H  H544  1  0.44444000  0.33003000  0.29138000  1.0 0.1201782266
H  H545  1  0.41997000  0.70862000  0.69444000  1.0 0.1374446762
H  H546  1  0.30556000  0.91997000  0.79138000  1.0 0.1299974584
H  H547  1  0.91997000  0.04138000  0.05556000  1.0 0.1299974584
H  H548  1  0.69444000  0.45862000  0.33003000  1.0 0.1299974584
H  H549  1  0.05556000  0.29138000  0.33003000  1.0 0.1299974584
H  H550  1  0.69444000  0.29138000  0.91997000  1.0 0.1299974584
H  H551  1  0.05556000  0.45862000  0.91997000  1.0 0.1201782266
H  H552  1  0.16997000  0.69444000  0.04138000  1.0 0.1299974584
H  H553  1  0.45862000  0.16997000  0.80556000  1.0 0.1299974584
H  H554  1  0.58003000  0.05556000  0.04138000  1.0 0.1201782266
H  H555  1  0.29138000  0.16997000  0.44444000  1.0 0.1299974584
H  H556  1  0.16997000  0.05556000  0.20862000  1.0 0.1201782266
H  H557  1  0.29138000  0.58003000  0.80556000  1.0 0.1299974584
H  H558  1  0.58003000  0.69444000  0.20862000  1.0 0.1201782266
H  H559  1  0.45862000  0.58003000  0.44444000  1.0 0.1299974584
H  H560  1  0.04138000  0.30556000  0.66997000  1.0 0.1299974584
H  H561  1  0.20862000  0.44444000  0.16997000  1.0 0.1299974584
H  H562  1  0.20862000  0.30556000  0.08003000  1.0 0.1299974584
H  H563  1  0.04138000  0.44444000  0.58003000  1.0 0.1299974584
H  H564  1  0.30556000  0.83003000  0.45862000  1.0 0.1374446762
H  H565  1  0.33003000  0.54138000  0.19444000  1.0 0.1299974584
H  H566  1  0.44444000  0.91997000  0.45862000  1.0 0.1201782266
H  H567  1  0.33003000  0.20862000  0.05556000  1.0 0.1299974584
H  H568  1  0.44444000  0.83003000  0.79138000  1.0 0.1299974584
H  H569  1  0.41997000  0.20862000  0.19444000  1.0 0.1299974584
H  H570  1  0.30556000  0.41997000  0.29138000  1.0 0.1374446762
H  H571  1  0.91997000  0.54138000  0.55556000  1.0 0.1201782266
H  H572  1  0.80556000  0.04138000  0.66997000  1.0 0.1374446762
H  H573  1  0.94444000  0.70862000  0.66997000  1.0 0.1299974584
H  H574  1  0.80556000  0.70862000  0.58003000  1.0 0.1201782266
H  H575  1  0.94444000  0.04138000  0.58003000  1.0 0.1299974584
H  H576  1  0.33003000  0.80556000  0.95862000  1.0 0.1374446762
H  H577  1  0.04138000  0.33003000  0.19444000  1.0 0.1374446762
H  H578  1  0.41997000  0.94444000  0.95862000  1.0 0.1299974584
H  H579  1  0.70862000  0.33003000  0.05556000  1.0 0.1299974584
H  H580  1  0.33003000  0.94444000  0.29138000  1.0 0.1299974584
H  H581  1  0.70862000  0.41997000  0.19444000  1.0 0.1201782266
H  H582  1  0.41997000  0.80556000  0.29138000  1.0 0.1201782266
H  H583  1  0.04138000  0.41997000  0.05556000  1.0 0.1112483297
H  H584  1  0.45862000  0.19444000  0.33003000  1.0 0.1112483297
H  H585  1  0.79138000  0.55556000  0.83003000  1.0 0.1299974584
H  H586  1  0.79138000  0.19444000  0.41997000  1.0 0.1299974584
H  H587  1  0.45862000  0.55556000  0.91997000  1.0 0.1299974584
H  H588  1  0.19444000  0.66997000  0.54138000  1.0 0.1112483297
H  H589  1  0.16997000  0.95862000  0.80556000  1.0 0.1299974584
H  H590  1  0.55556000  0.08003000  0.54138000  1.0 0.1299974584
H  H591  1  0.16997000  0.79138000  0.44444000  1.0 0.1299974584
H  H592  1  0.55556000  0.66997000  0.70862000  1.0 0.1299974584
H  H593  1  0.58003000  0.79138000  0.80556000  1.0 0.1299974584
H  H594  1  0.19444000  0.58003000  0.20862000  1.0 0.1299974584
H  H595  1  0.08003000  0.95862000  0.94444000  1.0 0.1299974584
H  H596  1  0.80556000  0.54138000  0.16997000  1.0 0.0980222923
H  H597  1  0.94444000  0.70862000  0.16997000  1.0 0.1201782266
H  H598  1  0.94444000  0.54138000  0.58003000  1.0 0.1201782266
H  H599  1  0.33003000  0.30556000  0.45862000  1.0 0.1299974584
H  H600  1  0.04138000  0.83003000  0.69444000  1.0 0.1112483297
H  H601  1  0.41997000  0.94444000  0.45862000  1.0 0.1201782266
H  H602  1  0.70862000  0.83003000  0.05556000  1.0 0.1201782266
H  H603  1  0.70862000  0.41997000  0.69444000  1.0 0.1112483297
H  H604  1  0.41997000  0.30556000  0.29138000  1.0 0.1112483297
H  H605  1  0.45862000  0.69444000  0.83003000  1.0 0.1299974584
H  H606  1  0.79138000  0.55556000  0.33003000  1.0 0.1201782266
H  H607  1  0.79138000  0.69444000  0.91997000  1.0 0.1299974584
H  H608  1  0.19444000  0.16997000  0.04138000  1.0 0.1299974584
H  H609  1  0.16997000  0.45862000  0.30556000  1.0 0.1299974584
H  H610  1  0.55556000  0.08003000  0.04138000  1.0 0.1201782266
H  H611  1  0.55556000  0.16997000  0.20862000  1.0 0.1299974584
H  H612  1  0.58003000  0.79138000  0.30556000  1.0 0.1112483297
H  H613  1  0.19444000  0.08003000  0.20862000  1.0 0.1112483297
H  H614  1  0.08003000  0.45862000  0.44444000  1.0 0.1299974584
H  H615  1  0.30556000  0.04138000  0.16997000  1.0 0.1112483297
H  H616  1  0.30556000  0.70862000  0.58003000  1.0 0.1112483297
H  H617  1  0.83003000  0.80556000  0.45862000  1.0 0.0980222923
H  H618  1  0.54138000  0.33003000  0.69444000  1.0 0.1299974584
H  H619  1  0.83003000  0.94444000  0.29138000  1.0 0.1201782266
H  H620  1  0.54138000  0.41997000  0.05556000  1.0 0.1201782266
H  H621  1  0.95862000  0.19444000  0.83003000  1.0 0.1299974584
H  H622  1  0.79138000  0.19444000  0.91997000  1.0 0.1112483297
H  H623  1  0.95862000  0.55556000  0.91997000  1.0 0.1201782266
H  H624  1  0.69444000  0.66997000  0.04138000  1.0 0.1201782266
H  H625  1  0.66997000  0.95862000  0.30556000  1.0 0.1201782266
H  H626  1  0.66997000  0.79138000  0.44444000  1.0 0.1201782266
H  H627  1  0.55556000  0.66997000  0.20862000  1.0 0.1201782266
H  H628  1  0.08003000  0.79138000  0.30556000  1.0 0.1299974584
H  H629  1  0.69444000  0.58003000  0.20862000  1.0 0.1112483297
H  H630  1  0.08003000  0.95862000  0.44444000  1.0 0.1201782266
H  H631  1  0.30556000  0.54138000  0.66997000  1.0 0.1299974584
H  H632  1  0.83003000  0.30556000  0.95862000  1.0 0.1112483297
H  H633  1  0.54138000  0.83003000  0.19444000  1.0 0.0980222923
H  H634  1  0.95862000  0.69444000  0.33003000  1.0 0.1201782266
H  H635  1  0.79138000  0.69444000  0.41997000  1.0 0.1112483297
H  H636  1  0.69444000  0.16997000  0.54138000  1.0 0.1299974584
H  H637  1  0.66997000  0.45862000  0.80556000  1.0 0.1112483297
H  H638  1  0.55556000  0.16997000  0.70862000  1.0 0.1201782266
H  H639  1  0.08003000  0.79138000  0.80556000  1.0 0.1112483297
H  H640  1  0.69444000  0.08003000  0.20862000  1.0 0.1299974584
H  H641  1  0.08003000  0.45862000  0.94444000  1.0 0.1112483297
H  H642  1  0.23246000  0.87013000  0.34196000  1.0 0.1201782266
H  H643  1  0.51754000  0.87987000  0.34196000  1.0 0.1112483297
H  H644  1  0.23246000  0.87987000  0.90804000  1.0 0.1112483297
H  H645  1  0.51754000  0.87013000  0.90804000  1.0 0.1112483297
H  H646  1  0.65804000  0.23246000  0.12987000  1.0 0.1112483297
H  H647  1  0.87013000  0.65804000  0.76754000  1.0 0.1201782266
H  H648  1  0.09196000  0.51754000  0.12987000  1.0 0.1112483297
H  H649  1  0.87987000  0.65804000  0.48246000  1.0 0.1112483297
H  H650  1  0.65804000  0.51754000  0.12013000  1.0 0.1112483297
H  H651  1  0.87987000  0.09196000  0.76754000  1.0 0.1112483297
H  H652  1  0.09196000  0.23246000  0.12013000  1.0 0.1112483297
H  H653  1  0.87013000  0.09196000  0.48246000  1.0 0.1112483297
H  H654  1  0.62987000  0.76754000  0.65804000  1.0 0.1112483297
H  H655  1  0.62013000  0.98246000  0.15804000  1.0 0.1201782266
H  H656  1  0.62013000  0.76754000  0.09196000  1.0 0.1201782266
H  H657  1  0.62987000  0.98246000  0.59196000  1.0 0.1112483297
H  H658  1  0.76754000  0.34196000  0.37013000  1.0 0.1112483297
H  H659  1  0.84196000  0.12987000  0.23246000  1.0 0.1112483297
H  H660  1  0.98246000  0.40804000  0.37013000  1.0 0.1112483297
H  H661  1  0.84196000  0.62013000  0.01754000  1.0 0.1201782266
H  H662  1  0.98246000  0.34196000  0.87987000  1.0 0.1112483297
H  H663  1  0.90804000  0.62013000  0.23246000  1.0 0.1201782266
H  H664  1  0.76754000  0.90804000  0.37987000  1.0 0.1201782266
H  H665  1  0.40804000  0.12987000  0.51754000  1.0 0.1112483297
H  H666  1  0.23246000  0.37013000  0.84196000  1.0 0.1112483297
H  H667  1  0.51754000  0.37987000  0.84196000  1.0 0.1112483297
H  H668  1  0.23246000  0.37987000  0.40804000  1.0 0.1112483297
H  H669  1  0.51754000  0.37013000  0.40804000  1.0 0.1112483297
H  H670  1  0.65804000  0.73246000  0.62987000  1.0 0.1201782266
H  H671  1  0.87013000  0.15804000  0.26754000  1.0 0.1112483297
H  H672  1  0.09196000  0.01754000  0.62987000  1.0 0.1112483297
H  H673  1  0.87987000  0.15804000  0.98246000  1.0 0.1112483297
H  H674  1  0.65804000  0.01754000  0.62013000  1.0 0.1201782266
H  H675  1  0.87987000  0.59196000  0.26754000  1.0 0.1201782266
H  H676  1  0.09196000  0.73246000  0.62013000  1.0 0.1112483297
H  H677  1  0.87013000  0.59196000  0.98246000  1.0 0.1112483297
H  H678  1  0.62987000  0.26754000  0.15804000  1.0 0.1112483297
H  H679  1  0.62013000  0.48246000  0.65804000  1.0 0.1112483297
H  H680  1  0.62013000  0.26754000  0.59196000  1.0 0.1201782266
H  H681  1  0.62987000  0.48246000  0.09196000  1.0 0.1201782266
H  H682  1  0.76754000  0.84196000  0.87013000  1.0 0.1112483297
H  H683  1  0.84196000  0.62987000  0.73246000  1.0 0.1112483297
H  H684  1  0.98246000  0.90804000  0.87013000  1.0 0.1112483297
H  H685  1  0.84196000  0.12013000  0.51754000  1.0 0.1112483297
H  H686  1  0.98246000  0.84196000  0.37987000  1.0 0.1201782266
H  H687  1  0.90804000  0.12013000  0.73246000  1.0 0.1112483297
H  H688  1  0.76754000  0.40804000  0.87987000  1.0 0.1112483297
H  H689  1  0.40804000  0.62987000  0.01754000  1.0 0.1112483297
H  H690  1  0.73246000  0.87013000  0.84196000  1.0 0.1112483297
H  H691  1  0.01754000  0.87987000  0.84196000  1.0 0.1112483297
H  H692  1  0.73246000  0.87987000  0.40804000  1.0 0.1201782266
H  H693  1  0.01754000  0.87013000  0.40804000  1.0 0.1112483297
H  H694  1  0.15804000  0.23246000  0.62987000  1.0 0.1112483297
H  H695  1  0.37013000  0.65804000  0.26754000  1.0 0.1112483297
H  H696  1  0.59196000  0.51754000  0.62987000  1.0 0.1112483297
H  H697  1  0.37987000  0.65804000  0.98246000  1.0 0.1112483297
H  H698  1  0.15804000  0.51754000  0.62013000  1.0 0.1112483297
H  H699  1  0.37987000  0.09196000  0.26754000  1.0 0.1112483297
H  H700  1  0.59196000  0.23246000  0.62013000  1.0 0.1201782266
H  H701  1  0.37013000  0.09196000  0.98246000  1.0 0.1112483297
H  H702  1  0.12987000  0.76754000  0.15804000  1.0 0.1112483297
H  H703  1  0.12013000  0.98246000  0.65804000  1.0 0.1112483297
H  H704  1  0.12013000  0.76754000  0.59196000  1.0 0.1112483297
H  H705  1  0.12987000  0.98246000  0.09196000  1.0 0.1112483297
H  H706  1  0.26754000  0.34196000  0.87013000  1.0 0.1112483297
H  H707  1  0.34196000  0.12987000  0.73246000  1.0 0.1112483297
H  H708  1  0.48246000  0.40804000  0.87013000  1.0 0.1112483297
H  H709  1  0.34196000  0.62013000  0.51754000  1.0 0.1112483297
H  H710  1  0.48246000  0.34196000  0.37987000  1.0 0.1112483297
H  H711  1  0.40804000  0.62013000  0.73246000  1.0 0.1112483297
H  H712  1  0.26754000  0.90804000  0.87987000  1.0 0.1112483297
H  H713  1  0.90804000  0.12987000  0.01754000  1.0 0.1112483297
H  H714  1  0.73246000  0.37013000  0.34196000  1.0 0.1112483297
H  H715  1  0.01754000  0.37987000  0.34196000  1.0 0.1201782266
H  H716  1  0.73246000  0.37987000  0.90804000  1.0 0.1112483297
H  H717  1  0.01754000  0.37013000  0.90804000  1.0 0.1112483297
H  H718  1  0.15804000  0.73246000  0.12987000  1.0 0.1112483297
H  H719  1  0.37013000  0.15804000  0.76754000  1.0 0.1112483297
H  H720  1  0.59196000  0.01754000  0.12987000  1.0 0.1112483297
H  H721  1  0.37987000  0.15804000  0.48246000  1.0 0.1112483297
H  H722  1  0.15804000  0.01754000  0.12013000  1.0 0.1112483297
H  H723  1  0.37987000  0.59196000  0.76754000  1.0 0.1201782266
H  H724  1  0.59196000  0.73246000  0.12013000  1.0 0.1201782266
H  H725  1  0.37013000  0.59196000  0.48246000  1.0 0.1112483297
H  H726  1  0.12987000  0.26754000  0.65804000  1.0 0.1112483297
H  H727  1  0.12013000  0.48246000  0.15804000  1.0 0.1112483297
H  H728  1  0.12013000  0.26754000  0.09196000  1.0 0.1112483297
H  H729  1  0.12987000  0.48246000  0.59196000  1.0 0.1112483297
H  H730  1  0.26754000  0.84196000  0.37013000  1.0 0.1112483297
H  H731  1  0.34196000  0.62987000  0.23246000  1.0 0.1112483297
H  H732  1  0.48246000  0.90804000  0.37013000  1.0 0.1201782266
H  H733  1  0.34196000  0.12013000  0.01754000  1.0 0.1112483297
H  H734  1  0.48246000  0.84196000  0.87987000  1.0 0.1112483297
H  H735  1  0.40804000  0.12013000  0.23246000  1.0 0.1112483297
H  H736  1  0.26754000  0.40804000  0.37987000  1.0 0.1112483297
H  H737  1  0.90804000  0.62987000  0.51754000  1.0 0.1201782266
H  H738  1  0.76754000  0.12987000  0.65804000  1.0 0.1112483297
H  H739  1  0.98246000  0.62013000  0.65804000  1.0 0.1299974584
H  H740  1  0.76754000  0.62013000  0.59196000  1.0 0.1299974584
H  H741  1  0.98246000  0.12987000  0.59196000  1.0 0.1299974584
H  H742  1  0.34196000  0.76754000  0.87013000  1.0 0.1201782266
H  H743  1  0.12987000  0.34196000  0.23246000  1.0 0.1201782266
H  H744  1  0.40804000  0.98246000  0.87013000  1.0 0.1299974584
H  H745  1  0.62013000  0.34196000  0.01754000  1.0 0.1299974584
H  H746  1  0.34196000  0.98246000  0.37987000  1.0 0.1299974584
H  H747  1  0.62013000  0.40804000  0.23246000  1.0 0.1299974584
H  H748  1  0.40804000  0.76754000  0.37987000  1.0 0.1299974584
H  H749  1  0.12987000  0.40804000  0.01754000  1.0 0.1201782266
H  H750  1  0.37013000  0.23246000  0.34196000  1.0 0.1112483297
H  H751  1  0.87987000  0.51754000  0.84196000  1.0 0.1299974584
H  H752  1  0.87987000  0.23246000  0.40804000  1.0 0.1299974584
H  H753  1  0.37013000  0.51754000  0.90804000  1.0 0.1299974584
H  H754  1  0.23246000  0.65804000  0.62987000  1.0 0.1112483297
H  H755  1  0.15804000  0.87013000  0.76754000  1.0 0.1201782266
H  H756  1  0.51754000  0.09196000  0.62987000  1.0 0.1299974584
H  H757  1  0.15804000  0.87987000  0.48246000  1.0 0.1299974584
H  H758  1  0.51754000  0.65804000  0.62013000  1.0 0.1201782266
H  H759  1  0.59196000  0.87987000  0.76754000  1.0 0.1299974584
H  H760  1  0.23246000  0.59196000  0.12013000  1.0 0.1299974584
H  H761  1  0.09196000  0.87013000  0.98246000  1.0 0.1299974584
H  H762  1  0.76754000  0.62987000  0.15804000  1.0 0.1112483297
H  H763  1  0.98246000  0.62013000  0.15804000  1.0 0.1299974584
H  H764  1  0.98246000  0.62987000  0.59196000  1.0 0.1299974584
H  H765  1  0.34196000  0.26754000  0.37013000  1.0 0.1201782266
H  H766  1  0.12987000  0.84196000  0.73246000  1.0 0.1112483297
H  H767  1  0.40804000  0.98246000  0.37013000  1.0 0.1299974584
H  H768  1  0.62013000  0.84196000  0.01754000  1.0 0.1299974584
H  H769  1  0.62013000  0.40804000  0.73246000  1.0 0.1201782266
H  H770  1  0.40804000  0.26754000  0.37987000  1.0 0.1201782266
H  H771  1  0.37013000  0.73246000  0.84196000  1.0 0.1112483297
H  H772  1  0.87987000  0.51754000  0.34196000  1.0 0.1201782266
H  H773  1  0.87987000  0.73246000  0.90804000  1.0 0.1299974584
H  H774  1  0.23246000  0.15804000  0.12987000  1.0 0.1201782266
H  H775  1  0.15804000  0.37013000  0.26754000  1.0 0.1112483297
H  H776  1  0.51754000  0.09196000  0.12987000  1.0 0.1299974584
H  H777  1  0.51754000  0.15804000  0.12013000  1.0 0.1299974584
H  H778  1  0.59196000  0.87987000  0.26754000  1.0 0.1201782266
H  H779  1  0.23246000  0.09196000  0.12013000  1.0 0.1201782266
H  H780  1  0.09196000  0.37013000  0.48246000  1.0 0.1299974584
H  H781  1  0.26754000  0.12987000  0.15804000  1.0 0.1112483297
H  H782  1  0.26754000  0.62013000  0.59196000  1.0 0.1201782266
H  H783  1  0.84196000  0.76754000  0.37013000  1.0 0.1112483297
H  H784  1  0.62987000  0.34196000  0.73246000  1.0 0.1201782266
H  H785  1  0.84196000  0.98246000  0.37987000  1.0 0.1299974584
H  H786  1  0.62987000  0.40804000  0.01754000  1.0 0.1299974584
H  H787  1  0.87013000  0.23246000  0.84196000  1.0 0.1201782266
H  H788  1  0.87987000  0.23246000  0.90804000  1.0 0.1201782266
H  H789  1  0.87013000  0.51754000  0.90804000  1.0 0.1299974584
H  H790  1  0.73246000  0.65804000  0.12987000  1.0 0.1201782266
H  H791  1  0.65804000  0.87013000  0.26754000  1.0 0.1201782266
H  H792  1  0.65804000  0.87987000  0.48246000  1.0 0.1201782266
H  H793  1  0.51754000  0.65804000  0.12013000  1.0 0.1201782266
H  H794  1  0.09196000  0.87987000  0.26754000  1.0 0.1299974584
H  H795  1  0.73246000  0.59196000  0.12013000  1.0 0.1201782266
H  H796  1  0.09196000  0.87013000  0.48246000  1.0 0.1299974584
H  H797  1  0.26754000  0.62987000  0.65804000  1.0 0.1201782266
H  H798  1  0.84196000  0.26754000  0.87013000  1.0 0.1112483297
H  H799  1  0.62987000  0.84196000  0.23246000  1.0 0.1112483297
H  H800  1  0.87013000  0.73246000  0.34196000  1.0 0.1201782266
H  H801  1  0.87987000  0.73246000  0.40804000  1.0 0.1201782266
H  H802  1  0.73246000  0.15804000  0.62987000  1.0 0.1112483297
H  H803  1  0.65804000  0.37013000  0.76754000  1.0 0.1112483297
H  H804  1  0.51754000  0.15804000  0.62013000  1.0 0.1201782266
H  H805  1  0.09196000  0.87987000  0.76754000  1.0 0.1201782266
H  H806  1  0.73246000  0.09196000  0.12013000  1.0 0.1299974584
H  H807  1  0.09196000  0.37013000  0.98246000  1.0 0.1299974584
H  H808  1  0.28797000  0.88474000  0.27149000  1.0 0.1299974584
H  H809  1  0.46203000  0.86526000  0.27149000  1.0 0.1112483297
H  H810  1  0.28797000  0.86526000  0.97851000  1.0 0.1299974584
H  H811  1  0.46203000  0.88474000  0.97851000  1.0 0.1299974584
H  H812  1  0.72851000  0.28797000  0.11526000  1.0 0.1299974584
H  H813  1  0.88474000  0.72851000  0.71203000  1.0 0.1299974584
H  H814  1  0.02149000  0.46203000  0.11526000  1.0 0.1299974584
H  H815  1  0.86526000  0.72851000  0.53797000  1.0 0.1112483297
H  H816  1  0.72851000  0.46203000  0.13474000  1.0 0.1112483297
H  H817  1  0.86526000  0.02149000  0.71203000  1.0 0.1299974584
H  H818  1  0.02149000  0.28797000  0.13474000  1.0 0.1299974584
H  H819  1  0.88474000  0.02149000  0.53797000  1.0 0.1299974584
H  H820  1  0.61526000  0.71203000  0.72851000  1.0 0.1299974584
H  H821  1  0.63474000  0.03797000  0.22851000  1.0 0.1299974584
H  H822  1  0.63474000  0.71203000  0.02149000  1.0 0.1201782266
H  H823  1  0.61526000  0.03797000  0.52149000  1.0 0.1299974584
H  H824  1  0.71203000  0.27149000  0.38474000  1.0 0.1299974584
H  H825  1  0.77149000  0.11526000  0.28797000  1.0 0.1374446762
H  H826  1  0.03797000  0.47851000  0.38474000  1.0 0.1299974584
H  H827  1  0.77149000  0.63474000  0.96203000  1.0 0.1299974584
H  H828  1  0.03797000  0.27149000  0.86526000  1.0 0.1299974584
H  H829  1  0.97851000  0.63474000  0.28797000  1.0 0.1201782266
H  H830  1  0.71203000  0.97851000  0.36526000  1.0 0.1201782266
H  H831  1  0.47851000  0.11526000  0.46203000  1.0 0.1374446762
H  H832  1  0.28797000  0.38474000  0.77149000  1.0 0.1299974584
H  H833  1  0.46203000  0.36526000  0.77149000  1.0 0.1299974584
H  H834  1  0.28797000  0.36526000  0.47851000  1.0 0.1299974584
H  H835  1  0.46203000  0.38474000  0.47851000  1.0 0.1299974584
H  H836  1  0.72851000  0.78797000  0.61526000  1.0 0.1374446762
H  H837  1  0.88474000  0.22851000  0.21203000  1.0 0.1299974584
H  H838  1  0.02149000  0.96203000  0.61526000  1.0 0.1374446762
H  H839  1  0.86526000  0.22851000  0.03797000  1.0 0.1201782266
H  H840  1  0.72851000  0.96203000  0.63474000  1.0 0.1299974584
H  H841  1  0.86526000  0.52149000  0.21203000  1.0 0.1201782266
H  H842  1  0.02149000  0.78797000  0.63474000  1.0 0.1299974584
H  H843  1  0.88474000  0.52149000  0.03797000  1.0 0.1201782266
H  H844  1  0.61526000  0.21203000  0.22851000  1.0 0.1299974584
H  H845  1  0.63474000  0.53797000  0.72851000  1.0 0.1201782266
H  H846  1  0.63474000  0.21203000  0.52149000  1.0 0.1299974584
H  H847  1  0.61526000  0.53797000  0.02149000  1.0 0.1201782266
H  H848  1  0.71203000  0.77149000  0.88474000  1.0 0.1374446762
H  H849  1  0.77149000  0.61526000  0.78797000  1.0 0.1299974584
H  H850  1  0.03797000  0.97851000  0.88474000  1.0 0.1299974584
H  H851  1  0.77149000  0.13474000  0.46203000  1.0 0.1299974584
H  H852  1  0.03797000  0.77149000  0.36526000  1.0 0.1299974584
H  H853  1  0.97851000  0.13474000  0.78797000  1.0 0.1299974584
H  H854  1  0.71203000  0.47851000  0.86526000  1.0 0.1299974584
H  H855  1  0.47851000  0.61526000  0.96203000  1.0 0.1299974584
H  H856  1  0.78797000  0.88474000  0.77149000  1.0 0.1299974584
H  H857  1  0.96203000  0.86526000  0.77149000  1.0 0.1201782266
H  H858  1  0.78797000  0.86526000  0.47851000  1.0 0.1201782266
H  H859  1  0.96203000  0.88474000  0.47851000  1.0 0.1201782266
H  H860  1  0.22851000  0.28797000  0.61526000  1.0 0.1299974584
H  H861  1  0.38474000  0.72851000  0.21203000  1.0 0.1374446762
H  H862  1  0.52149000  0.46203000  0.61526000  1.0 0.1299974584
H  H863  1  0.36526000  0.72851000  0.03797000  1.0 0.1299974584
H  H864  1  0.22851000  0.46203000  0.63474000  1.0 0.1299974584
H  H865  1  0.36526000  0.02149000  0.21203000  1.0 0.1299974584
H  H866  1  0.52149000  0.28797000  0.63474000  1.0 0.1201782266
H  H867  1  0.38474000  0.02149000  0.03797000  1.0 0.1374446762
H  H868  1  0.11526000  0.71203000  0.22851000  1.0 0.1374446762
H  H869  1  0.13474000  0.03797000  0.72851000  1.0 0.1299974584
H  H870  1  0.13474000  0.71203000  0.52149000  1.0 0.1299974584
H  H871  1  0.11526000  0.03797000  0.02149000  1.0 0.1299974584
H  H872  1  0.21203000  0.27149000  0.88474000  1.0 0.1299974584
H  H873  1  0.27149000  0.11526000  0.78797000  1.0 0.1299974584
H  H874  1  0.53797000  0.47851000  0.88474000  1.0 0.1374446762
H  H875  1  0.27149000  0.63474000  0.46203000  1.0 0.1201782266
H  H876  1  0.53797000  0.27149000  0.36526000  1.0 0.1201782266
H  H877  1  0.47851000  0.63474000  0.78797000  1.0 0.1299974584
H  H878  1  0.21203000  0.97851000  0.86526000  1.0 0.1299974584
H  H879  1  0.97851000  0.11526000  0.96203000  1.0 0.1299974584
H  H880  1  0.78797000  0.38474000  0.27149000  1.0 0.1374446762
H  H881  1  0.96203000  0.36526000  0.27149000  1.0 0.1299974584
H  H882  1  0.78797000  0.36526000  0.97851000  1.0 0.1299974584
H  H883  1  0.96203000  0.38474000  0.97851000  1.0 0.1201782266
H  H884  1  0.22851000  0.78797000  0.11526000  1.0 0.1299974584
H  H885  1  0.38474000  0.22851000  0.71203000  1.0 0.1374446762
H  H886  1  0.52149000  0.96203000  0.11526000  1.0 0.1201782266
H  H887  1  0.36526000  0.22851000  0.53797000  1.0 0.1299974584
H  H888  1  0.22851000  0.96203000  0.13474000  1.0 0.1201782266
H  H889  1  0.36526000  0.52149000  0.71203000  1.0 0.1299974584
H  H890  1  0.52149000  0.78797000  0.13474000  1.0 0.1201782266
H  H891  1  0.38474000  0.52149000  0.53797000  1.0 0.1299974584
H  H892  1  0.11526000  0.21203000  0.72851000  1.0 0.1299974584
H  H893  1  0.13474000  0.53797000  0.22851000  1.0 0.1299974584
H  H894  1  0.13474000  0.21203000  0.02149000  1.0 0.1299974584
H  H895  1  0.11526000  0.53797000  0.52149000  1.0 0.1374446762
H  H896  1  0.21203000  0.77149000  0.38474000  1.0 0.1299974584
H  H897  1  0.27149000  0.61526000  0.28797000  1.0 0.1299974584
H  H898  1  0.53797000  0.97851000  0.38474000  1.0 0.1201782266
H  H899  1  0.27149000  0.13474000  0.96203000  1.0 0.1299974584
H  H900  1  0.53797000  0.77149000  0.86526000  1.0 0.1299974584
H  H901  1  0.47851000  0.13474000  0.28797000  1.0 0.1299974584
H  H902  1  0.21203000  0.47851000  0.36526000  1.0 0.1299974584
H  H903  1  0.97851000  0.61526000  0.46203000  1.0 0.1201782266
H  H904  1  0.71203000  0.11526000  0.72851000  1.0 0.1374446762
H  H905  1  0.03797000  0.63474000  0.72851000  1.0 0.1299974584
H  H906  1  0.71203000  0.63474000  0.52149000  1.0 0.1299974584
H  H907  1  0.03797000  0.11526000  0.52149000  1.0 0.1299974584
H  H908  1  0.27149000  0.71203000  0.88474000  1.0 0.1299974584
H  H909  1  0.11526000  0.27149000  0.28797000  1.0 0.1299974584
H  H910  1  0.47851000  0.03797000  0.88474000  1.0 0.1299974584
H  H911  1  0.63474000  0.27149000  0.96203000  1.0 0.1299974584
H  H912  1  0.27149000  0.03797000  0.36526000  1.0 0.1299974584
H  H913  1  0.63474000  0.47851000  0.28797000  1.0 0.1299974584
H  H914  1  0.47851000  0.71203000  0.36526000  1.0 0.1299974584
H  H915  1  0.11526000  0.47851000  0.96203000  1.0 0.1112483297
H  H916  1  0.38474000  0.28797000  0.27149000  1.0 0.1112483297
H  H917  1  0.86526000  0.46203000  0.77149000  1.0 0.1299974584
H  H918  1  0.86526000  0.28797000  0.47851000  1.0 0.1299974584
H  H919  1  0.38474000  0.46203000  0.97851000  1.0 0.1299974584
H  H920  1  0.28797000  0.72851000  0.61526000  1.0 0.1112483297
H  H921  1  0.22851000  0.88474000  0.71203000  1.0 0.1299974584
H  H922  1  0.46203000  0.02149000  0.61526000  1.0 0.1299974584
H  H923  1  0.22851000  0.86526000  0.53797000  1.0 0.1299974584
H  H924  1  0.46203000  0.72851000  0.63474000  1.0 0.1299974584
H  H925  1  0.52149000  0.86526000  0.71203000  1.0 0.1299974584
H  H926  1  0.28797000  0.52149000  0.13474000  1.0 0.1299974584
H  H927  1  0.02149000  0.88474000  0.03797000  1.0 0.1299974584
H  H928  1  0.71203000  0.61526000  0.22851000  1.0 0.1112483297
H  H929  1  0.03797000  0.63474000  0.22851000  1.0 0.1201782266
H  H930  1  0.03797000  0.61526000  0.52149000  1.0 0.1201782266
H  H931  1  0.27149000  0.21203000  0.38474000  1.0 0.1299974584
H  H932  1  0.11526000  0.77149000  0.78797000  1.0 0.1201782266
H  H933  1  0.47851000  0.03797000  0.38474000  1.0 0.1201782266
H  H934  1  0.63474000  0.77149000  0.96203000  1.0 0.1201782266
H  H935  1  0.63474000  0.47851000  0.78797000  1.0 0.1112483297
H  H936  1  0.47851000  0.21203000  0.36526000  1.0 0.1112483297
H  H937  1  0.38474000  0.78797000  0.77149000  1.0 0.1299974584
H  H938  1  0.86526000  0.46203000  0.27149000  1.0 0.1201782266
H  H939  1  0.86526000  0.78797000  0.97851000  1.0 0.1299974584
H  H940  1  0.28797000  0.22851000  0.11526000  1.0 0.1299974584
H  H941  1  0.22851000  0.38474000  0.21203000  1.0 0.1299974584
H  H942  1  0.46203000  0.02149000  0.11526000  1.0 0.1201782266
H  H943  1  0.46203000  0.22851000  0.13474000  1.0 0.1299974584
H  H944  1  0.52149000  0.86526000  0.21203000  1.0 0.1112483297
H  H945  1  0.28797000  0.02149000  0.13474000  1.0 0.1112483297
H  H946  1  0.02149000  0.38474000  0.53797000  1.0 0.1299974584
H  H947  1  0.21203000  0.11526000  0.22851000  1.0 0.1112483297
H  H948  1  0.21203000  0.63474000  0.52149000  1.0 0.1112483297
H  H949  1  0.77149000  0.71203000  0.38474000  1.0 0.1112483297
H  H950  1  0.61526000  0.27149000  0.78797000  1.0 0.1299974584
H  H951  1  0.77149000  0.03797000  0.36526000  1.0 0.1201782266
H  H952  1  0.61526000  0.47851000  0.96203000  1.0 0.1201782266
H  H953  1  0.88474000  0.28797000  0.77149000  1.0 0.1299974584
H  H954  1  0.86526000  0.28797000  0.97851000  1.0 0.1112483297
H  H955  1  0.88474000  0.46203000  0.97851000  1.0 0.1201782266
H  H956  1  0.78797000  0.72851000  0.11526000  1.0 0.1299974584
H  H957  1  0.72851000  0.88474000  0.21203000  1.0 0.1299974584
H  H958  1  0.72851000  0.86526000  0.53797000  1.0 0.1201782266
H  H959  1  0.46203000  0.72851000  0.13474000  1.0 0.1201782266
H  H960  1  0.02149000  0.86526000  0.21203000  1.0 0.1299974584
H  H961  1  0.78797000  0.52149000  0.13474000  1.0 0.1112483297
H  H962  1  0.02149000  0.88474000  0.53797000  1.0 0.1201782266
H  H963  1  0.21203000  0.61526000  0.72851000  1.0 0.1299974584
H  H964  1  0.77149000  0.21203000  0.88474000  1.0 0.1112483297
H  H965  1  0.61526000  0.77149000  0.28797000  1.0 0.1112483297
H  H966  1  0.88474000  0.78797000  0.27149000  1.0 0.1299974584
H  H967  1  0.86526000  0.78797000  0.47851000  1.0 0.1112483297
H  H968  1  0.78797000  0.22851000  0.61526000  1.0 0.1299974584
H  H969  1  0.72851000  0.38474000  0.71203000  1.0 0.1112483297
H  H970  1  0.46203000  0.22851000  0.63474000  1.0 0.1201782266
H  H971  1  0.02149000  0.86526000  0.71203000  1.0 0.1112483297
H  H972  1  0.78797000  0.02149000  0.13474000  1.0 0.1299974584
H  H973  1  0.02149000  0.38474000  0.03797000  1.0 0.1112483297
H  H974  1  0.27499000  0.85713000  0.31486000  1.0 0.1201782266
H  H975  1  0.47501000  0.89287000  0.31486000  1.0 0.1299974584
H  H976  1  0.27499000  0.89287000  0.93515000  1.0 0.1201782266
H  H977  1  0.47501000  0.85713000  0.93515000  1.0 0.1201782266
H  H978  1  0.68514000  0.27499000  0.14287000  1.0 0.1201782266
H  H979  1  0.85713000  0.68514000  0.72501000  1.0 0.1201782266
H  H980  1  0.06485000  0.47501000  0.14287000  1.0 0.1201782266
H  H981  1  0.89287000  0.68514000  0.52499000  1.0 0.1299974584
H  H982  1  0.68514000  0.47501000  0.10713000  1.0 0.1299974584
H  H983  1  0.89287000  0.06485000  0.72501000  1.0 0.1201782266
H  H984  1  0.06485000  0.27499000  0.10713000  1.0 0.1201782266
H  H985  1  0.85713000  0.06485000  0.52499000  1.0 0.1201782266
H  H986  1  0.64287000  0.72501000  0.68515000  1.0 0.1201782266
H  H987  1  0.60713000  0.02499000  0.18515000  1.0 0.1299974584
H  H988  1  0.60713000  0.72501000  0.06486000  1.0 0.1299974584
H  H989  1  0.64287000  0.02499000  0.56485000  1.0 0.1201782266
H  H990  1  0.72501000  0.31485000  0.35713000  1.0 0.1201782266
H  H991  1  0.81485000  0.14287000  0.27499000  1.0 0.1201782266
H  H992  1  0.02499000  0.43515000  0.35713000  1.0 0.1201782266
H  H993  1  0.81485000  0.60713000  0.97501000  1.0 0.1299974584
H  H994  1  0.02499000  0.31485000  0.89287000  1.0 0.1201782266
H  H995  1  0.93514000  0.60713000  0.27499000  1.0 0.1299974584
H  H996  1  0.72501000  0.93514000  0.39287000  1.0 0.1299974584
H  H997  1  0.43515000  0.14287000  0.47501000  1.0 0.1201782266
H  H998  1  0.27499000  0.35713000  0.81485000  1.0 0.1201782266
H  H999  1  0.47501000  0.39287000  0.81485000  1.0 0.1201782266
H  H1000  1  0.27499000  0.39287000  0.43515000  1.0 0.1201782266
H  H1001  1  0.47501000  0.35713000  0.43515000  1.0 0.1201782266
H  H1002  1  0.68514000  0.77499000  0.64287000  1.0 0.1201782266
H  H1003  1  0.85713000  0.18515000  0.22501000  1.0 0.1201782266
H  H1004  1  0.06485000  0.97501000  0.64287000  1.0 0.1201782266
H  H1005  1  0.89287000  0.18515000  0.02499000  1.0 0.1201782266
H  H1006  1  0.68514000  0.97501000  0.60713000  1.0 0.1201782266
H  H1007  1  0.89287000  0.56485000  0.22501000  1.0 0.1299974584
H  H1008  1  0.06485000  0.77499000  0.60713000  1.0 0.1201782266
H  H1009  1  0.85713000  0.56485000  0.02499000  1.0 0.1201782266
H  H1010  1  0.64287000  0.22501000  0.18515000  1.0 0.1201782266
H  H1011  1  0.60713000  0.52499000  0.68515000  1.0 0.1299974584
H  H1012  1  0.60713000  0.22501000  0.56485000  1.0 0.1299974584
H  H1013  1  0.64287000  0.52499000  0.06486000  1.0 0.1299974584
H  H1014  1  0.72501000  0.81485000  0.85713000  1.0 0.1201782266
H  H1015  1  0.81485000  0.64287000  0.77499000  1.0 0.1201782266
H  H1016  1  0.02499000  0.93514000  0.85713000  1.0 0.1299974584
H  H1017  1  0.81485000  0.10713000  0.47501000  1.0 0.1201782266
H  H1018  1  0.02499000  0.81485000  0.39287000  1.0 0.1299974584
H  H1019  1  0.93514000  0.10713000  0.77499000  1.0 0.1201782266
H  H1020  1  0.72501000  0.43515000  0.89287000  1.0 0.1201782266
H  H1021  1  0.43515000  0.64287000  0.97501000  1.0 0.1201782266
H  H1022  1  0.77499000  0.85713000  0.81485000  1.0 0.1201782266
H  H1023  1  0.97501000  0.89287000  0.81485000  1.0 0.1299974584
H  H1024  1  0.77499000  0.89287000  0.43515000  1.0 0.1299974584
H  H1025  1  0.97501000  0.85713000  0.43515000  1.0 0.1201782266
H  H1026  1  0.18515000  0.27499000  0.64287000  1.0 0.1201782266
H  H1027  1  0.35713000  0.68514000  0.22501000  1.0 0.1201782266
H  H1028  1  0.56485000  0.47501000  0.64287000  1.0 0.1201782266
H  H1029  1  0.39287000  0.68514000  0.02499000  1.0 0.1201782266
H  H1030  1  0.18515000  0.47501000  0.60713000  1.0 0.1201782266
H  H1031  1  0.39287000  0.06485000  0.22501000  1.0 0.1201782266
H  H1032  1  0.56485000  0.27499000  0.60713000  1.0 0.1299974584
H  H1033  1  0.35713000  0.06485000  0.02499000  1.0 0.1201782266
H  H1034  1  0.14287000  0.72501000  0.18515000  1.0 0.1201782266
H  H1035  1  0.10713000  0.02499000  0.68515000  1.0 0.1201782266
H  H1036  1  0.10713000  0.72501000  0.56485000  1.0 0.1201782266
H  H1037  1  0.14287000  0.02499000  0.06486000  1.0 0.1201782266
H  H1038  1  0.22501000  0.31485000  0.85713000  1.0 0.1201782266
H  H1039  1  0.31485000  0.14287000  0.77499000  1.0 0.1201782266
H  H1040  1  0.52499000  0.43515000  0.85713000  1.0 0.1201782266
H  H1041  1  0.31485000  0.60713000  0.47501000  1.0 0.1201782266
H  H1042  1  0.52499000  0.31485000  0.39287000  1.0 0.1201782266
H  H1043  1  0.43515000  0.60713000  0.77499000  1.0 0.1201782266
H  H1044  1  0.22501000  0.93514000  0.89287000  1.0 0.1201782266
H  H1045  1  0.93514000  0.14287000  0.97501000  1.0 0.1201782266
H  H1046  1  0.77499000  0.35713000  0.31486000  1.0 0.1201782266
H  H1047  1  0.97501000  0.39287000  0.31486000  1.0 0.1201782266
H  H1048  1  0.77499000  0.39287000  0.93515000  1.0 0.1201782266
H  H1049  1  0.97501000  0.35713000  0.93515000  1.0 0.1201782266
H  H1050  1  0.18515000  0.77499000  0.14287000  1.0 0.1201782266
H  H1051  1  0.35713000  0.18515000  0.72501000  1.0 0.1112483297
H  H1052  1  0.56485000  0.97501000  0.14287000  1.0 0.1201782266
H  H1053  1  0.39287000  0.18515000  0.52499000  1.0 0.1201782266
H  H1054  1  0.18515000  0.97501000  0.10713000  1.0 0.1201782266
H  H1055  1  0.39287000  0.56485000  0.72501000  1.0 0.1201782266
H  H1056  1  0.56485000  0.77499000  0.10713000  1.0 0.1299974584
H  H1057  1  0.35713000  0.56485000  0.52499000  1.0 0.1201782266
H  H1058  1  0.14287000  0.22501000  0.68515000  1.0 0.1201782266
H  H1059  1  0.10713000  0.52499000  0.18515000  1.0 0.1201782266
H  H1060  1  0.10713000  0.22501000  0.06486000  1.0 0.1201782266
H  H1061  1  0.14287000  0.52499000  0.56485000  1.0 0.1201782266
H  H1062  1  0.22501000  0.81485000  0.35713000  1.0 0.1201782266
H  H1063  1  0.31485000  0.64287000  0.27499000  1.0 0.1201782266
H  H1064  1  0.52499000  0.93514000  0.35713000  1.0 0.1299974584
H  H1065  1  0.31485000  0.10713000  0.97501000  1.0 0.1201782266
H  H1066  1  0.52499000  0.81485000  0.89287000  1.0 0.1201782266
H  H1067  1  0.43515000  0.10713000  0.27499000  1.0 0.1201782266
H  H1068  1  0.22501000  0.43515000  0.39287000  1.0 0.1201782266
H  H1069  1  0.93514000  0.64287000  0.47501000  1.0 0.1299974584
H  H1070  1  0.72501000  0.14287000  0.68515000  1.0 0.1299974584
H  H1071  1  0.02499000  0.60713000  0.68515000  1.0 0.1299974584
H  H1072  1  0.72501000  0.60713000  0.56485000  1.0 0.1299974584
H  H1073  1  0.02499000  0.14287000  0.56485000  1.0 0.1299974584
H  H1074  1  0.31485000  0.72501000  0.85713000  1.0 0.1299974584
H  H1075  1  0.14287000  0.31485000  0.27499000  1.0 0.1299974584
H  H1076  1  0.43515000  0.02499000  0.85713000  1.0 0.1299974584
H  H1077  1  0.60713000  0.31485000  0.97501000  1.0 0.1299974584
H  H1078  1  0.31485000  0.02499000  0.39287000  1.0 0.1299974584
H  H1079  1  0.60713000  0.43515000  0.27499000  1.0 0.1299974584
H  H1080  1  0.43515000  0.72501000  0.39287000  1.0 0.1299974584
H  H1081  1  0.14287000  0.43515000  0.97501000  1.0 0.1299974584
H  H1082  1  0.35713000  0.27499000  0.31486000  1.0 0.1201782266
H  H1083  1  0.89287000  0.47501000  0.81485000  1.0 0.1299974584
H  H1084  1  0.89287000  0.27499000  0.43515000  1.0 0.1299974584
H  H1085  1  0.35713000  0.47501000  0.93515000  1.0 0.1299974584
H  H1086  1  0.27499000  0.68514000  0.64287000  1.0 0.1201782266
H  H1087  1  0.18515000  0.85713000  0.72501000  1.0 0.1299974584
H  H1088  1  0.47501000  0.06485000  0.64287000  1.0 0.1299974584
H  H1089  1  0.18515000  0.89287000  0.52499000  1.0 0.1299974584
H  H1090  1  0.47501000  0.68514000  0.60713000  1.0 0.1299974584
H  H1091  1  0.56485000  0.89287000  0.72501000  1.0 0.1299974584
H  H1092  1  0.27499000  0.56485000  0.10713000  1.0 0.1299974584
H  H1093  1  0.06485000  0.85713000  0.02499000  1.0 0.1299974584
H  H1094  1  0.72501000  0.64287000  0.18515000  1.0 0.1201782266
H  H1095  1  0.02499000  0.60713000  0.18515000  1.0 0.1299974584
H  H1096  1  0.02499000  0.64287000  0.56485000  1.0 0.1299974584
H  H1097  1  0.31485000  0.22501000  0.35713000  1.0 0.1201782266
H  H1098  1  0.14287000  0.81485000  0.77499000  1.0 0.1201782266
H  H1099  1  0.43515000  0.02499000  0.35713000  1.0 0.1299974584
H  H1100  1  0.60713000  0.81485000  0.97501000  1.0 0.1299974584
H  H1101  1  0.60713000  0.43515000  0.77499000  1.0 0.1201782266
H  H1102  1  0.43515000  0.22501000  0.39287000  1.0 0.1201782266
H  H1103  1  0.35713000  0.77499000  0.81485000  1.0 0.1201782266
H  H1104  1  0.89287000  0.47501000  0.31486000  1.0 0.1299974584
H  H1105  1  0.89287000  0.77499000  0.93515000  1.0 0.1299974584
H  H1106  1  0.27499000  0.18515000  0.14287000  1.0 0.1201782266
H  H1107  1  0.18515000  0.35713000  0.22501000  1.0 0.1201782266
H  H1108  1  0.47501000  0.06485000  0.14287000  1.0 0.1299974584
H  H1109  1  0.47501000  0.18515000  0.10713000  1.0 0.1299974584
H  H1110  1  0.56485000  0.89287000  0.22501000  1.0 0.1201782266
H  H1111  1  0.27499000  0.06485000  0.10713000  1.0 0.1201782266
H  H1112  1  0.06485000  0.35713000  0.52499000  1.0 0.1299974584
H  H1113  1  0.22501000  0.14287000  0.18515000  1.0 0.1201782266
H  H1114  1  0.22501000  0.60713000  0.56485000  1.0 0.1201782266
H  H1115  1  0.81485000  0.72501000  0.35713000  1.0 0.1201782266
H  H1116  1  0.64287000  0.31485000  0.77499000  1.0 0.1201782266
H  H1117  1  0.81485000  0.02499000  0.39287000  1.0 0.1299974584
H  H1118  1  0.64287000  0.43515000  0.97501000  1.0 0.1299974584
H  H1119  1  0.85713000  0.27499000  0.81485000  1.0 0.1201782266
H  H1120  1  0.89287000  0.27499000  0.93515000  1.0 0.1201782266
H  H1121  1  0.85713000  0.47501000  0.93515000  1.0 0.1299974584
H  H1122  1  0.77499000  0.68514000  0.14287000  1.0 0.1299974584
H  H1123  1  0.68514000  0.85713000  0.22501000  1.0 0.1299974584
H  H1124  1  0.68514000  0.89287000  0.52499000  1.0 0.1299974584
H  H1125  1  0.47501000  0.68514000  0.10713000  1.0 0.1299974584
H  H1126  1  0.06485000  0.89287000  0.22501000  1.0 0.1299974584
H  H1127  1  0.77499000  0.56485000  0.10713000  1.0 0.1201782266
H  H1128  1  0.06485000  0.85713000  0.52499000  1.0 0.1299974584
H  H1129  1  0.22501000  0.64287000  0.68515000  1.0 0.1201782266
H  H1130  1  0.81485000  0.22501000  0.85713000  1.0 0.1201782266
H  H1131  1  0.64287000  0.81485000  0.27499000  1.0 0.1201782266
H  H1132  1  0.85713000  0.77499000  0.31486000  1.0 0.1299974584
H  H1133  1  0.89287000  0.77499000  0.43515000  1.0 0.1201782266
H  H1134  1  0.77499000  0.18515000  0.64287000  1.0 0.1201782266
H  H1135  1  0.68514000  0.35713000  0.72501000  1.0 0.1201782266
H  H1136  1  0.47501000  0.18515000  0.60713000  1.0 0.1299974584
H  H1137  1  0.06485000  0.89287000  0.72501000  1.0 0.1201782266
H  H1138  1  0.77499000  0.06485000  0.10713000  1.0 0.1299974584
H  H1139  1  0.06485000  0.35713000  0.02499000  1.0 0.1201782266
C  C1  1  0.12500000  0.87500000  0.37500000  1.0 0.070144019
C  C2  1  0.62500000  0.87500000  0.37500000  1.0 0.0212388158
C  C3  1  0.12500000  0.87500000  0.87500000  1.0 0.070144019
C  C4  1  0.62500000  0.87500000  0.87500000  1.0 0.0297531631
C  C5  1  0.62500000  0.12500000  0.12500000  1.0 0.070144019
C  C6  1  0.87500000  0.62500000  0.87500000  1.0 0.070144019
C  C7  1  0.12500000  0.62500000  0.12500000  1.0 0.0297531631
C  C8  1  0.87500000  0.62500000  0.37500000  1.0 0.0212388158
C  C9  1  0.62500000  0.62500000  0.12500000  1.0 0.0212388158
C  C10  1  0.87500000  0.12500000  0.87500000  1.0 0.0399708086
C  C11  1  0.12500000  0.12500000  0.12500000  1.0 0.0399708086
C  C12  1  0.87500000  0.12500000  0.37500000  1.0 0.0297531631
C  C13  1  0.62500000  0.87500000  0.62500000  1.0 -0.2499680192
C  C14  1  0.62500000  0.87500000  0.12500000  1.0 0.0499230938
C  C15  1  0.87500000  0.37500000  0.37500000  1.0 -0.2826865883
C  C16  1  0.87500000  0.12500000  0.12500000  1.0 -0.2716011078
C  C17  1  0.87500000  0.62500000  0.12500000  1.0 0.0499230938
C  C18  1  0.87500000  0.37500000  0.87500000  1.0 0.0212388158
C  C19  1  0.87500000  0.87500000  0.37500000  1.0 0.0499230938
C  C20  1  0.37500000  0.12500000  0.62500000  1.0 -0.3063190401
C  C21  1  0.12500000  0.37500000  0.87500000  1.0 -0.220387441
C  C22  1  0.62500000  0.37500000  0.87500000  1.0 0.0212388158
C  C23  1  0.12500000  0.37500000  0.37500000  1.0 0.0399708086
C  C24  1  0.62500000  0.37500000  0.37500000  1.0 -0.289851454
C  C25  1  0.62500000  0.62500000  0.62500000  1.0 0.0297531631
C  C26  1  0.12500000  0.12500000  0.62500000  1.0 -0.2967345885
C  C27  1  0.62500000  0.12500000  0.62500000  1.0 0.070144019
C  C28  1  0.12500000  0.62500000  0.62500000  1.0 0.0212388158
C  C29  1  0.62500000  0.37500000  0.12500000  1.0 0.070144019
C  C30  1  0.62500000  0.37500000  0.62500000  1.0 0.0399708086
C  C31  1  0.87500000  0.87500000  0.87500000  1.0 -0.2580717177
C  C32  1  0.87500000  0.62500000  0.62500000  1.0 0.070144019
C  C33  1  0.87500000  0.12500000  0.62500000  1.0 0.0399708086
C  C34  1  0.37500000  0.62500000  0.12500000  1.0 -0.2716011078
C  C35  1  0.37500000  0.62500000  0.37500000  1.0 -0.289851454
C  C36  1  0.37500000  0.62500000  0.87500000  1.0 0.0399708086
C  C37  1  0.37500000  0.12500000  0.37500000  1.0 0.0212388158
C  C38  1  0.37500000  0.12500000  0.87500000  1.0 -0.2967345885
C  C39  1  0.12500000  0.87500000  0.12500000  1.0 -0.235115555
C  C40  1  0.12500000  0.87500000  0.62500000  1.0 0.0212388158
C  C41  1  0.37500000  0.37500000  0.87500000  1.0 -0.3063190401
C  C42  1  0.37500000  0.62500000  0.62500000  1.0 0.0399708086
C  C43  1  0.37500000  0.37500000  0.37500000  1.0 0.0399708086
C  C44  1  0.37500000  0.87500000  0.87500000  1.0 0.0399708086
C  C45  1  0.12500000  0.37500000  0.62500000  1.0 -0.2967345885
C  C46  1  0.12500000  0.37500000  0.12500000  1.0 0.0399708086
C  C47  1  0.37500000  0.87500000  0.37500000  1.0 0.070144019
C  C48  1  0.37500000  0.12500000  0.12500000  1.0 0.0212388158
C  C49  1  0.14767000  0.89691000  0.36131000  1.0 -0.0400785791
C  C50  1  0.60233000  0.85309000  0.36131000  1.0 0.0499230938
C  C51  1  0.14767000  0.85309000  0.88869000  1.0 -0.0502428352
C  C52  1  0.60233000  0.89691000  0.88869000  1.0 0.0399708086
C  C53  1  0.63869000  0.14767000  0.10309000  1.0 -0.0400785791
C  C54  1  0.89691000  0.63869000  0.85233000  1.0 -0.0400785791
C  C55  1  0.11131000  0.60233000  0.10309000  1.0 0.0399708086
C  C56  1  0.85309000  0.63869000  0.39767000  1.0 0.0499230938
C  C57  1  0.63869000  0.60233000  0.14691000  1.0 0.0499230938
C  C58  1  0.85309000  0.11131000  0.85233000  1.0 -0.0204810817
C  C59  1  0.11131000  0.14767000  0.14691000  1.0 -0.0204810817
C  C60  1  0.89691000  0.11131000  0.39767000  1.0 0.0399708086
C  C61  1  0.60309000  0.85233000  0.63869000  1.0 0.070144019
C  C62  1  0.64691000  0.89767000  0.13869000  1.0 -0.0400785791
C  C63  1  0.64691000  0.85233000  0.11131000  1.0 0.0597219051
C  C64  1  0.60309000  0.89767000  0.61131000  1.0 0.070144019
C  C65  1  0.85233000  0.36131000  0.39691000  1.0 0.070144019
C  C66  1  0.86131000  0.10309000  0.14767000  1.0 0.070144019
C  C67  1  0.89767000  0.38869000  0.39691000  1.0 0.070144019
C  C68  1  0.86131000  0.64691000  0.10233000  1.0 -0.0400785791
C  C69  1  0.89767000  0.36131000  0.85309000  1.0 0.0399708086
C  C70  1  0.88869000  0.64691000  0.14767000  1.0 0.0597219051
C  C71  1  0.85233000  0.88869000  0.35309000  1.0 0.0597219051
C  C72  1  0.38869000  0.10309000  0.60233000  1.0 0.070144019
C  C73  1  0.14767000  0.39691000  0.86131000  1.0 -0.001588679
C  C74  1  0.60233000  0.35309000  0.86131000  1.0 0.0399708086
C  C75  1  0.14767000  0.35309000  0.38869000  1.0 0.0297531631
C  C76  1  0.60233000  0.39691000  0.38869000  1.0 0.070144019
C  C77  1  0.63869000  0.64767000  0.60309000  1.0 0.0399708086
C  C78  1  0.89691000  0.13869000  0.35233000  1.0 0.0399708086
C  C79  1  0.11131000  0.10233000  0.60309000  1.0 0.070144019
C  C80  1  0.85309000  0.13869000  0.89767000  1.0 0.070144019
C  C81  1  0.63869000  0.10233000  0.64691000  1.0 -0.0703996179
C  C82  1  0.85309000  0.61131000  0.35233000  1.0 0.0597219051
C  C83  1  0.11131000  0.64767000  0.64691000  1.0 0.0399708086
C  C84  1  0.89691000  0.61131000  0.89767000  1.0 0.0597219051
C  C85  1  0.60309000  0.35233000  0.13869000  1.0 -0.0502428352
C  C86  1  0.64691000  0.39767000  0.63869000  1.0 0.070144019
C  C87  1  0.64691000  0.35233000  0.61131000  1.0 -0.0204810817
C  C88  1  0.60309000  0.39767000  0.11131000  1.0 0.0597219051
C  C89  1  0.85233000  0.86131000  0.89691000  1.0 0.070144019
C  C90  1  0.86131000  0.60309000  0.64767000  1.0 -0.0400785791
C  C91  1  0.89767000  0.88869000  0.89691000  1.0 0.070144019
C  C92  1  0.86131000  0.14691000  0.60233000  1.0 0.0212388158
C  C93  1  0.89767000  0.86131000  0.35309000  1.0 -0.0400785791
C  C94  1  0.88869000  0.14691000  0.64767000  1.0 0.0297531631
C  C95  1  0.85233000  0.38869000  0.85309000  1.0 0.0399708086
C  C96  1  0.38869000  0.60309000  0.10233000  1.0 0.070144019
C  C97  1  0.64767000  0.89691000  0.86131000  1.0 0.0399708086
C  C98  1  0.10233000  0.85309000  0.86131000  1.0 0.0597219051
C  C99  1  0.64767000  0.85309000  0.38869000  1.0 0.0597219051
C  C100  1  0.10233000  0.89691000  0.38869000  1.0 0.0597219051
C  C101  1  0.13869000  0.14767000  0.60309000  1.0 0.070144019
C  C102  1  0.39691000  0.63869000  0.35233000  1.0 0.070144019
C  C103  1  0.61131000  0.60233000  0.60309000  1.0 0.0399708086
C  C104  1  0.35309000  0.63869000  0.89767000  1.0 0.0297531631
C  C105  1  0.13869000  0.60233000  0.64691000  1.0 0.0399708086
C  C106  1  0.35309000  0.11131000  0.35233000  1.0 0.0399708086
C  C107  1  0.61131000  0.14767000  0.64691000  1.0 0.0597219051
C  C108  1  0.39691000  0.11131000  0.89767000  1.0 0.070144019
C  C109  1  0.10309000  0.85233000  0.13869000  1.0 0.070144019
C  C110  1  0.14691000  0.89767000  0.63869000  1.0 0.0399708086
C  C111  1  0.14691000  0.85233000  0.61131000  1.0 0.0399708086
C  C112  1  0.10309000  0.89767000  0.11131000  1.0 0.070144019
C  C113  1  0.35233000  0.36131000  0.89691000  1.0 0.070144019
C  C114  1  0.36131000  0.10309000  0.64767000  1.0 0.070144019
C  C115  1  0.39767000  0.38869000  0.89691000  1.0 0.070144019
C  C116  1  0.36131000  0.64691000  0.60233000  1.0 0.070144019
C  C117  1  0.39767000  0.36131000  0.35309000  1.0 0.070144019
C  C118  1  0.38869000  0.64691000  0.64767000  1.0 -0.0283845212
C  C119  1  0.35233000  0.88869000  0.85309000  1.0 0.0297531631
C  C120  1  0.88869000  0.10309000  0.10233000  1.0 0.070144019
C  C121  1  0.64767000  0.39691000  0.36131000  1.0 0.070144019
C  C122  1  0.10233000  0.35309000  0.36131000  1.0 0.0297531631
C  C123  1  0.64767000  0.35309000  0.88869000  1.0 0.0399708086
C  C124  1  0.10233000  0.39691000  0.88869000  1.0 0.070144019
C  C125  1  0.13869000  0.64767000  0.10309000  1.0 0.0399708086
C  C126  1  0.39691000  0.13869000  0.85233000  1.0 0.070144019
C  C127  1  0.61131000  0.10233000  0.10309000  1.0 0.0597219051
C  C128  1  0.35309000  0.13869000  0.39767000  1.0 0.0399708086
C  C129  1  0.13869000  0.10233000  0.14691000  1.0 0.070144019
C  C130  1  0.35309000  0.61131000  0.85233000  1.0 0.0297531631
C  C131  1  0.61131000  0.64767000  0.14691000  1.0 0.0597219051
C  C132  1  0.39691000  0.61131000  0.39767000  1.0 0.070144019
C  C133  1  0.10309000  0.35233000  0.63869000  1.0 0.070144019
C  C134  1  0.14691000  0.39767000  0.13869000  1.0 0.0212388158
C  C135  1  0.14691000  0.35233000  0.11131000  1.0 0.0297531631
C  C136  1  0.10309000  0.39767000  0.61131000  1.0 0.070144019
C  C137  1  0.35233000  0.86131000  0.39691000  1.0 -0.0400785791
C  C138  1  0.36131000  0.60309000  0.14767000  1.0 0.070144019
C  C139  1  0.39767000  0.88869000  0.39691000  1.0 0.0597219051
C  C140  1  0.36131000  0.14691000  0.10233000  1.0 0.0399708086
C  C141  1  0.39767000  0.86131000  0.85309000  1.0 0.0212388158
C  C142  1  0.38869000  0.14691000  0.14767000  1.0 0.0399708086
C  C143  1  0.35233000  0.38869000  0.35309000  1.0 -0.0204810817
C  C144  1  0.88869000  0.60309000  0.60233000  1.0 0.0597219051
C  C145  1  0.85233000  0.10309000  0.63869000  1.0 0.0212388158
C  C146  1  0.89767000  0.64691000  0.63869000  1.0 -0.0204810817
C  C147  1  0.85233000  0.64691000  0.61131000  1.0 0.0110511389
C  C148  1  0.89767000  0.10309000  0.61131000  1.0 0.0297531631
C  C149  1  0.36131000  0.85233000  0.89691000  1.0 0.0212388158
C  C150  1  0.10309000  0.36131000  0.14767000  1.0 0.0212388158
C  C151  1  0.38869000  0.89767000  0.89691000  1.0 0.0297531631
C  C152  1  0.64691000  0.36131000  0.10233000  1.0 -0.0283845212
C  C153  1  0.36131000  0.89767000  0.35309000  1.0 -0.0283845212
C  C154  1  0.64691000  0.38869000  0.14767000  1.0 0.0110511389
C  C155  1  0.38869000  0.85233000  0.35309000  1.0 0.0110511389
C  C156  1  0.10309000  0.38869000  0.10233000  1.0 0.0297531631
C  C157  1  0.39691000  0.14767000  0.36131000  1.0 0.0597219051
C  C158  1  0.85309000  0.60233000  0.86131000  1.0 -0.0283845212
C  C159  1  0.85309000  0.14767000  0.38869000  1.0 0.0597219051
C  C160  1  0.39691000  0.60233000  0.88869000  1.0 0.0297531631
C  C161  1  0.14767000  0.63869000  0.60309000  1.0 0.0597219051
C  C162  1  0.13869000  0.89691000  0.85233000  1.0 -0.0400785791
C  C163  1  0.60233000  0.11131000  0.60309000  1.0 -0.0204810817
C  C164  1  0.13869000  0.85309000  0.39767000  1.0 -0.0283845212
C  C165  1  0.60233000  0.63869000  0.64691000  1.0 0.0597219051
C  C166  1  0.61131000  0.85309000  0.85233000  1.0 0.0597219051
C  C167  1  0.14767000  0.61131000  0.14691000  1.0 0.0597219051
C  C168  1  0.11131000  0.89691000  0.89767000  1.0 0.0110511389
C  C169  1  0.85233000  0.60309000  0.13869000  1.0 0.0399708086
C  C170  1  0.89767000  0.64691000  0.13869000  1.0 0.070144019
C  C171  1  0.89767000  0.60309000  0.61131000  1.0 0.0597219051
C  C172  1  0.36131000  0.35233000  0.39691000  1.0 0.0297531631
C  C173  1  0.10309000  0.86131000  0.64767000  1.0 0.0597219051
C  C174  1  0.38869000  0.89767000  0.39691000  1.0 0.0597219051
C  C175  1  0.64691000  0.86131000  0.10233000  1.0 0.070144019
C  C176  1  0.64691000  0.38869000  0.64767000  1.0 0.0597219051
C  C177  1  0.38869000  0.35233000  0.35309000  1.0 0.0597219051
C  C178  1  0.39691000  0.64767000  0.86131000  1.0 0.0212388158
C  C179  1  0.85309000  0.60233000  0.36131000  1.0 0.0597219051
C  C180  1  0.85309000  0.64767000  0.88869000  1.0 0.0110511389
C  C181  1  0.14767000  0.13869000  0.10309000  1.0 0.0297531631
C  C182  1  0.13869000  0.39691000  0.35233000  1.0 0.0212388158
C  C183  1  0.60233000  0.11131000  0.10309000  1.0 0.0597219051
C  C184  1  0.60233000  0.13869000  0.14691000  1.0 -0.0283845212
C  C185  1  0.61131000  0.85309000  0.35233000  1.0 0.0499230938
C  C186  1  0.14767000  0.11131000  0.14691000  1.0 0.0597219051
C  C187  1  0.11131000  0.39691000  0.39767000  1.0 0.0297531631
C  C188  1  0.35233000  0.10309000  0.13869000  1.0 0.0597219051
C  C189  1  0.35233000  0.64691000  0.61131000  1.0 0.0597219051
C  C190  1  0.86131000  0.85233000  0.39691000  1.0 0.0399708086
C  C191  1  0.60309000  0.36131000  0.64767000  1.0 0.0297531631
C  C192  1  0.86131000  0.89767000  0.35309000  1.0 0.070144019
C  C193  1  0.60309000  0.38869000  0.10233000  1.0 0.0597219051
C  C194  1  0.89691000  0.14767000  0.86131000  1.0 0.0297531631
C  C195  1  0.85309000  0.14767000  0.88869000  1.0 0.0597219051
C  C196  1  0.89691000  0.60233000  0.88869000  1.0 0.0597219051
C  C197  1  0.64767000  0.63869000  0.10309000  1.0 0.0110511389
C  C198  1  0.63869000  0.89691000  0.35233000  1.0 0.0110511389
C  C199  1  0.63869000  0.85309000  0.39767000  1.0 0.0597219051
C  C200  1  0.60233000  0.63869000  0.14691000  1.0 0.0597219051
C  C201  1  0.11131000  0.85309000  0.35233000  1.0 0.0110511389
C  C202  1  0.64767000  0.61131000  0.14691000  1.0 0.0499230938
C  C203  1  0.11131000  0.89691000  0.39767000  1.0 0.0597219051
C  C204  1  0.35233000  0.60309000  0.63869000  1.0 0.0297531631
C  C205  1  0.86131000  0.35233000  0.89691000  1.0 0.0597219051
C  C206  1  0.60309000  0.86131000  0.14767000  1.0 0.0399708086
C  C207  1  0.89691000  0.64767000  0.36131000  1.0 0.0110511389
C  C208  1  0.85309000  0.64767000  0.38869000  1.0 0.0499230938
C  C209  1  0.64767000  0.13869000  0.60309000  1.0 0.0013617803
C  C210  1  0.63869000  0.39691000  0.85233000  1.0 0.0597219051
C  C211  1  0.60233000  0.13869000  0.64691000  1.0 0.0597219051
C  C212  1  0.11131000  0.85309000  0.85233000  1.0 0.0499230938
C  C213  1  0.64767000  0.11131000  0.14691000  1.0 0.0110511389
C  C214  1  0.11131000  0.39691000  0.89767000  1.0 0.0597219051
C  C215  1  0.22744000  0.92115000  0.29060000  1.0 -0.1212670469
C  C216  1  0.52256000  0.82885000  0.29060000  1.0 -0.0703996179
C  C217  1  0.22744000  0.82885000  0.95940000  1.0 -0.1212670469
C  C218  1  0.52256000  0.92115000  0.95940000  1.0 -0.1212670469
C  C219  1  0.70940000  0.22744000  0.07885000  1.0 -0.1212670469
C  C220  1  0.92115000  0.70940000  0.77256000  1.0 -0.1212670469
C  C221  1  0.04060000  0.52256000  0.07885000  1.0 -0.1299130984
C  C222  1  0.82885000  0.70940000  0.47744000  1.0 -0.0703996179
C  C223  1  0.70940000  0.52256000  0.17115000  1.0 -0.0703996179
C  C224  1  0.82885000  0.04060000  0.77256000  1.0 -0.1212670469
C  C225  1  0.04060000  0.22744000  0.17115000  1.0 -0.1212670469
C  C226  1  0.92115000  0.04060000  0.47744000  1.0 -0.1212670469
C  C227  1  0.57885000  0.77256000  0.70940000  1.0 -0.1212670469
C  C228  1  0.67115000  0.97744000  0.20940000  1.0 -0.1299130984
C  C229  1  0.67115000  0.77256000  0.04060000  1.0 -0.0811988302
C  C230  1  0.57885000  0.97744000  0.54060000  1.0 -0.1299130984
C  C231  1  0.77256000  0.29060000  0.42115000  1.0 -0.1402187775
C  C232  1  0.79060000  0.07885000  0.22744000  1.0 -0.1490047755
C  C233  1  0.97744000  0.45940000  0.42115000  1.0 -0.1299130984
C  C234  1  0.79060000  0.67115000  0.02256000  1.0 -0.1299130984
C  C235  1  0.97744000  0.29060000  0.82885000  1.0 -0.1402187775
C  C236  1  0.95940000  0.67115000  0.22744000  1.0 -0.0811988302
C  C237  1  0.77256000  0.95940000  0.32885000  1.0 -0.0811988302
C  C238  1  0.45940000  0.07885000  0.52256000  1.0 -0.1490047755
C  C239  1  0.22744000  0.42115000  0.79060000  1.0 -0.1402187775
C  C240  1  0.52256000  0.32885000  0.79060000  1.0 -0.1402187775
C  C241  1  0.22744000  0.32885000  0.45940000  1.0 -0.1212670469
C  C242  1  0.52256000  0.42115000  0.45940000  1.0 -0.1402187775
C  C243  1  0.70940000  0.72744000  0.57885000  1.0 -0.1402187775
C  C244  1  0.92115000  0.20940000  0.27256000  1.0 -0.1402187775
C  C245  1  0.04060000  0.02256000  0.57885000  1.0 -0.1490047755
C  C246  1  0.82885000  0.20940000  0.97744000  1.0 -0.0901758538
C  C247  1  0.70940000  0.02256000  0.67115000  1.0 -0.1402187775
C  C248  1  0.82885000  0.54060000  0.27256000  1.0 -0.0811988302
C  C249  1  0.04060000  0.72744000  0.67115000  1.0 -0.1299130984
C  C250  1  0.92115000  0.54060000  0.97744000  1.0 -0.0811988302
C  C251  1  0.57885000  0.27256000  0.20940000  1.0 -0.1212670469
C  C252  1  0.67115000  0.47744000  0.70940000  1.0 -0.0901758538
C  C253  1  0.67115000  0.27256000  0.54060000  1.0 -0.1212670469
C  C254  1  0.57885000  0.47744000  0.04060000  1.0 -0.0901758538
C  C255  1  0.77256000  0.79060000  0.92115000  1.0 -0.1490047755
C  C256  1  0.79060000  0.57885000  0.72744000  1.0 -0.1212670469
C  C257  1  0.97744000  0.95940000  0.92115000  1.0 -0.1212670469
C  C258  1  0.79060000  0.17115000  0.52256000  1.0 -0.1212670469
C  C259  1  0.97744000  0.79060000  0.32885000  1.0 -0.1299130984
C  C260  1  0.95940000  0.17115000  0.72744000  1.0 -0.1212670469
C  C261  1  0.77256000  0.45940000  0.82885000  1.0 -0.1299130984
C  C262  1  0.45940000  0.57885000  0.02256000  1.0 -0.1299130984
C  C263  1  0.72744000  0.92115000  0.79060000  1.0 -0.1402187775
C  C264  1  0.02256000  0.82885000  0.79060000  1.0 -0.0901758538
C  C265  1  0.72744000  0.82885000  0.45940000  1.0 -0.0811988302
C  C266  1  0.02256000  0.92115000  0.45940000  1.0 -0.0901758538
C  C267  1  0.20940000  0.22744000  0.57885000  1.0 -0.1402187775
C  C268  1  0.42115000  0.70940000  0.27256000  1.0 -0.1490047755
C  C269  1  0.54060000  0.52256000  0.57885000  1.0 -0.1402187775
C  C270  1  0.32885000  0.70940000  0.97744000  1.0 -0.1402187775
C  C271  1  0.20940000  0.52256000  0.67115000  1.0 -0.1402187775
C  C272  1  0.32885000  0.04060000  0.27256000  1.0 -0.1299130984
C  C273  1  0.54060000  0.22744000  0.67115000  1.0 -0.0811988302
C  C274  1  0.42115000  0.04060000  0.97744000  1.0 -0.1490047755
C  C275  1  0.07885000  0.77256000  0.20940000  1.0 -0.1490047755
C  C276  1  0.17115000  0.97744000  0.70940000  1.0 -0.1402187775
C  C277  1  0.17115000  0.77256000  0.54060000  1.0 -0.1299130984
C  C278  1  0.07885000  0.97744000  0.04060000  1.0 -0.1402187775
C  C279  1  0.27256000  0.29060000  0.92115000  1.0 -0.1402187775
C  C280  1  0.29060000  0.07885000  0.72744000  1.0 -0.1402187775
C  C281  1  0.47744000  0.45940000  0.92115000  1.0 -0.1490047755
C  C282  1  0.29060000  0.67115000  0.52256000  1.0 -0.0901758538
C  C283  1  0.47744000  0.29060000  0.32885000  1.0 -0.0901758538
C  C284  1  0.45940000  0.67115000  0.72744000  1.0 -0.1212670469
C  C285  1  0.27256000  0.95940000  0.82885000  1.0 -0.1212670469
C  C286  1  0.95940000  0.07885000  0.02256000  1.0 -0.1402187775
C  C287  1  0.72744000  0.42115000  0.29060000  1.0 -0.1490047755
C  C288  1  0.02256000  0.32885000  0.29060000  1.0 -0.1402187775
C  C289  1  0.72744000  0.32885000  0.95940000  1.0 -0.1299130984
C  C290  1  0.02256000  0.42115000  0.95940000  1.0 -0.0901758538
C  C291  1  0.20940000  0.72744000  0.07885000  1.0 -0.1402187775
C  C292  1  0.42115000  0.20940000  0.77256000  1.0 -0.1402187775
C  C293  1  0.54060000  0.02256000  0.07885000  1.0 -0.0901758538
C  C294  1  0.32885000  0.20940000  0.47744000  1.0 -0.1402187775
C  C295  1  0.20940000  0.02256000  0.17115000  1.0 -0.0901758538
C  C296  1  0.32885000  0.54060000  0.77256000  1.0 -0.1212670469
C  C297  1  0.54060000  0.72744000  0.17115000  1.0 -0.0811988302
C  C298  1  0.42115000  0.54060000  0.47744000  1.0 -0.1402187775
C  C299  1  0.07885000  0.27256000  0.70940000  1.0 -0.1402187775
C  C300  1  0.17115000  0.47744000  0.20940000  1.0 -0.1212670469
C  C301  1  0.17115000  0.27256000  0.04060000  1.0 -0.1212670469
C  C302  1  0.07885000  0.47744000  0.54060000  1.0 -0.1490047755
C  C303  1  0.27256000  0.79060000  0.42115000  1.0 -0.1212670469
C  C304  1  0.29060000  0.57885000  0.22744000  1.0 -0.1402187775
C  C305  1  0.47744000  0.95940000  0.42115000  1.0 -0.0901758538
C  C306  1  0.29060000  0.17115000  0.02256000  1.0 -0.1402187775
C  C307  1  0.47744000  0.79060000  0.82885000  1.0 -0.1212670469
C  C308  1  0.45940000  0.17115000  0.22744000  1.0 -0.1299130984
C  C309  1  0.27256000  0.45940000  0.32885000  1.0 -0.1212670469
C  C310  1  0.95940000  0.57885000  0.52256000  1.0 -0.0901758538
C  C311  1  0.77256000  0.07885000  0.70940000  1.0 -0.1212670469
C  C312  1  0.97744000  0.67115000  0.70940000  1.0 -0.1299130984
C  C313  1  0.77256000  0.67115000  0.54060000  1.0 -0.1299130984
C  C314  1  0.97744000  0.07885000  0.54060000  1.0 -0.1299130984
C  C315  1  0.29060000  0.77256000  0.92115000  1.0 -0.1212670469
C  C316  1  0.07885000  0.29060000  0.22744000  1.0 -0.1212670469
C  C317  1  0.45940000  0.97744000  0.92115000  1.0 -0.1299130984
C  C318  1  0.67115000  0.29060000  0.02256000  1.0 -0.1299130984
C  C319  1  0.29060000  0.97744000  0.32885000  1.0 -0.1299130984
C  C320  1  0.67115000  0.45940000  0.22744000  1.0 -0.1402187775
C  C321  1  0.45940000  0.77256000  0.32885000  1.0 -0.1402187775
C  C322  1  0.07885000  0.45940000  0.02256000  1.0 -0.179768593
C  C323  1  0.42115000  0.22744000  0.29060000  1.0 -0.1603199685
C  C324  1  0.82885000  0.52256000  0.79060000  1.0 -0.1299130984
C  C325  1  0.82885000  0.22744000  0.45940000  1.0 -0.1212670469
C  C326  1  0.42115000  0.52256000  0.95940000  1.0 -0.1299130984
C  C327  1  0.22744000  0.70940000  0.57885000  1.0 -0.1603199685
C  C328  1  0.20940000  0.92115000  0.77256000  1.0 -0.1212670469
C  C329  1  0.52256000  0.04060000  0.57885000  1.0 -0.1299130984
C  C330  1  0.20940000  0.82885000  0.47744000  1.0 -0.1299130984
C  C331  1  0.52256000  0.70940000  0.67115000  1.0 -0.1212670469
C  C332  1  0.54060000  0.82885000  0.77256000  1.0 -0.1212670469
C  C333  1  0.22744000  0.54060000  0.17115000  1.0 -0.1212670469
C  C334  1  0.04060000  0.92115000  0.97744000  1.0 -0.1212670469
C  C335  1  0.77256000  0.57885000  0.20940000  1.0 -0.179768593
C  C336  1  0.97744000  0.67115000  0.20940000  1.0 -0.0901758538
C  C337  1  0.97744000  0.57885000  0.54060000  1.0 -0.0901758538
C  C338  1  0.29060000  0.27256000  0.42115000  1.0 -0.1212670469
C  C339  1  0.07885000  0.79060000  0.72744000  1.0 -0.1603199685
C  C340  1  0.45940000  0.97744000  0.42115000  1.0 -0.0901758538
C  C341  1  0.67115000  0.79060000  0.02256000  1.0 -0.0901758538
C  C342  1  0.67115000  0.45940000  0.72744000  1.0 -0.0811988302
C  C343  1  0.45940000  0.27256000  0.32885000  1.0 -0.0811988302
C  C344  1  0.42115000  0.72744000  0.79060000  1.0 -0.1212670469
C  C345  1  0.82885000  0.52256000  0.29060000  1.0 -0.0811988302
C  C346  1  0.82885000  0.72744000  0.95940000  1.0 -0.1299130984
C  C347  1  0.22744000  0.20940000  0.07885000  1.0 -0.1212670469
C  C348  1  0.20940000  0.42115000  0.27256000  1.0 -0.1212670469
C  C349  1  0.52256000  0.04060000  0.07885000  1.0 -0.0901758538
C  C350  1  0.52256000  0.20940000  0.17115000  1.0 -0.1299130984
C  C351  1  0.54060000  0.82885000  0.27256000  1.0 -0.0703996179
C  C352  1  0.22744000  0.04060000  0.17115000  1.0 -0.0811988302
C  C353  1  0.04060000  0.42115000  0.47744000  1.0 -0.1299130984
C  C354  1  0.27256000  0.07885000  0.20940000  1.0 -0.1603199685
C  C355  1  0.27256000  0.67115000  0.54060000  1.0 -0.0811988302
C  C356  1  0.79060000  0.77256000  0.42115000  1.0 -0.179768593
C  C357  1  0.57885000  0.29060000  0.72744000  1.0 -0.1299130984
C  C358  1  0.79060000  0.97744000  0.32885000  1.0 -0.0901758538
C  C359  1  0.57885000  0.45940000  0.02256000  1.0 -0.0901758538
C  C360  1  0.92115000  0.22744000  0.79060000  1.0 -0.1212670469
C  C361  1  0.82885000  0.22744000  0.95940000  1.0 -0.0811988302
C  C362  1  0.92115000  0.52256000  0.95940000  1.0 -0.0811988302
C  C363  1  0.72744000  0.70940000  0.07885000  1.0 -0.1299130984
C  C364  1  0.70940000  0.92115000  0.27256000  1.0 -0.1299130984
C  C365  1  0.70940000  0.82885000  0.47744000  1.0 -0.0811988302
C  C366  1  0.52256000  0.70940000  0.17115000  1.0 -0.0811988302
C  C367  1  0.04060000  0.82885000  0.27256000  1.0 -0.1299130984
C  C368  1  0.72744000  0.54060000  0.17115000  1.0 -0.0703996179
C  C369  1  0.04060000  0.92115000  0.47744000  1.0 -0.0901758538
C  C370  1  0.27256000  0.57885000  0.70940000  1.0 -0.1212670469
C  C371  1  0.79060000  0.27256000  0.92115000  1.0 -0.1603199685
C  C372  1  0.57885000  0.79060000  0.22744000  1.0 -0.179768593
C  C373  1  0.92115000  0.72744000  0.29060000  1.0 -0.1299130984
C  C374  1  0.82885000  0.72744000  0.45940000  1.0 -0.0703996179
C  C375  1  0.72744000  0.20940000  0.57885000  1.0 -0.1212670469
C  C376  1  0.70940000  0.42115000  0.77256000  1.0 -0.1603199685
C  C377  1  0.52256000  0.20940000  0.67115000  1.0 -0.0811988302
C  C378  1  0.04060000  0.82885000  0.77256000  1.0 -0.0811988302
C  C379  1  0.72744000  0.04060000  0.17115000  1.0 -0.1299130984
C  C380  1  0.04060000  0.42115000  0.97744000  1.0 -0.0811988302
C  C381  1  0.17352000  0.88992000  0.34539000  1.0 -0.1899800456
C  C382  1  0.57648000  0.86008000  0.34539000  1.0 -0.0703996179
C  C383  1  0.17352000  0.86008000  0.90461000  1.0 -0.179768593
C  C384  1  0.57648000  0.88992000  0.90461000  1.0 -0.1899800456
C  C385  1  0.65461000  0.17352000  0.11008000  1.0 -0.1899800456
C  C386  1  0.88992000  0.65461000  0.82648000  1.0 -0.1899800456
C  C387  1  0.09539000  0.57648000  0.11008000  1.0 -0.1899800456
C  C388  1  0.86008000  0.65461000  0.42352000  1.0 -0.0703996179
C  C389  1  0.65461000  0.57648000  0.13992000  1.0 -0.0703996179
C  C390  1  0.86008000  0.09539000  0.82648000  1.0 -0.1701050413
C  C391  1  0.09539000  0.17352000  0.13992000  1.0 -0.179768593
C  C392  1  0.88992000  0.09539000  0.42352000  1.0 -0.1899800456
C  C393  1  0.61008000  0.82648000  0.65461000  1.0 -0.1899800456
C  C394  1  0.63992000  0.92352000  0.15461000  1.0 -0.1899800456
C  C395  1  0.63992000  0.82648000  0.09539000  1.0 -0.0901758538
C  C396  1  0.61008000  0.92352000  0.59539000  1.0 -0.1899800456
C  C397  1  0.82648000  0.34539000  0.38992000  1.0 -0.1899800456
C  C398  1  0.84539000  0.11008000  0.17352000  1.0 -0.1992037181
C  C399  1  0.92352000  0.40461000  0.38992000  1.0 -0.1899800456
C  C400  1  0.84539000  0.63992000  0.07648000  1.0 -0.1899800456
C  C401  1  0.92352000  0.34539000  0.86008000  1.0 -0.1899800456
C  C402  1  0.90461000  0.63992000  0.17352000  1.0 -0.0901758538
C  C403  1  0.82648000  0.90461000  0.36008000  1.0 -0.0901758538
C  C404  1  0.40461000  0.11008000  0.57648000  1.0 -0.1992037181
C  C405  1  0.17352000  0.38992000  0.84539000  1.0 -0.179768593
C  C406  1  0.57648000  0.36008000  0.84539000  1.0 -0.1899800456
C  C407  1  0.17352000  0.36008000  0.40461000  1.0 -0.1899800456
C  C408  1  0.57648000  0.38992000  0.40461000  1.0 -0.1899800456
C  C409  1  0.65461000  0.67352000  0.61008000  1.0 -0.1899800456
C  C410  1  0.88992000  0.15461000  0.32648000  1.0 -0.1899800456
C  C411  1  0.09539000  0.07648000  0.61008000  1.0 -0.1992037181
C  C412  1  0.86008000  0.15461000  0.92352000  1.0 -0.0811988302
C  C413  1  0.65461000  0.07648000  0.63992000  1.0 -0.179768593
C  C414  1  0.86008000  0.59539000  0.32648000  1.0 -0.0811988302
C  C415  1  0.09539000  0.67352000  0.63992000  1.0 -0.1899800456
C  C416  1  0.88992000  0.59539000  0.92352000  1.0 -0.0811988302
C  C417  1  0.61008000  0.32648000  0.15461000  1.0 -0.1899800456
C  C418  1  0.63992000  0.42352000  0.65461000  1.0 -0.0811988302
C  C419  1  0.63992000  0.32648000  0.59539000  1.0 -0.179768593
C  C420  1  0.61008000  0.42352000  0.09539000  1.0 -0.0811988302
C  C421  1  0.82648000  0.84539000  0.88992000  1.0 -0.1992037181
C  C422  1  0.84539000  0.61008000  0.67352000  1.0 -0.1899800456
C  C423  1  0.92352000  0.90461000  0.88992000  1.0 -0.1899800456
C  C424  1  0.84539000  0.13992000  0.57648000  1.0 -0.1899800456
C  C425  1  0.92352000  0.84539000  0.36008000  1.0 -0.1899800456
C  C426  1  0.90461000  0.13992000  0.67352000  1.0 -0.1899800456
C  C427  1  0.82648000  0.40461000  0.86008000  1.0 -0.1899800456
C  C428  1  0.40461000  0.61008000  0.07648000  1.0 -0.1899800456
C  C429  1  0.67352000  0.88992000  0.84539000  1.0 -0.1899800456
C  C430  1  0.07648000  0.86008000  0.84539000  1.0 -0.0811988302
C  C431  1  0.67352000  0.86008000  0.40461000  1.0 -0.0811988302
C  C432  1  0.07648000  0.88992000  0.40461000  1.0 -0.0811988302
C  C433  1  0.15461000  0.17352000  0.61008000  1.0 -0.1899800456
C  C434  1  0.38992000  0.65461000  0.32648000  1.0 -0.1992037181
C  C435  1  0.59539000  0.57648000  0.61008000  1.0 -0.1899800456
C  C436  1  0.36008000  0.65461000  0.92352000  1.0 -0.1899800456
C  C437  1  0.15461000  0.57648000  0.63992000  1.0 -0.1899800456
C  C438  1  0.36008000  0.09539000  0.32648000  1.0 -0.1899800456
C  C439  1  0.59539000  0.17352000  0.63992000  1.0 -0.0811988302
C  C440  1  0.38992000  0.09539000  0.92352000  1.0 -0.1992037181
C  C441  1  0.11008000  0.82648000  0.15461000  1.0 -0.1992037181
C  C442  1  0.13992000  0.92352000  0.65461000  1.0 -0.1899800456
C  C443  1  0.13992000  0.82648000  0.59539000  1.0 -0.1899800456
C  C444  1  0.11008000  0.92352000  0.09539000  1.0 -0.1899800456
C  C445  1  0.32648000  0.34539000  0.88992000  1.0 -0.1899800456
C  C446  1  0.34539000  0.11008000  0.67352000  1.0 -0.1899800456
C  C447  1  0.42352000  0.40461000  0.88992000  1.0 -0.1992037181
C  C448  1  0.34539000  0.63992000  0.57648000  1.0 -0.0811988302
C  C449  1  0.42352000  0.34539000  0.36008000  1.0 -0.0811988302
C  C450  1  0.40461000  0.63992000  0.67352000  1.0 -0.1701050413
C  C451  1  0.32648000  0.90461000  0.86008000  1.0 -0.1899800456
C  C452  1  0.90461000  0.11008000  0.07648000  1.0 -0.1899800456
C  C453  1  0.67352000  0.38992000  0.34539000  1.0 -0.1992037181
C  C454  1  0.07648000  0.36008000  0.34539000  1.0 -0.1899800456
C  C455  1  0.67352000  0.36008000  0.90461000  1.0 -0.1899800456
C  C456  1  0.07648000  0.38992000  0.90461000  1.0 -0.0901758538
C  C457  1  0.15461000  0.67352000  0.11008000  1.0 -0.1899800456
C  C458  1  0.38992000  0.15461000  0.82648000  1.0 -0.1899800456
C  C459  1  0.59539000  0.07648000  0.11008000  1.0 -0.0811988302
C  C460  1  0.36008000  0.15461000  0.42352000  1.0 -0.1899800456
C  C461  1  0.15461000  0.07648000  0.13992000  1.0 -0.0811988302
C  C462  1  0.36008000  0.59539000  0.82648000  1.0 -0.1899800456
C  C463  1  0.59539000  0.67352000  0.13992000  1.0 -0.0811988302
C  C464  1  0.38992000  0.59539000  0.42352000  1.0 -0.1899800456
C  C465  1  0.11008000  0.32648000  0.65461000  1.0 -0.1899800456
C  C466  1  0.13992000  0.42352000  0.15461000  1.0 -0.1899800456
C  C467  1  0.13992000  0.32648000  0.09539000  1.0 -0.1899800456
C  C468  1  0.11008000  0.42352000  0.59539000  1.0 -0.1992037181
C  C469  1  0.32648000  0.84539000  0.38992000  1.0 -0.1899800456
C  C470  1  0.34539000  0.61008000  0.17352000  1.0 -0.1899800456
C  C471  1  0.42352000  0.90461000  0.38992000  1.0 -0.0811988302
C  C472  1  0.34539000  0.13992000  0.07648000  1.0 -0.1899800456
C  C473  1  0.42352000  0.84539000  0.86008000  1.0 -0.1899800456
C  C474  1  0.40461000  0.13992000  0.17352000  1.0 -0.1899800456
C  C475  1  0.32648000  0.40461000  0.36008000  1.0 -0.179768593
C  C476  1  0.90461000  0.61008000  0.57648000  1.0 -0.0811988302
C  C477  1  0.82648000  0.11008000  0.65461000  1.0 -0.1899800456
C  C478  1  0.92352000  0.63992000  0.65461000  1.0 -0.2110873864
C  C479  1  0.82648000  0.63992000  0.59539000  1.0 -0.1899800456
C  C480  1  0.92352000  0.11008000  0.59539000  1.0 -0.1899800456
C  C481  1  0.34539000  0.82648000  0.88992000  1.0 -0.1899800456
C  C482  1  0.11008000  0.34539000  0.17352000  1.0 -0.1899800456
C  C483  1  0.40461000  0.92352000  0.88992000  1.0 -0.1899800456
C  C484  1  0.63992000  0.34539000  0.07648000  1.0 -0.2110873864
C  C485  1  0.34539000  0.92352000  0.36008000  1.0 -0.2110873864
C  C486  1  0.63992000  0.40461000  0.17352000  1.0 -0.1899800456
C  C487  1  0.40461000  0.82648000  0.36008000  1.0 -0.1899800456
C  C488  1  0.11008000  0.40461000  0.07648000  1.0 -0.1899800456
C  C489  1  0.38992000  0.17352000  0.34539000  1.0 -0.1899800456
C  C490  1  0.86008000  0.57648000  0.84539000  1.0 -0.2110873864
C  C491  1  0.86008000  0.17352000  0.40461000  1.0 -0.1992037181
C  C492  1  0.38992000  0.57648000  0.90461000  1.0 -0.1899800456
C  C493  1  0.17352000  0.65461000  0.61008000  1.0 -0.1899800456
C  C494  1  0.15461000  0.88992000  0.82648000  1.0 -0.1992037181
C  C495  1  0.57648000  0.09539000  0.61008000  1.0 -0.1992037181
C  C496  1  0.15461000  0.86008000  0.42352000  1.0 -0.2110873864
C  C497  1  0.57648000  0.65461000  0.63992000  1.0 -0.1992037181
C  C498  1  0.59539000  0.86008000  0.82648000  1.0 -0.1992037181
C  C499  1  0.17352000  0.59539000  0.13992000  1.0 -0.1992037181
C  C500  1  0.09539000  0.88992000  0.92352000  1.0 -0.179768593
C  C501  1  0.82648000  0.61008000  0.15461000  1.0 -0.1899800456
C  C502  1  0.92352000  0.63992000  0.15461000  1.0 -0.0811988302
C  C503  1  0.92352000  0.61008000  0.59539000  1.0 -0.0901758538
C  C504  1  0.34539000  0.32648000  0.38992000  1.0 -0.220387441
C  C505  1  0.11008000  0.84539000  0.67352000  1.0 -0.1899800456
C  C506  1  0.40461000  0.92352000  0.38992000  1.0 -0.0901758538
C  C507  1  0.63992000  0.84539000  0.07648000  1.0 -0.0811988302
C  C508  1  0.63992000  0.40461000  0.67352000  1.0 -0.0901758538
C  C509  1  0.40461000  0.32648000  0.36008000  1.0 -0.0811988302
C  C510  1  0.38992000  0.67352000  0.84539000  1.0 -0.1899800456
C  C511  1  0.86008000  0.57648000  0.34539000  1.0 -0.0811988302
C  C512  1  0.86008000  0.67352000  0.90461000  1.0 -0.1899800456
C  C513  1  0.17352000  0.15461000  0.11008000  1.0 -0.220387441
C  C514  1  0.15461000  0.38992000  0.32648000  1.0 -0.1899800456
C  C515  1  0.57648000  0.09539000  0.11008000  1.0 -0.0811988302
C  C516  1  0.57648000  0.15461000  0.13992000  1.0 -0.2110873864
C  C517  1  0.59539000  0.86008000  0.32648000  1.0 -0.0811988302
C  C518  1  0.17352000  0.09539000  0.13992000  1.0 -0.0811988302
C  C519  1  0.09539000  0.38992000  0.42352000  1.0 -0.1899800456
C  C520  1  0.32648000  0.11008000  0.15461000  1.0 -0.1899800456
C  C521  1  0.32648000  0.63992000  0.59539000  1.0 -0.0811988302
C  C522  1  0.84539000  0.82648000  0.38992000  1.0 -0.1899800456
C  C523  1  0.61008000  0.34539000  0.67352000  1.0 -0.2110873864
C  C524  1  0.84539000  0.92352000  0.36008000  1.0 -0.0811988302
C  C525  1  0.61008000  0.40461000  0.07648000  1.0 -0.0811988302
C  C526  1  0.88992000  0.17352000  0.84539000  1.0 -0.220387441
C  C527  1  0.86008000  0.17352000  0.90461000  1.0 -0.0811988302
C  C528  1  0.88992000  0.57648000  0.90461000  1.0 -0.0901758538
C  C529  1  0.67352000  0.65461000  0.11008000  1.0 -0.2293106388
C  C530  1  0.65461000  0.88992000  0.32648000  1.0 -0.2293106388
C  C531  1  0.65461000  0.86008000  0.42352000  1.0 -0.0811988302
C  C532  1  0.57648000  0.65461000  0.13992000  1.0 -0.0811988302
C  C533  1  0.09539000  0.86008000  0.32648000  1.0 -0.1992037181
C  C534  1  0.67352000  0.59539000  0.13992000  1.0 -0.0811988302
C  C535  1  0.09539000  0.88992000  0.42352000  1.0 -0.0811988302
C  C536  1  0.32648000  0.61008000  0.65461000  1.0 -0.2110873864
C  C537  1  0.84539000  0.32648000  0.88992000  1.0 -0.1899800456
C  C538  1  0.61008000  0.84539000  0.17352000  1.0 -0.1899800456
C  C539  1  0.88992000  0.67352000  0.34539000  1.0 -0.2293106388
C  C540  1  0.86008000  0.67352000  0.40461000  1.0 -0.0811988302
C  C541  1  0.67352000  0.15461000  0.61008000  1.0 -0.1899800456
C  C542  1  0.65461000  0.38992000  0.82648000  1.0 -0.1899800456
C  C543  1  0.57648000  0.15461000  0.63992000  1.0 -0.0811988302
C  C544  1  0.09539000  0.86008000  0.82648000  1.0 -0.0811988302
C  C545  1  0.67352000  0.09539000  0.13992000  1.0 -0.1899800456
C  C546  1  0.09539000  0.38992000  0.92352000  1.0 -0.0901758538
C  C547  1  0.15659000  0.95027000  0.35445000  1.0 -0.1603199685
C  C548  1  0.59341000  0.79973000  0.35445000  1.0 -0.0204810817
C  C549  1  0.15659000  0.79973000  0.89555000  1.0 -0.1490047755
C  C550  1  0.59341000  0.95027000  0.89555000  1.0 -0.1402187775
C  C551  1  0.64555000  0.15659000  0.04973000  1.0 -0.1603199685
C  C552  1  0.95027000  0.64555000  0.84341000  1.0 -0.1603199685
C  C553  1  0.10445000  0.59341000  0.04973000  1.0 -0.1402187775
C  C554  1  0.79973000  0.64555000  0.40659000  1.0 -0.0204810817
C  C555  1  0.64555000  0.59341000  0.20027000  1.0 -0.0204810817
C  C556  1  0.79973000  0.10445000  0.84341000  1.0 -0.1603199685
C  C557  1  0.10445000  0.15659000  0.20027000  1.0 -0.1603199685
C  C558  1  0.95027000  0.10445000  0.40659000  1.0 -0.1402187775
C  C559  1  0.54973000  0.84341000  0.64555000  1.0 -0.1299130984
C  C560  1  0.70027000  0.90659000  0.14555000  1.0 -0.1603199685
C  C561  1  0.70027000  0.84341000  0.10445000  1.0 -0.0097666036
C  C562  1  0.54973000  0.90659000  0.60445000  1.0 -0.1402187775
C  C563  1  0.84341000  0.35445000  0.45027000  1.0 -0.1402187775
C  C564  1  0.85445000  0.04973000  0.15659000  1.0 -0.1402187775
C  C565  1  0.90659000  0.39555000  0.45027000  1.0 -0.1402187775
C  C566  1  0.85445000  0.70027000  0.09341000  1.0 -0.1603199685
C  C567  1  0.90659000  0.35445000  0.79973000  1.0 -0.1402187775
C  C568  1  0.89555000  0.70027000  0.15659000  1.0 -0.0097666036
C  C569  1  0.84341000  0.89555000  0.29973000  1.0 -0.0097666036
C  C570  1  0.39555000  0.04973000  0.59341000  1.0 -0.1402187775
C  C571  1  0.15659000  0.45027000  0.85445000  1.0 -0.1490047755
C  C572  1  0.59341000  0.29973000  0.85445000  1.0 -0.1402187775
C  C573  1  0.15659000  0.29973000  0.39555000  1.0 -0.1490047755
C  C574  1  0.59341000  0.45027000  0.39555000  1.0 -0.1402187775
C  C575  1  0.64555000  0.65659000  0.54973000  1.0 -0.1402187775
C  C576  1  0.95027000  0.14555000  0.34341000  1.0 -0.1402187775
C  C577  1  0.10445000  0.09341000  0.54973000  1.0 -0.1402187775
C  C578  1  0.79973000  0.14555000  0.90659000  1.0 0.0013617803
C  C579  1  0.64555000  0.09341000  0.70027000  1.0 -0.1603199685
C  C580  1  0.79973000  0.60445000  0.34341000  1.0 -0.0283845212
C  C581  1  0.10445000  0.65659000  0.70027000  1.0 -0.1402187775
C  C582  1  0.95027000  0.60445000  0.90659000  1.0 0.0013617803
C  C583  1  0.54973000  0.34341000  0.14555000  1.0 -0.1603199685
C  C584  1  0.70027000  0.40659000  0.64555000  1.0 0.0013617803
C  C585  1  0.70027000  0.34341000  0.60445000  1.0 -0.1490047755
C  C586  1  0.54973000  0.40659000  0.10445000  1.0 0.0013617803
C  C587  1  0.84341000  0.85445000  0.95027000  1.0 -0.1402187775
C  C588  1  0.85445000  0.54973000  0.65659000  1.0 -0.1603199685
C  C589  1  0.90659000  0.89555000  0.95027000  1.0 -0.1402187775
C  C590  1  0.85445000  0.20027000  0.59341000  1.0 -0.1402187775
C  C591  1  0.90659000  0.85445000  0.29973000  1.0 -0.1603199685
C  C592  1  0.89555000  0.20027000  0.65659000  1.0 -0.1490047755
C  C593  1  0.84341000  0.39555000  0.79973000  1.0 -0.1402187775
C  C594  1  0.39555000  0.54973000  0.09341000  1.0 -0.1402187775
C  C595  1  0.65659000  0.95027000  0.85445000  1.0 -0.1402187775
C  C596  1  0.09341000  0.79973000  0.85445000  1.0 0.0110511389
C  C597  1  0.65659000  0.79973000  0.39555000  1.0 -0.0283845212
C  C598  1  0.09341000  0.95027000  0.39555000  1.0 0.0013617803
C  C599  1  0.14555000  0.15659000  0.54973000  1.0 -0.1402187775
C  C600  1  0.45027000  0.64555000  0.34341000  1.0 -0.1402187775
C  C601  1  0.60445000  0.59341000  0.54973000  1.0 -0.1490047755
C  C602  1  0.29973000  0.64555000  0.90659000  1.0 -0.1490047755
C  C603  1  0.14555000  0.59341000  0.70027000  1.0 -0.1402187775
C  C604  1  0.29973000  0.10445000  0.34341000  1.0 -0.1402187775
C  C605  1  0.60445000  0.15659000  0.70027000  1.0 0.0013617803
C  C606  1  0.45027000  0.10445000  0.90659000  1.0 -0.1402187775
C  C607  1  0.04973000  0.84341000  0.14555000  1.0 -0.1402187775
C  C608  1  0.20027000  0.90659000  0.64555000  1.0 -0.1402187775
C  C609  1  0.20027000  0.84341000  0.60445000  1.0 -0.1402187775
C  C610  1  0.04973000  0.90659000  0.10445000  1.0 -0.1402187775
C  C611  1  0.34341000  0.35445000  0.95027000  1.0 -0.1402187775
C  C612  1  0.35445000  0.04973000  0.65659000  1.0 -0.1402187775
C  C613  1  0.40659000  0.39555000  0.95027000  1.0 -0.1402187775
C  C614  1  0.35445000  0.70027000  0.59341000  1.0 0.0013617803
C  C615  1  0.40659000  0.35445000  0.29973000  1.0 0.0013617803
C  C616  1  0.39555000  0.70027000  0.65659000  1.0 -0.1402187775
C  C617  1  0.34341000  0.89555000  0.79973000  1.0 -0.1490047755
C  C618  1  0.89555000  0.04973000  0.09341000  1.0 -0.1402187775
C  C619  1  0.65659000  0.45027000  0.35445000  1.0 -0.1402187775
C  C620  1  0.09341000  0.29973000  0.35445000  1.0 -0.1490047755
C  C621  1  0.65659000  0.29973000  0.89555000  1.0 -0.1402187775
C  C622  1  0.09341000  0.45027000  0.89555000  1.0 -0.0097666036
C  C623  1  0.14555000  0.65659000  0.04973000  1.0 -0.1402187775
C  C624  1  0.45027000  0.14555000  0.84341000  1.0 -0.1402187775
C  C625  1  0.60445000  0.09341000  0.04973000  1.0 0.0013617803
C  C626  1  0.29973000  0.14555000  0.40659000  1.0 -0.1402187775
C  C627  1  0.14555000  0.09341000  0.20027000  1.0 0.0013617803
C  C628  1  0.29973000  0.60445000  0.84341000  1.0 -0.1490047755
C  C629  1  0.60445000  0.65659000  0.20027000  1.0 -0.0283845212
C  C630  1  0.45027000  0.60445000  0.40659000  1.0 -0.1402187775
C  C631  1  0.04973000  0.34341000  0.64555000  1.0 -0.1402187775
C  C632  1  0.20027000  0.40659000  0.14555000  1.0 -0.1402187775
C  C633  1  0.20027000  0.34341000  0.10445000  1.0 -0.1402187775
C  C634  1  0.04973000  0.40659000  0.60445000  1.0 -0.1402187775
C  C635  1  0.34341000  0.85445000  0.45027000  1.0 -0.1603199685
C  C636  1  0.35445000  0.54973000  0.15659000  1.0 -0.1402187775
C  C637  1  0.40659000  0.89555000  0.45027000  1.0 0.0013617803
C  C638  1  0.35445000  0.20027000  0.09341000  1.0 -0.1402187775
C  C639  1  0.40659000  0.85445000  0.79973000  1.0 -0.1402187775
C  C640  1  0.39555000  0.20027000  0.15659000  1.0 -0.1402187775
C  C641  1  0.34341000  0.39555000  0.29973000  1.0 -0.1490047755
C  C642  1  0.89555000  0.54973000  0.59341000  1.0 0.0013617803
C  C643  1  0.84341000  0.04973000  0.64555000  1.0 -0.1402187775
C  C644  1  0.90659000  0.70027000  0.64555000  1.0 -0.1402187775
C  C645  1  0.84341000  0.70027000  0.60445000  1.0 -0.1490047755
C  C646  1  0.90659000  0.04973000  0.60445000  1.0 -0.1490047755
C  C647  1  0.35445000  0.84341000  0.95027000  1.0 -0.1402187775
C  C648  1  0.04973000  0.35445000  0.15659000  1.0 -0.1402187775
C  C649  1  0.39555000  0.90659000  0.95027000  1.0 -0.1490047755
C  C650  1  0.70027000  0.35445000  0.09341000  1.0 -0.1402187775
C  C651  1  0.35445000  0.90659000  0.29973000  1.0 -0.1402187775
C  C652  1  0.70027000  0.39555000  0.15659000  1.0 -0.1490047755
C  C653  1  0.39555000  0.84341000  0.29973000  1.0 -0.1490047755
C  C654  1  0.04973000  0.39555000  0.09341000  1.0 -0.1402187775
C  C655  1  0.45027000  0.15659000  0.35445000  1.0 -0.1212670469
C  C656  1  0.79973000  0.59341000  0.85445000  1.0 -0.1490047755
C  C657  1  0.79973000  0.15659000  0.39555000  1.0 -0.1212670469
C  C658  1  0.45027000  0.59341000  0.89555000  1.0 -0.1490047755
C  C659  1  0.15659000  0.64555000  0.54973000  1.0 -0.1212670469
C  C660  1  0.14555000  0.95027000  0.84341000  1.0 -0.1402187775
C  C661  1  0.59341000  0.10445000  0.54973000  1.0 -0.1490047755
C  C662  1  0.14555000  0.79973000  0.40659000  1.0 -0.1490047755
C  C663  1  0.59341000  0.64555000  0.70027000  1.0 -0.1212670469
C  C664  1  0.60445000  0.79973000  0.84341000  1.0 -0.1212670469
C  C665  1  0.15659000  0.60445000  0.20027000  1.0 -0.1212670469
C  C666  1  0.10445000  0.95027000  0.90659000  1.0 -0.1402187775
C  C667  1  0.84341000  0.54973000  0.14555000  1.0 -0.099272321
C  C668  1  0.90659000  0.70027000  0.14555000  1.0 0.0013617803
C  C669  1  0.90659000  0.54973000  0.60445000  1.0 -0.0097666036
C  C670  1  0.35445000  0.34341000  0.45027000  1.0 -0.099272321
C  C671  1  0.04973000  0.85445000  0.65659000  1.0 -0.1212670469
C  C672  1  0.39555000  0.90659000  0.45027000  1.0 -0.0097666036
C  C673  1  0.70027000  0.85445000  0.09341000  1.0 0.0013617803
C  C674  1  0.70027000  0.39555000  0.65659000  1.0 -0.0097666036
C  C675  1  0.39555000  0.34341000  0.29973000  1.0 -0.0097666036
C  C676  1  0.45027000  0.65659000  0.85445000  1.0 -0.1402187775
C  C677  1  0.79973000  0.59341000  0.35445000  1.0 -0.0204810817
C  C678  1  0.79973000  0.65659000  0.89555000  1.0 -0.1402187775
C  C679  1  0.15659000  0.14555000  0.04973000  1.0 -0.099272321
C  C680  1  0.14555000  0.45027000  0.34341000  1.0 -0.1402187775
C  C681  1  0.59341000  0.10445000  0.04973000  1.0 -0.0097666036
C  C682  1  0.59341000  0.14555000  0.20027000  1.0 -0.1402187775
C  C683  1  0.60445000  0.79973000  0.34341000  1.0 -0.0204810817
C  C684  1  0.15659000  0.10445000  0.20027000  1.0 -0.0097666036
C  C685  1  0.10445000  0.45027000  0.40659000  1.0 -0.1490047755
C  C686  1  0.34341000  0.04973000  0.14555000  1.0 -0.1212670469
C  C687  1  0.34341000  0.70027000  0.60445000  1.0 -0.001588679
C  C688  1  0.85445000  0.84341000  0.45027000  1.0 -0.099272321
C  C689  1  0.54973000  0.35445000  0.65659000  1.0 -0.099272321
C  C690  1  0.85445000  0.90659000  0.29973000  1.0 0.0013617803
C  C691  1  0.54973000  0.39555000  0.09341000  1.0 -0.001588679
C  C692  1  0.95027000  0.15659000  0.85445000  1.0 -0.099272321
C  C693  1  0.79973000  0.15659000  0.89555000  1.0 -0.0097666036
C  C694  1  0.95027000  0.59341000  0.89555000  1.0 -0.0097666036
C  C695  1  0.65659000  0.64555000  0.04973000  1.0 -0.0901758538
C  C696  1  0.64555000  0.95027000  0.34341000  1.0 -0.0901758538
C  C697  1  0.64555000  0.79973000  0.40659000  1.0 -0.0204810817
C  C698  1  0.59341000  0.64555000  0.20027000  1.0 -0.0204810817
C  C699  1  0.10445000  0.79973000  0.34341000  1.0 -0.1402187775
C  C700  1  0.65659000  0.60445000  0.20027000  1.0 -0.0204810817
C  C701  1  0.10445000  0.95027000  0.40659000  1.0 -0.0097666036
C  C702  1  0.34341000  0.54973000  0.64555000  1.0 -0.099272321
C  C703  1  0.85445000  0.34341000  0.95027000  1.0 -0.1212670469
C  C704  1  0.54973000  0.85445000  0.15659000  1.0 -0.099272321
C  C705  1  0.95027000  0.65659000  0.35445000  1.0 -0.0901758538
C  C706  1  0.79973000  0.65659000  0.39555000  1.0 -0.0204810817
C  C707  1  0.65659000  0.14555000  0.54973000  1.0 -0.1402187775
C  C708  1  0.64555000  0.45027000  0.84341000  1.0 -0.1212670469
C  C709  1  0.59341000  0.14555000  0.70027000  1.0 0.0013617803
C  C710  1  0.10445000  0.79973000  0.84341000  1.0 0.0013617803
C  C711  1  0.65659000  0.10445000  0.20027000  1.0 -0.1402187775
C  C712  1  0.10445000  0.45027000  0.90659000  1.0 -0.0204810817
C  C713  1  0.21925000  0.90529000  0.31622000  1.0 0.0802769275
C  C714  1  0.53075000  0.84471000  0.31622000  1.0 -0.0703996179
C  C715  1  0.21925000  0.84471000  0.93378000  1.0 0.0802769275
C  C716  1  0.53075000  0.90529000  0.93378000  1.0 0.0802769275
C  C717  1  0.68378000  0.21925000  0.09471000  1.0 0.0802769275
C  C718  1  0.90529000  0.68378000  0.78075000  1.0 0.0802769275
C  C719  1  0.06622000  0.53075000  0.09471000  1.0 0.0802769275
C  C720  1  0.84471000  0.68378000  0.46925000  1.0 -0.0703996179
C  C721  1  0.68378000  0.53075000  0.15529000  1.0 -0.0703996179
C  C722  1  0.84471000  0.06622000  0.78075000  1.0 0.0802769275
C  C723  1  0.06622000  0.21925000  0.15529000  1.0 0.0802769275
C  C724  1  0.90529000  0.06622000  0.46925000  1.0 0.0802769275
C  C725  1  0.59471000  0.78075000  0.68378000  1.0 0.0802769275
C  C726  1  0.65529000  0.96925000  0.18378000  1.0 0.0802769275
C  C727  1  0.65529000  0.78075000  0.06622000  1.0 -0.0589387266
C  C728  1  0.59471000  0.96925000  0.56622000  1.0 0.0802769275
C  C729  1  0.78075000  0.31622000  0.40529000  1.0 0.0802769275
C  C730  1  0.81622000  0.09471000  0.21925000  1.0 0.0802769275
C  C731  1  0.96925000  0.43378000  0.40529000  1.0 0.0802769275
C  C732  1  0.81622000  0.65529000  0.03075000  1.0 0.0802769275
C  C733  1  0.96925000  0.31622000  0.84471000  1.0 0.070144019
C  C734  1  0.93378000  0.65529000  0.21925000  1.0 -0.0589387266
C  C735  1  0.78075000  0.93378000  0.34471000  1.0 -0.0589387266
C  C736  1  0.43378000  0.09471000  0.53075000  1.0 0.0802769275
C  C737  1  0.21925000  0.40529000  0.81622000  1.0 0.0802769275
C  C738  1  0.53075000  0.34471000  0.81622000  1.0 0.0802769275
C  C739  1  0.21925000  0.34471000  0.43378000  1.0 0.0802769275
C  C740  1  0.53075000  0.40529000  0.43378000  1.0 0.070144019
C  C741  1  0.68378000  0.71925000  0.59471000  1.0 0.0802769275
C  C742  1  0.90529000  0.18378000  0.28075000  1.0 0.070144019
C  C743  1  0.06622000  0.03075000  0.59471000  1.0 0.0802769275
C  C744  1  0.84471000  0.18378000  0.96925000  1.0 -0.0589387266
C  C745  1  0.68378000  0.03075000  0.65529000  1.0 0.0802769275
C  C746  1  0.84471000  0.56622000  0.28075000  1.0 -0.0502428352
C  C747  1  0.06622000  0.71925000  0.65529000  1.0 0.0802769275
C  C748  1  0.90529000  0.56622000  0.96925000  1.0 -0.0400785791
C  C749  1  0.59471000  0.28075000  0.18378000  1.0 0.0802769275
C  C750  1  0.65529000  0.46925000  0.68378000  1.0 -0.0589387266
C  C751  1  0.65529000  0.28075000  0.56622000  1.0 0.0802769275
C  C752  1  0.59471000  0.46925000  0.06622000  1.0 -0.0502428352
C  C753  1  0.78075000  0.81622000  0.90529000  1.0 0.0802769275
C  C754  1  0.81622000  0.59471000  0.71925000  1.0 0.0802769275
C  C755  1  0.96925000  0.93378000  0.90529000  1.0 0.070144019
C  C756  1  0.81622000  0.15529000  0.53075000  1.0 0.0802769275
C  C757  1  0.96925000  0.81622000  0.34471000  1.0 0.0802769275
C  C758  1  0.93378000  0.15529000  0.71925000  1.0 0.0802769275
C  C759  1  0.78075000  0.43378000  0.84471000  1.0 0.0802769275
C  C760  1  0.43378000  0.59471000  0.03075000  1.0 0.0802769275
C  C761  1  0.71925000  0.90529000  0.81622000  1.0 0.070144019
C  C762  1  0.03075000  0.84471000  0.81622000  1.0 -0.0703996179
C  C763  1  0.71925000  0.84471000  0.43378000  1.0 -0.0502428352
C  C764  1  0.03075000  0.90529000  0.43378000  1.0 -0.0502428352
C  C765  1  0.18378000  0.21925000  0.59471000  1.0 0.070144019
C  C766  1  0.40529000  0.68378000  0.28075000  1.0 0.0802769275
C  C767  1  0.56622000  0.53075000  0.59471000  1.0 0.070144019
C  C768  1  0.34471000  0.68378000  0.96925000  1.0 0.0802769275
C  C769  1  0.18378000  0.53075000  0.65529000  1.0 0.0802769275
C  C770  1  0.34471000  0.06622000  0.28075000  1.0 0.0802769275
C  C771  1  0.56622000  0.21925000  0.65529000  1.0 -0.0589387266
C  C772  1  0.40529000  0.06622000  0.96925000  1.0 0.0802769275
C  C773  1  0.09471000  0.78075000  0.18378000  1.0 0.0802769275
C  C774  1  0.15529000  0.96925000  0.68378000  1.0 0.0802769275
C  C775  1  0.15529000  0.78075000  0.56622000  1.0 0.0802769275
C  C776  1  0.09471000  0.96925000  0.06622000  1.0 0.070144019
C  C777  1  0.28075000  0.31622000  0.90529000  1.0 0.0802769275
C  C778  1  0.31622000  0.09471000  0.71925000  1.0 0.070144019
C  C779  1  0.46925000  0.43378000  0.90529000  1.0 0.0802769275
C  C780  1  0.31622000  0.65529000  0.53075000  1.0 -0.0589387266
C  C781  1  0.46925000  0.31622000  0.34471000  1.0 -0.0589387266
C  C782  1  0.43378000  0.65529000  0.71925000  1.0 0.0802769275
C  C783  1  0.28075000  0.93378000  0.84471000  1.0 0.0802769275
C  C784  1  0.93378000  0.09471000  0.03075000  1.0 0.070144019
C  C785  1  0.71925000  0.40529000  0.31622000  1.0 0.0802769275
C  C786  1  0.03075000  0.34471000  0.31622000  1.0 0.0802769275
C  C787  1  0.71925000  0.34471000  0.93378000  1.0 0.0802769275
C  C788  1  0.03075000  0.40529000  0.93378000  1.0 -0.0400785791
C  C789  1  0.18378000  0.71925000  0.09471000  1.0 0.070144019
C  C790  1  0.40529000  0.18378000  0.78075000  1.0 0.070144019
C  C791  1  0.56622000  0.03075000  0.09471000  1.0 -0.0502428352
C  C792  1  0.34471000  0.18378000  0.46925000  1.0 0.0802769275
C  C793  1  0.18378000  0.03075000  0.15529000  1.0 -0.0589387266
C  C794  1  0.34471000  0.56622000  0.78075000  1.0 0.0802769275
C  C795  1  0.56622000  0.71925000  0.15529000  1.0 -0.0502428352
C  C796  1  0.40529000  0.56622000  0.46925000  1.0 0.070144019
C  C797  1  0.09471000  0.28075000  0.68378000  1.0 0.070144019
C  C798  1  0.15529000  0.46925000  0.18378000  1.0 0.0802769275
C  C799  1  0.15529000  0.28075000  0.06622000  1.0 0.0802769275
C  C800  1  0.09471000  0.46925000  0.56622000  1.0 0.0802769275
C  C801  1  0.28075000  0.81622000  0.40529000  1.0 0.0802769275
C  C802  1  0.31622000  0.59471000  0.21925000  1.0 0.0802769275
C  C803  1  0.46925000  0.93378000  0.40529000  1.0 -0.0502428352
C  C804  1  0.31622000  0.15529000  0.03075000  1.0 0.0802769275
C  C805  1  0.46925000  0.81622000  0.84471000  1.0 0.0802769275
C  C806  1  0.43378000  0.15529000  0.21925000  1.0 0.0802769275
C  C807  1  0.28075000  0.43378000  0.34471000  1.0 0.0802769275
C  C808  1  0.93378000  0.59471000  0.53075000  1.0 -0.0502428352
C  C809  1  0.78075000  0.09471000  0.68378000  1.0 0.0802769275
C  C810  1  0.96925000  0.65529000  0.68378000  1.0 0.0802769275
C  C811  1  0.78075000  0.65529000  0.56622000  1.0 0.0802769275
C  C812  1  0.96925000  0.09471000  0.56622000  1.0 0.0802769275
C  C813  1  0.31622000  0.78075000  0.90529000  1.0 0.0802769275
C  C814  1  0.09471000  0.31622000  0.21925000  1.0 0.0802769275
C  C815  1  0.43378000  0.96925000  0.90529000  1.0 0.0802769275
C  C816  1  0.65529000  0.31622000  0.03075000  1.0 0.0802769275
C  C817  1  0.31622000  0.96925000  0.34471000  1.0 0.0802769275
C  C818  1  0.65529000  0.43378000  0.21925000  1.0 0.0802769275
C  C819  1  0.43378000  0.78075000  0.34471000  1.0 0.0802769275
C  C820  1  0.09471000  0.43378000  0.03075000  1.0 0.0881362836
C  C821  1  0.40529000  0.21925000  0.31622000  1.0 0.0980222923
C  C822  1  0.84471000  0.53075000  0.81622000  1.0 0.0802769275
C  C823  1  0.84471000  0.21925000  0.43378000  1.0 0.070144019
C  C824  1  0.40529000  0.53075000  0.93378000  1.0 0.0802769275
C  C825  1  0.21925000  0.68378000  0.59471000  1.0 0.0980222923
C  C826  1  0.18378000  0.90529000  0.78075000  1.0 0.0881362836
C  C827  1  0.53075000  0.06622000  0.59471000  1.0 0.0802769275
C  C828  1  0.18378000  0.84471000  0.46925000  1.0 0.0802769275
C  C829  1  0.53075000  0.68378000  0.65529000  1.0 0.070144019
C  C830  1  0.56622000  0.84471000  0.78075000  1.0 0.070144019
C  C831  1  0.21925000  0.56622000  0.15529000  1.0 0.070144019
C  C832  1  0.06622000  0.90529000  0.96925000  1.0 0.0802769275
C  C833  1  0.78075000  0.59471000  0.18378000  1.0 0.0980222923
C  C834  1  0.96925000  0.65529000  0.18378000  1.0 -0.0400785791
C  C835  1  0.96925000  0.59471000  0.56622000  1.0 -0.0589387266
C  C836  1  0.31622000  0.28075000  0.40529000  1.0 0.0881362836
C  C837  1  0.09471000  0.81622000  0.71925000  1.0 0.0881362836
C  C838  1  0.43378000  0.96925000  0.40529000  1.0 -0.0589387266
C  C839  1  0.65529000  0.81622000  0.03075000  1.0 -0.0400785791
C  C840  1  0.65529000  0.43378000  0.71925000  1.0 -0.0589387266
C  C841  1  0.43378000  0.28075000  0.34471000  1.0 -0.0589387266
C  C842  1  0.40529000  0.71925000  0.81622000  1.0 0.0802769275
C  C843  1  0.84471000  0.53075000  0.31622000  1.0 -0.0400785791
C  C844  1  0.84471000  0.71925000  0.93378000  1.0 0.0802769275
C  C845  1  0.21925000  0.18378000  0.09471000  1.0 0.0881362836
C  C846  1  0.18378000  0.40529000  0.28075000  1.0 0.0802769275
C  C847  1  0.53075000  0.06622000  0.09471000  1.0 -0.0589387266
C  C848  1  0.53075000  0.18378000  0.15529000  1.0 0.0802769275
C  C849  1  0.56622000  0.84471000  0.28075000  1.0 -0.0589387266
C  C850  1  0.21925000  0.06622000  0.15529000  1.0 -0.0589387266
C  C851  1  0.06622000  0.40529000  0.46925000  1.0 0.0802769275
C  C852  1  0.28075000  0.09471000  0.18378000  1.0 0.0980222923
C  C853  1  0.28075000  0.65529000  0.56622000  1.0 -0.0589387266
C  C854  1  0.81622000  0.78075000  0.40529000  1.0 0.0980222923
C  C855  1  0.59471000  0.31622000  0.71925000  1.0 0.0881362836
C  C856  1  0.81622000  0.96925000  0.34471000  1.0 -0.0400785791
C  C857  1  0.59471000  0.43378000  0.03075000  1.0 -0.0589387266
C  C858  1  0.90529000  0.21925000  0.81622000  1.0 0.0881362836
C  C859  1  0.84471000  0.21925000  0.93378000  1.0 -0.0589387266
C  C860  1  0.90529000  0.53075000  0.93378000  1.0 -0.0589387266
C  C861  1  0.71925000  0.68378000  0.09471000  1.0 0.0802769275
C  C862  1  0.68378000  0.90529000  0.28075000  1.0 0.0802769275
C  C863  1  0.68378000  0.84471000  0.46925000  1.0 -0.0400785791
C  C864  1  0.53075000  0.68378000  0.15529000  1.0 -0.0400785791
C  C865  1  0.06622000  0.84471000  0.28075000  1.0 0.0802769275
C  C866  1  0.71925000  0.56622000  0.15529000  1.0 -0.0589387266
C  C867  1  0.06622000  0.90529000  0.46925000  1.0 -0.0589387266
C  C868  1  0.28075000  0.59471000  0.68378000  1.0 0.0881362836
C  C869  1  0.81622000  0.28075000  0.90529000  1.0 0.0980222923
C  C870  1  0.59471000  0.81622000  0.21925000  1.0 0.0980222923
C  C871  1  0.90529000  0.71925000  0.31622000  1.0 0.0802769275
C  C872  1  0.84471000  0.71925000  0.43378000  1.0 -0.0589387266
C  C873  1  0.71925000  0.18378000  0.59471000  1.0 0.0802769275
C  C874  1  0.68378000  0.40529000  0.78075000  1.0 0.0980222923
C  C875  1  0.53075000  0.18378000  0.65529000  1.0 -0.0589387266
C  C876  1  0.06622000  0.84471000  0.78075000  1.0 -0.0589387266
C  C877  1  0.71925000  0.06622000  0.15529000  1.0 0.0802769275
C  C878  1  0.06622000  0.40529000  0.96925000  1.0 -0.0283845212
C  C879  1  0.25270000  0.91398000  0.27414000  1.0 -0.0283845212
C  C880  1  0.49730000  0.83602000  0.27414000  1.0 0.0297531631
C  C881  1  0.25270000  0.83602000  0.97586000  1.0 -0.0204810817
C  C882  1  0.49730000  0.91398000  0.97586000  1.0 -0.0204810817
C  C883  1  0.72586000  0.25270000  0.08602000  1.0 -0.0283845212
C  C884  1  0.91398000  0.72586000  0.74730000  1.0 -0.0283845212
C  C885  1  0.02414000  0.49730000  0.08602000  1.0 -0.0204810817
C  C886  1  0.83602000  0.72586000  0.50270000  1.0 0.0297531631
C  C887  1  0.72586000  0.49730000  0.16398000  1.0 0.0297531631
C  C888  1  0.83602000  0.02414000  0.74730000  1.0 -0.0204810817
C  C889  1  0.02414000  0.25270000  0.16398000  1.0 -0.0204810817
C  C890  1  0.91398000  0.02414000  0.50270000  1.0 -0.0204810817
C  C891  1  0.58602000  0.74730000  0.72586000  1.0 -0.0204810817
C  C892  1  0.66398000  0.00270000  0.22586000  1.0 -0.0204810817
C  C893  1  0.66398000  0.74730000  0.02414000  1.0 0.0399708086
C  C894  1  0.58602000  0.00270000  0.52414000  1.0 -0.0204810817
C  C895  1  0.74730000  0.27414000  0.41398000  1.0 -0.0204810817
C  C896  1  0.77414000  0.08602000  0.25270000  1.0 -0.0097666036
C  C897  1  0.00270000  0.47586000  0.41398000  1.0 -0.0204810817
C  C898  1  0.77414000  0.66398000  0.99730000  1.0 -0.0204810817
C  C899  1  0.00270000  0.27414000  0.83602000  1.0 -0.0204810817
C  C900  1  0.97586000  0.66398000  0.25270000  1.0 0.0399708086
C  C901  1  0.74730000  0.97586000  0.33602000  1.0 0.0399708086
C  C902  1  0.47586000  0.08602000  0.49730000  1.0 -0.0204810817
C  C903  1  0.25270000  0.41398000  0.77414000  1.0 -0.0283845212
C  C904  1  0.49730000  0.33602000  0.77414000  1.0 -0.0204810817
C  C905  1  0.25270000  0.33602000  0.47586000  1.0 -0.0283845212
C  C906  1  0.49730000  0.41398000  0.47586000  1.0 -0.0283845212
C  C907  1  0.72586000  0.75270000  0.58602000  1.0 -0.0204810817
C  C908  1  0.91398000  0.22586000  0.24730000  1.0 -0.0204810817
C  C909  1  0.02414000  0.99730000  0.58602000  1.0 -0.0204810817
C  C910  1  0.83602000  0.22586000  0.00270000  1.0 0.0399708086
C  C911  1  0.72586000  0.99730000  0.66398000  1.0 -0.0204810817
C  C912  1  0.83602000  0.52414000  0.24730000  1.0 0.0399708086
C  C913  1  0.02414000  0.75270000  0.66398000  1.0 -0.0204810817
C  C914  1  0.91398000  0.52414000  0.00270000  1.0 0.0399708086
C  C915  1  0.58602000  0.24730000  0.22586000  1.0 -0.0283845212
C  C916  1  0.66398000  0.50270000  0.72586000  1.0 0.0399708086
C  C917  1  0.66398000  0.24730000  0.52414000  1.0 -0.0204810817
C  C918  1  0.58602000  0.50270000  0.02414000  1.0 0.0399708086
C  C919  1  0.74730000  0.77414000  0.91398000  1.0 -0.0097666036
C  C920  1  0.77414000  0.58602000  0.75270000  1.0 -0.0283845212
C  C921  1  0.00270000  0.97586000  0.91398000  1.0 -0.0204810817
C  C922  1  0.77414000  0.16398000  0.49730000  1.0 -0.0204810817
C  C923  1  0.00270000  0.77414000  0.33602000  1.0 -0.0204810817
C  C924  1  0.97586000  0.16398000  0.75270000  1.0 -0.0283845212
C  C925  1  0.74730000  0.47586000  0.83602000  1.0 -0.0204810817
C  C926  1  0.47586000  0.58602000  0.99730000  1.0 -0.0204810817
C  C927  1  0.75270000  0.91398000  0.77414000  1.0 -0.0204810817
C  C928  1  0.99730000  0.83602000  0.77414000  1.0 0.0399708086
C  C929  1  0.75270000  0.83602000  0.47586000  1.0 0.0399708086
C  C930  1  0.99730000  0.91398000  0.47586000  1.0 0.0399708086
C  C931  1  0.22586000  0.25270000  0.58602000  1.0 -0.0283845212
C  C932  1  0.41398000  0.72586000  0.24730000  1.0 -0.0204810817
C  C933  1  0.52414000  0.49730000  0.58602000  1.0 -0.0283845212
C  C934  1  0.33602000  0.72586000  0.00270000  1.0 -0.0204810817
C  C935  1  0.22586000  0.49730000  0.66398000  1.0 -0.0204810817
C  C936  1  0.33602000  0.02414000  0.24730000  1.0 -0.0204810817
C  C937  1  0.52414000  0.25270000  0.66398000  1.0 0.0399708086
C  C938  1  0.41398000  0.02414000  0.00270000  1.0 -0.0204810817
C  C939  1  0.08602000  0.74730000  0.22586000  1.0 -0.0097666036
C  C940  1  0.16398000  0.00270000  0.72586000  1.0 -0.0204810817
C  C941  1  0.16398000  0.74730000  0.52414000  1.0 -0.0204810817
C  C942  1  0.08602000  0.00270000  0.02414000  1.0 -0.0204810817
C  C943  1  0.24730000  0.27414000  0.91398000  1.0 -0.0283845212
C  C944  1  0.27414000  0.08602000  0.75270000  1.0 -0.0204810817
C  C945  1  0.50270000  0.47586000  0.91398000  1.0 -0.0097666036
C  C946  1  0.27414000  0.66398000  0.49730000  1.0 0.0399708086
C  C947  1  0.50270000  0.27414000  0.33602000  1.0 0.0399708086
C  C948  1  0.47586000  0.66398000  0.75270000  1.0 -0.0097666036
C  C949  1  0.24730000  0.97586000  0.83602000  1.0 -0.0204810817
C  C950  1  0.97586000  0.08602000  0.99730000  1.0 -0.0204810817
C  C951  1  0.75270000  0.41398000  0.27414000  1.0 -0.0204810817
C  C952  1  0.99730000  0.33602000  0.27414000  1.0 -0.0204810817
C  C953  1  0.75270000  0.33602000  0.97586000  1.0 -0.0204810817
C  C954  1  0.99730000  0.41398000  0.97586000  1.0 0.0297531631
C  C955  1  0.22586000  0.75270000  0.08602000  1.0 -0.0283845212
C  C956  1  0.41398000  0.22586000  0.74730000  1.0 -0.0283845212
C  C957  1  0.52414000  0.99730000  0.08602000  1.0 0.0399708086
C  C958  1  0.33602000  0.22586000  0.50270000  1.0 -0.0204810817
C  C959  1  0.22586000  0.99730000  0.16398000  1.0 0.0399708086
C  C960  1  0.33602000  0.52414000  0.74730000  1.0 -0.0283845212
C  C961  1  0.52414000  0.75270000  0.16398000  1.0 0.0399708086
C  C962  1  0.41398000  0.52414000  0.50270000  1.0 -0.0283845212
C  C963  1  0.08602000  0.24730000  0.72586000  1.0 -0.0283845212
C  C964  1  0.16398000  0.50270000  0.22586000  1.0 -0.0204810817
C  C965  1  0.16398000  0.24730000  0.02414000  1.0 -0.0283845212
C  C966  1  0.08602000  0.50270000  0.52414000  1.0 -0.0204810817
C  C967  1  0.24730000  0.77414000  0.41398000  1.0 -0.0283845212
C  C968  1  0.27414000  0.58602000  0.25270000  1.0 -0.0204810817
C  C969  1  0.50270000  0.97586000  0.41398000  1.0 0.0499230938
C  C970  1  0.27414000  0.16398000  0.99730000  1.0 -0.0204810817
C  C971  1  0.50270000  0.77414000  0.83602000  1.0 -0.0204810817
C  C972  1  0.47586000  0.16398000  0.25270000  1.0 -0.0204810817
C  C973  1  0.24730000  0.47586000  0.33602000  1.0 -0.0204810817
C  C974  1  0.97586000  0.58602000  0.49730000  1.0 0.0499230938
C  C975  1  0.74730000  0.08602000  0.72586000  1.0 -0.0204810817
C  C976  1  0.00270000  0.66398000  0.72586000  1.0 -0.0204810817
C  C977  1  0.74730000  0.66398000  0.52414000  1.0 -0.0204810817
C  C978  1  0.00270000  0.08602000  0.52414000  1.0 -0.0283845212
C  C979  1  0.27414000  0.74730000  0.91398000  1.0 -0.0204810817
C  C980  1  0.08602000  0.27414000  0.25270000  1.0 -0.0204810817
C  C981  1  0.47586000  0.00270000  0.91398000  1.0 -0.0283845212
C  C982  1  0.66398000  0.27414000  0.99730000  1.0 -0.0204810817
C  C983  1  0.27414000  0.00270000  0.33602000  1.0 -0.0204810817
C  C984  1  0.66398000  0.47586000  0.25270000  1.0 -0.0204810817
C  C985  1  0.47586000  0.74730000  0.33602000  1.0 -0.0204810817
C  C986  1  0.08602000  0.47586000  0.99730000  1.0 -0.0283845212
C  C987  1  0.41398000  0.25270000  0.27414000  1.0 -0.0204810817
C  C988  1  0.83602000  0.49730000  0.77414000  1.0 -0.0204810817
C  C989  1  0.83602000  0.25270000  0.47586000  1.0 -0.0204810817
C  C990  1  0.41398000  0.49730000  0.97586000  1.0 -0.0283845212
C  C991  1  0.25270000  0.72586000  0.58602000  1.0 -0.0204810817
C  C992  1  0.22586000  0.91398000  0.74730000  1.0 -0.0204810817
C  C993  1  0.49730000  0.02414000  0.58602000  1.0 -0.0283845212
C  C994  1  0.22586000  0.83602000  0.50270000  1.0 -0.0204810817
C  C995  1  0.49730000  0.72586000  0.66398000  1.0 -0.0204810817
C  C996  1  0.52414000  0.83602000  0.74730000  1.0 -0.0204810817
C  C997  1  0.25270000  0.52414000  0.16398000  1.0 -0.0204810817
C  C998  1  0.02414000  0.91398000  0.00270000  1.0 -0.0204810817
C  C999  1  0.74730000  0.58602000  0.22586000  1.0 -0.0097666036
C  C1000  1  0.00270000  0.66398000  0.22586000  1.0 0.0297531631
C  C1001  1  0.00270000  0.58602000  0.52414000  1.0 0.0399708086
C  C1002  1  0.27414000  0.24730000  0.41398000  1.0 -0.0204810817
C  C1003  1  0.08602000  0.77414000  0.75270000  1.0 -0.0204810817
C  C1004  1  0.47586000  0.00270000  0.41398000  1.0 0.0399708086
C  C1005  1  0.66398000  0.77414000  0.99730000  1.0 0.0297531631
C  C1006  1  0.66398000  0.47586000  0.75270000  1.0 0.0399708086
C  C1007  1  0.47586000  0.24730000  0.33602000  1.0 0.0399708086
C  C1008  1  0.41398000  0.75270000  0.77414000  1.0 -0.0204810817
C  C1009  1  0.83602000  0.49730000  0.27414000  1.0 0.0297531631
C  C1010  1  0.83602000  0.75270000  0.97586000  1.0 -0.0204810817
C  C1011  1  0.25270000  0.22586000  0.08602000  1.0 -0.0204810817
C  C1012  1  0.22586000  0.41398000  0.24730000  1.0 -0.0204810817
C  C1013  1  0.49730000  0.02414000  0.08602000  1.0 0.0399708086
C  C1014  1  0.49730000  0.22586000  0.16398000  1.0 -0.0204810817
C  C1015  1  0.52414000  0.83602000  0.24730000  1.0 0.0399708086
C  C1016  1  0.25270000  0.02414000  0.16398000  1.0 0.0399708086
C  C1017  1  0.02414000  0.41398000  0.50270000  1.0 -0.0283845212
C  C1018  1  0.24730000  0.08602000  0.22586000  1.0 -0.0204810817
C  C1019  1  0.24730000  0.66398000  0.52414000  1.0 0.0399708086
C  C1020  1  0.77414000  0.74730000  0.41398000  1.0 -0.0097666036
C  C1021  1  0.58602000  0.27414000  0.75270000  1.0 -0.0204810817
C  C1022  1  0.77414000  0.00270000  0.33602000  1.0 0.0297531631
C  C1023  1  0.58602000  0.47586000  0.99730000  1.0 0.0399708086
C  C1024  1  0.91398000  0.25270000  0.77414000  1.0 -0.0204810817
C  C1025  1  0.83602000  0.25270000  0.97586000  1.0 0.0399708086
C  C1026  1  0.91398000  0.49730000  0.97586000  1.0 0.0297531631
C  C1027  1  0.75270000  0.72586000  0.08602000  1.0 -0.0097666036
C  C1028  1  0.72586000  0.91398000  0.24730000  1.0 -0.0097666036
C  C1029  1  0.72586000  0.83602000  0.50270000  1.0 0.0297531631
C  C1030  1  0.49730000  0.72586000  0.16398000  1.0 0.0297531631
C  C1031  1  0.02414000  0.83602000  0.24730000  1.0 -0.0204810817
C  C1032  1  0.75270000  0.52414000  0.16398000  1.0 0.0399708086
C  C1033  1  0.02414000  0.91398000  0.50270000  1.0 0.0399708086
C  C1034  1  0.24730000  0.58602000  0.72586000  1.0 -0.0204810817
C  C1035  1  0.77414000  0.24730000  0.91398000  1.0 -0.0204810817
C  C1036  1  0.58602000  0.77414000  0.25270000  1.0 -0.0097666036
C  C1037  1  0.91398000  0.75270000  0.27414000  1.0 -0.0097666036
C  C1038  1  0.83602000  0.75270000  0.47586000  1.0 0.0399708086
C  C1039  1  0.75270000  0.22586000  0.58602000  1.0 -0.0204810817
C  C1040  1  0.72586000  0.41398000  0.74730000  1.0 -0.0204810817
C  C1041  1  0.49730000  0.22586000  0.66398000  1.0 0.0399708086
C  C1042  1  0.02414000  0.83602000  0.74730000  1.0 0.0399708086
C  C1043  1  0.75270000  0.02414000  0.16398000  1.0 -0.0204810817
C  C1044  1  0.02414000  0.41398000  0.00270000  1.0 0.0399708086
C  C1045  1  0.13895000  0.92672000  0.36611000  1.0 0.0297531631
C  C1046  1  0.61105000  0.82328000  0.36611000  1.0 -0.0204810817
C  C1047  1  0.13895000  0.82328000  0.88389000  1.0 0.0212388158
C  C1048  1  0.61105000  0.92672000  0.88389000  1.0 0.0212388158
C  C1049  1  0.63389000  0.13895000  0.07328000  1.0 0.0297531631
C  C1050  1  0.92672000  0.63389000  0.86105000  1.0 0.0297531631
C  C1051  1  0.11611000  0.61105000  0.07328000  1.0 0.0212388158
C  C1052  1  0.82328000  0.63389000  0.38895000  1.0 -0.0204810817
C  C1053  1  0.63389000  0.61105000  0.17672000  1.0 -0.0204810817
C  C1054  1  0.82328000  0.11611000  0.86105000  1.0 0.0297531631
C  C1055  1  0.11611000  0.13895000  0.17672000  1.0 0.0297531631
C  C1056  1  0.92672000  0.11611000  0.38895000  1.0 0.0212388158
C  C1057  1  0.57328000  0.86105000  0.63389000  1.0 0.0297531631
C  C1058  1  0.67672000  0.88895000  0.13389000  1.0 0.0212388158
C  C1059  1  0.67672000  0.86105000  0.11611000  1.0 -0.0283845212
C  C1060  1  0.57328000  0.88895000  0.61611000  1.0 0.0297531631
C  C1061  1  0.86105000  0.36611000  0.42672000  1.0 0.0297531631
C  C1062  1  0.86611000  0.07328000  0.13895000  1.0 0.0297531631
C  C1063  1  0.88895000  0.38389000  0.42672000  1.0 0.0297531631
C  C1064  1  0.86611000  0.67672000  0.11105000  1.0 0.0212388158
C  C1065  1  0.88895000  0.36611000  0.82328000  1.0 0.0110511389
C  C1066  1  0.88389000  0.67672000  0.13895000  1.0 -0.0283845212
C  C1067  1  0.86105000  0.88389000  0.32328000  1.0 -0.0283845212
C  C1068  1  0.38389000  0.07328000  0.61105000  1.0 0.0399708086
C  C1069  1  0.13895000  0.42672000  0.86611000  1.0 0.0297531631
C  C1070  1  0.61105000  0.32328000  0.86611000  1.0 0.0110511389
C  C1071  1  0.13895000  0.32328000  0.38389000  1.0 0.0110511389
C  C1072  1  0.61105000  0.42672000  0.38389000  1.0 0.0297531631
C  C1073  1  0.63389000  0.63895000  0.57328000  1.0 0.0212388158
C  C1074  1  0.92672000  0.13389000  0.36105000  1.0 0.0212388158
C  C1075  1  0.11611000  0.11105000  0.57328000  1.0 0.0399708086
C  C1076  1  0.82328000  0.13389000  0.88895000  1.0 -0.0400785791
C  C1077  1  0.63389000  0.11105000  0.67672000  1.0 0.0297531631
C  C1078  1  0.82328000  0.61611000  0.36105000  1.0 -0.0204810817
C  C1079  1  0.11611000  0.63895000  0.67672000  1.0 0.0110511389
C  C1080  1  0.92672000  0.61611000  0.88895000  1.0 -0.0283845212
C  C1081  1  0.57328000  0.36105000  0.13389000  1.0 0.0297531631
C  C1082  1  0.67672000  0.38895000  0.63389000  1.0 -0.0400785791
C  C1083  1  0.67672000  0.36105000  0.61611000  1.0 0.0297531631
C  C1084  1  0.57328000  0.38895000  0.11611000  1.0 -0.0283845212
C  C1085  1  0.86105000  0.86611000  0.92672000  1.0 0.0297531631
C  C1086  1  0.86611000  0.57328000  0.63895000  1.0 0.0297531631
C  C1087  1  0.88895000  0.88389000  0.92672000  1.0 0.0297531631
C  C1088  1  0.86611000  0.17672000  0.61105000  1.0 0.0110511389
C  C1089  1  0.88895000  0.86611000  0.32328000  1.0 0.0212388158
C  C1090  1  0.88389000  0.17672000  0.63895000  1.0 0.0110511389
C  C1091  1  0.86105000  0.38389000  0.82328000  1.0 0.0110511389
C  C1092  1  0.38389000  0.57328000  0.11105000  1.0 0.0297531631
C  C1093  1  0.63895000  0.92672000  0.86611000  1.0 0.0212388158
C  C1094  1  0.11105000  0.82328000  0.86611000  1.0 -0.0400785791
C  C1095  1  0.63895000  0.82328000  0.38389000  1.0 -0.0204810817
C  C1096  1  0.11105000  0.92672000  0.38389000  1.0 -0.0283845212
C  C1097  1  0.13389000  0.13895000  0.57328000  1.0 0.0297531631
C  C1098  1  0.42672000  0.63389000  0.36105000  1.0 0.0297531631
C  C1099  1  0.61611000  0.61105000  0.57328000  1.0 0.0212388158
C  C1100  1  0.32328000  0.63389000  0.88895000  1.0 0.0110511389
C  C1101  1  0.13389000  0.61105000  0.67672000  1.0 0.0110511389
C  C1102  1  0.32328000  0.11611000  0.36105000  1.0 0.0110511389
C  C1103  1  0.61611000  0.13895000  0.67672000  1.0 -0.0283845212
C  C1104  1  0.42672000  0.11611000  0.88895000  1.0 0.0297531631
C  C1105  1  0.07328000  0.86105000  0.13389000  1.0 0.0297531631
C  C1106  1  0.17672000  0.88895000  0.63389000  1.0 0.0110511389
C  C1107  1  0.17672000  0.86105000  0.61611000  1.0 0.0110511389
C  C1108  1  0.07328000  0.88895000  0.11611000  1.0 0.0297531631
C  C1109  1  0.36105000  0.36611000  0.92672000  1.0 0.0297531631
C  C1110  1  0.36611000  0.07328000  0.63895000  1.0 0.0297531631
C  C1111  1  0.38895000  0.38389000  0.92672000  1.0 0.0399708086
C  C1112  1  0.36611000  0.67672000  0.61105000  1.0 -0.0400785791
C  C1113  1  0.38895000  0.36611000  0.32328000  1.0 -0.0400785791
C  C1114  1  0.38389000  0.67672000  0.63895000  1.0 0.0212388158
C  C1115  1  0.36105000  0.88389000  0.82328000  1.0 0.0110511389
C  C1116  1  0.88389000  0.07328000  0.11105000  1.0 0.0297531631
C  C1117  1  0.63895000  0.42672000  0.36611000  1.0 0.0297531631
C  C1118  1  0.11105000  0.32328000  0.36611000  1.0 0.0110511389
C  C1119  1  0.63895000  0.32328000  0.88389000  1.0 0.0110511389
C  C1120  1  0.11105000  0.42672000  0.88389000  1.0 -0.0283845212
C  C1121  1  0.13389000  0.63895000  0.07328000  1.0 0.0212388158
C  C1122  1  0.42672000  0.13389000  0.86105000  1.0 0.0297531631
C  C1123  1  0.61611000  0.11105000  0.07328000  1.0 -0.0283845212
C  C1124  1  0.32328000  0.13389000  0.38895000  1.0 0.0110511389
C  C1125  1  0.13389000  0.11105000  0.17672000  1.0 -0.0400785791
C  C1126  1  0.32328000  0.61611000  0.86105000  1.0 0.0110511389
C  C1127  1  0.61611000  0.63895000  0.17672000  1.0 -0.0204810817
C  C1128  1  0.42672000  0.61611000  0.38895000  1.0 0.0297531631
C  C1129  1  0.07328000  0.36105000  0.63389000  1.0 0.0297531631
C  C1130  1  0.17672000  0.38895000  0.13389000  1.0 0.0110511389
C  C1131  1  0.17672000  0.36105000  0.11611000  1.0 0.0110511389
C  C1132  1  0.07328000  0.38895000  0.61611000  1.0 0.0399708086
C  C1133  1  0.36105000  0.86611000  0.42672000  1.0 0.0297531631
C  C1134  1  0.36611000  0.57328000  0.13895000  1.0 0.0297531631
C  C1135  1  0.38895000  0.88389000  0.42672000  1.0 -0.0283845212
C  C1136  1  0.36611000  0.17672000  0.11105000  1.0 0.0110511389
C  C1137  1  0.38895000  0.86611000  0.82328000  1.0 0.0110511389
C  C1138  1  0.38389000  0.17672000  0.13895000  1.0 0.0110511389
C  C1139  1  0.36105000  0.38389000  0.32328000  1.0 0.0297531631
C  C1140  1  0.88389000  0.57328000  0.61105000  1.0 -0.0283845212
C  C1141  1  0.86105000  0.07328000  0.63389000  1.0 0.0110511389
C  C1142  1  0.88895000  0.67672000  0.63389000  1.0 0.0297531631
C  C1143  1  0.86105000  0.67672000  0.61611000  1.0 0.0212388158
C  C1144  1  0.88895000  0.07328000  0.61611000  1.0 0.0110511389
C  C1145  1  0.36611000  0.86105000  0.92672000  1.0 0.0110511389
C  C1146  1  0.07328000  0.36611000  0.13895000  1.0 0.0110511389
C  C1147  1  0.38389000  0.88895000  0.92672000  1.0 0.0110511389
C  C1148  1  0.67672000  0.36611000  0.11105000  1.0 0.0297531631
C  C1149  1  0.36611000  0.88895000  0.32328000  1.0 0.0297531631
C  C1150  1  0.67672000  0.38389000  0.13895000  1.0 0.0212388158
C  C1151  1  0.38389000  0.86105000  0.32328000  1.0 0.0212388158
C  C1152  1  0.07328000  0.38389000  0.11105000  1.0 0.0110511389
C  C1153  1  0.42672000  0.13895000  0.36611000  1.0 -0.1098574371
C  C1154  1  0.82328000  0.61105000  0.86611000  1.0 0.0297531631
C  C1155  1  0.82328000  0.13895000  0.38389000  1.0 -0.1299130984
C  C1156  1  0.42672000  0.61105000  0.88389000  1.0 0.0110511389
C  C1157  1  0.13895000  0.63389000  0.57328000  1.0 -0.1098574371
C  C1158  1  0.13389000  0.92672000  0.86105000  1.0 0.0297531631
C  C1159  1  0.61105000  0.11611000  0.57328000  1.0 0.0297531631
C  C1160  1  0.13389000  0.82328000  0.38895000  1.0 0.0297531631
C  C1161  1  0.61105000  0.63389000  0.67672000  1.0 -0.1098574371
C  C1162  1  0.61611000  0.82328000  0.86105000  1.0 -0.1299130984
C  C1163  1  0.13895000  0.61611000  0.17672000  1.0 -0.1299130984
C  C1164  1  0.11611000  0.92672000  0.88895000  1.0 0.0212388158
C  C1165  1  0.86105000  0.57328000  0.13389000  1.0 -0.099272321
C  C1166  1  0.88895000  0.67672000  0.13389000  1.0 -0.0283845212
C  C1167  1  0.88895000  0.57328000  0.61611000  1.0 -0.0283845212
C  C1168  1  0.36611000  0.36105000  0.42672000  1.0 -0.1098574371
C  C1169  1  0.07328000  0.86611000  0.63895000  1.0 -0.1098574371
C  C1170  1  0.38389000  0.88895000  0.42672000  1.0 -0.0400785791
C  C1171  1  0.67672000  0.86611000  0.11105000  1.0 -0.0283845212
C  C1172  1  0.67672000  0.38389000  0.63895000  1.0 -0.0400785791
C  C1173  1  0.38389000  0.36105000  0.32328000  1.0 -0.0400785791
C  C1174  1  0.42672000  0.63895000  0.86611000  1.0 0.0110511389
C  C1175  1  0.82328000  0.61105000  0.36611000  1.0 -0.0204810817
C  C1176  1  0.82328000  0.63895000  0.88389000  1.0 0.0212388158
C  C1177  1  0.13895000  0.13389000  0.07328000  1.0 -0.1098574371
C  C1178  1  0.13389000  0.42672000  0.36105000  1.0 0.0110511389
C  C1179  1  0.61105000  0.11611000  0.07328000  1.0 -0.0283845212
C  C1180  1  0.61105000  0.13389000  0.17672000  1.0 0.0297531631
C  C1181  1  0.61611000  0.82328000  0.36105000  1.0 -0.0204810817
C  C1182  1  0.13895000  0.11611000  0.17672000  1.0 -0.0400785791
C  C1183  1  0.11611000  0.42672000  0.38895000  1.0 0.0110511389
C  C1184  1  0.36105000  0.07328000  0.13389000  1.0 -0.1098574371
C  C1185  1  0.36105000  0.67672000  0.61611000  1.0 -0.0502428352
C  C1186  1  0.86611000  0.86105000  0.42672000  1.0 -0.0901758538
C  C1187  1  0.57328000  0.36611000  0.63895000  1.0 -0.0901758538
C  C1188  1  0.86611000  0.88895000  0.32328000  1.0 -0.0283845212
C  C1189  1  0.57328000  0.38389000  0.11105000  1.0 -0.0400785791
C  C1190  1  0.92672000  0.13895000  0.86611000  1.0 -0.1098574371
C  C1191  1  0.82328000  0.13895000  0.88389000  1.0 -0.0400785791
C  C1192  1  0.92672000  0.61105000  0.88389000  1.0 -0.0283845212
C  C1193  1  0.63895000  0.63389000  0.07328000  1.0 -0.1212670469
C  C1194  1  0.63389000  0.92672000  0.36105000  1.0 -0.1212670469
C  C1195  1  0.63389000  0.82328000  0.38895000  1.0 -0.0204810817
C  C1196  1  0.61105000  0.63389000  0.17672000  1.0 -0.0204810817
C  C1197  1  0.11611000  0.82328000  0.36105000  1.0 0.0212388158
C  C1198  1  0.63895000  0.61611000  0.17672000  1.0 -0.0204810817
C  C1199  1  0.11611000  0.92672000  0.38895000  1.0 -0.0400785791
C  C1200  1  0.36105000  0.57328000  0.63389000  1.0 -0.099272321
C  C1201  1  0.86611000  0.36105000  0.92672000  1.0 -0.1098574371
C  C1202  1  0.57328000  0.86611000  0.13895000  1.0 -0.099272321
C  C1203  1  0.92672000  0.63895000  0.36611000  1.0 -0.1212670469
C  C1204  1  0.82328000  0.63895000  0.38389000  1.0 -0.0204810817
C  C1205  1  0.63895000  0.13389000  0.57328000  1.0 0.0212388158
C  C1206  1  0.63389000  0.42672000  0.86105000  1.0 -0.1098574371
C  C1207  1  0.61105000  0.13389000  0.67672000  1.0 -0.0400785791
C  C1208  1  0.11611000  0.82328000  0.86105000  1.0 -0.0502428352
C  C1209  1  0.63895000  0.11611000  0.17672000  1.0 0.0212388158
C  C1210  1  0.11611000  0.42672000  0.88895000  1.0 -0.0283845212
C  C1211  1  0.18270000  0.94313000  0.33809000  1.0 -0.1299130984
C  C1212  1  0.56730000  0.80687000  0.33809000  1.0 -0.0703996179
C  C1213  1  0.18270000  0.80687000  0.91191000  1.0 -0.1299130984
C  C1214  1  0.56730000  0.94313000  0.91191000  1.0 -0.1402187775
C  C1215  1  0.66191000  0.18270000  0.05687000  1.0 -0.1299130984
C  C1216  1  0.94313000  0.66191000  0.81730000  1.0 -0.1299130984
C  C1217  1  0.08809000  0.56730000  0.05687000  1.0 -0.1402187775
C  C1218  1  0.80687000  0.66191000  0.43270000  1.0 -0.0703996179
C  C1219  1  0.66191000  0.56730000  0.19313000  1.0 -0.0703996179
C  C1220  1  0.80687000  0.08809000  0.81730000  1.0 -0.1299130984
C  C1221  1  0.08809000  0.18270000  0.19313000  1.0 -0.1299130984
C  C1222  1  0.94313000  0.08809000  0.43270000  1.0 -0.1402187775
C  C1223  1  0.55687000  0.81730000  0.66191000  1.0 -0.1212670469
C  C1224  1  0.69313000  0.93270000  0.16191000  1.0 -0.1212670469
C  C1225  1  0.69313000  0.81730000  0.08809000  1.0 -0.0811988302
C  C1226  1  0.55687000  0.93270000  0.58809000  1.0 -0.1299130984
C  C1227  1  0.81730000  0.33809000  0.44313000  1.0 -0.1299130984
C  C1228  1  0.83809000  0.05687000  0.18270000  1.0 -0.1402187775
C  C1229  1  0.93270000  0.41191000  0.44313000  1.0 -0.1299130984
C  C1230  1  0.83809000  0.69313000  0.06730000  1.0 -0.1212670469
C  C1231  1  0.93270000  0.33809000  0.80687000  1.0 -0.1490047755
C  C1232  1  0.91191000  0.69313000  0.18270000  1.0 -0.0811988302
C  C1233  1  0.81730000  0.91191000  0.30687000  1.0 -0.0811988302
C  C1234  1  0.41191000  0.05687000  0.56730000  1.0 -0.1402187775
C  C1235  1  0.18270000  0.44313000  0.83809000  1.0 -0.1299130984
C  C1236  1  0.56730000  0.30687000  0.83809000  1.0 -0.1490047755
C  C1237  1  0.18270000  0.30687000  0.41191000  1.0 -0.1490047755
C  C1238  1  0.56730000  0.44313000  0.41191000  1.0 -0.1402187775
C  C1239  1  0.66191000  0.68270000  0.55687000  1.0 -0.1490047755
C  C1240  1  0.94313000  0.16191000  0.31730000  1.0 -0.1490047755
C  C1241  1  0.08809000  0.06730000  0.55687000  1.0 -0.1402187775
C  C1242  1  0.80687000  0.16191000  0.93270000  1.0 -0.0811988302
C  C1243  1  0.66191000  0.06730000  0.69313000  1.0 -0.1299130984
C  C1244  1  0.80687000  0.58809000  0.31730000  1.0 -0.0811988302
C  C1245  1  0.08809000  0.68270000  0.69313000  1.0 -0.1402187775
C  C1246  1  0.94313000  0.58809000  0.93270000  1.0 -0.0811988302
C  C1247  1  0.55687000  0.31730000  0.16191000  1.0 -0.1299130984
C  C1248  1  0.69313000  0.43270000  0.66191000  1.0 -0.0811988302
C  C1249  1  0.69313000  0.31730000  0.58809000  1.0 -0.1299130984
C  C1250  1  0.55687000  0.43270000  0.08809000  1.0 -0.0811988302
C  C1251  1  0.81730000  0.83809000  0.94313000  1.0 -0.1402187775
C  C1252  1  0.83809000  0.55687000  0.68270000  1.0 -0.1299130984
C  C1253  1  0.93270000  0.91191000  0.94313000  1.0 -0.1299130984
C  C1254  1  0.83809000  0.19313000  0.56730000  1.0 -0.1402187775
C  C1255  1  0.93270000  0.83809000  0.30687000  1.0 -0.1212670469
C  C1256  1  0.91191000  0.19313000  0.68270000  1.0 -0.1402187775
C  C1257  1  0.81730000  0.41191000  0.80687000  1.0 -0.1402187775
C  C1258  1  0.41191000  0.55687000  0.06730000  1.0 -0.1299130984
C  C1259  1  0.68270000  0.94313000  0.83809000  1.0 -0.1490047755
C  C1260  1  0.06730000  0.80687000  0.83809000  1.0 -0.0811988302
C  C1261  1  0.68270000  0.80687000  0.41191000  1.0 -0.0811988302
C  C1262  1  0.06730000  0.94313000  0.41191000  1.0 -0.0811988302
C  C1263  1  0.16191000  0.18270000  0.55687000  1.0 -0.1402187775
C  C1264  1  0.44313000  0.66191000  0.31730000  1.0 -0.1402187775
C  C1265  1  0.58809000  0.56730000  0.55687000  1.0 -0.1402187775
C  C1266  1  0.30687000  0.66191000  0.93270000  1.0 -0.1490047755
C  C1267  1  0.16191000  0.56730000  0.69313000  1.0 -0.1490047755
C  C1268  1  0.30687000  0.08809000  0.31730000  1.0 -0.1402187775
C  C1269  1  0.58809000  0.18270000  0.69313000  1.0 -0.0811988302
C  C1270  1  0.44313000  0.08809000  0.93270000  1.0 -0.1402187775
C  C1271  1  0.05687000  0.81730000  0.16191000  1.0 -0.1402187775
C  C1272  1  0.19313000  0.93270000  0.66191000  1.0 -0.1490047755
C  C1273  1  0.19313000  0.81730000  0.58809000  1.0 -0.1402187775
C  C1274  1  0.05687000  0.93270000  0.08809000  1.0 -0.1402187775
C  C1275  1  0.31730000  0.33809000  0.94313000  1.0 -0.1402187775
C  C1276  1  0.33809000  0.05687000  0.68270000  1.0 -0.1402187775
C  C1277  1  0.43270000  0.41191000  0.94313000  1.0 -0.1402187775
C  C1278  1  0.33809000  0.69313000  0.56730000  1.0 -0.0811988302
C  C1279  1  0.43270000  0.33809000  0.30687000  1.0 -0.0811988302
C  C1280  1  0.41191000  0.69313000  0.68270000  1.0 -0.1098574371
C  C1281  1  0.31730000  0.91191000  0.80687000  1.0 -0.1402187775
C  C1282  1  0.91191000  0.05687000  0.06730000  1.0 -0.1402187775
C  C1283  1  0.68270000  0.44313000  0.33809000  1.0 -0.1402187775
C  C1284  1  0.06730000  0.30687000  0.33809000  1.0 -0.1490047755
C  C1285  1  0.68270000  0.30687000  0.91191000  1.0 -0.1402187775
C  C1286  1  0.06730000  0.44313000  0.91191000  1.0 -0.0811988302
C  C1287  1  0.16191000  0.68270000  0.05687000  1.0 -0.1490047755
C  C1288  1  0.44313000  0.16191000  0.81730000  1.0 -0.1402187775
C  C1289  1  0.58809000  0.06730000  0.05687000  1.0 -0.0811988302
C  C1290  1  0.30687000  0.16191000  0.43270000  1.0 -0.1490047755
C  C1291  1  0.16191000  0.06730000  0.19313000  1.0 -0.0811988302
C  C1292  1  0.30687000  0.58809000  0.81730000  1.0 -0.1490047755
C  C1293  1  0.58809000  0.68270000  0.19313000  1.0 -0.0811988302
C  C1294  1  0.44313000  0.58809000  0.43270000  1.0 -0.1402187775
C  C1295  1  0.05687000  0.31730000  0.66191000  1.0 -0.1402187775
C  C1296  1  0.19313000  0.43270000  0.16191000  1.0 -0.1402187775
C  C1297  1  0.19313000  0.31730000  0.08809000  1.0 -0.1402187775
C  C1298  1  0.05687000  0.43270000  0.58809000  1.0 -0.1402187775
C  C1299  1  0.31730000  0.83809000  0.44313000  1.0 -0.1299130984
C  C1300  1  0.33809000  0.55687000  0.18270000  1.0 -0.1299130984
C  C1301  1  0.43270000  0.91191000  0.44313000  1.0 -0.0811988302
C  C1302  1  0.33809000  0.19313000  0.06730000  1.0 -0.1490047755
C  C1303  1  0.43270000  0.83809000  0.80687000  1.0 -0.1299130984
C  C1304  1  0.41191000  0.19313000  0.18270000  1.0 -0.1402187775
C  C1305  1  0.31730000  0.41191000  0.30687000  1.0 -0.1299130984
C  C1306  1  0.91191000  0.55687000  0.56730000  1.0 -0.0811988302
C  C1307  1  0.81730000  0.05687000  0.66191000  1.0 -0.1299130984
C  C1308  1  0.93270000  0.69313000  0.66191000  1.0 -0.1212670469
C  C1309  1  0.81730000  0.69313000  0.58809000  1.0 -0.1402187775
C  C1310  1  0.93270000  0.05687000  0.58809000  1.0 -0.1402187775
C  C1311  1  0.33809000  0.81730000  0.94313000  1.0 -0.1299130984
C  C1312  1  0.05687000  0.33809000  0.18270000  1.0 -0.1299130984
C  C1313  1  0.41191000  0.93270000  0.94313000  1.0 -0.1402187775
C  C1314  1  0.69313000  0.33809000  0.06730000  1.0 -0.1212670469
C  C1315  1  0.33809000  0.93270000  0.30687000  1.0 -0.1212670469
C  C1316  1  0.69313000  0.41191000  0.18270000  1.0 -0.1402187775
C  C1317  1  0.41191000  0.81730000  0.30687000  1.0 -0.1402187775
C  C1318  1  0.05687000  0.41191000  0.06730000  1.0 -0.1603199685
C  C1319  1  0.44313000  0.18270000  0.33809000  1.0 -0.1402187775
C  C1320  1  0.80687000  0.56730000  0.83809000  1.0 -0.1212670469
C  C1321  1  0.80687000  0.18270000  0.41191000  1.0 -0.1212670469
C  C1322  1  0.44313000  0.56730000  0.91191000  1.0 -0.1402187775
C  C1323  1  0.18270000  0.66191000  0.55687000  1.0 -0.1402187775
C  C1324  1  0.16191000  0.94313000  0.81730000  1.0 -0.1212670469
C  C1325  1  0.56730000  0.08809000  0.55687000  1.0 -0.1212670469
C  C1326  1  0.16191000  0.80687000  0.43270000  1.0 -0.1212670469
C  C1327  1  0.56730000  0.66191000  0.69313000  1.0 -0.1212670469
C  C1328  1  0.58809000  0.80687000  0.81730000  1.0 -0.1212670469
C  C1329  1  0.18270000  0.58809000  0.19313000  1.0 -0.1212670469
C  C1330  1  0.08809000  0.94313000  0.93270000  1.0 -0.1299130984
C  C1331  1  0.81730000  0.55687000  0.16191000  1.0 -0.1701050413
C  C1332  1  0.93270000  0.69313000  0.16191000  1.0 -0.0811988302
C  C1333  1  0.93270000  0.55687000  0.58809000  1.0 -0.0901758538
C  C1334  1  0.33809000  0.31730000  0.44313000  1.0 -0.1212670469
C  C1335  1  0.05687000  0.83809000  0.68270000  1.0 -0.1402187775
C  C1336  1  0.41191000  0.93270000  0.44313000  1.0 -0.0901758538
C  C1337  1  0.69313000  0.83809000  0.06730000  1.0 -0.0811988302
C  C1338  1  0.69313000  0.41191000  0.68270000  1.0 -0.0901758538
C  C1339  1  0.41191000  0.31730000  0.30687000  1.0 -0.0901758538
C  C1340  1  0.44313000  0.68270000  0.83809000  1.0 -0.1299130984
C  C1341  1  0.80687000  0.56730000  0.33809000  1.0 -0.0811988302
C  C1342  1  0.80687000  0.68270000  0.91191000  1.0 -0.1299130984
C  C1343  1  0.18270000  0.16191000  0.05687000  1.0 -0.1212670469
C  C1344  1  0.16191000  0.44313000  0.31730000  1.0 -0.1402187775
C  C1345  1  0.56730000  0.08809000  0.05687000  1.0 -0.0901758538
C  C1346  1  0.56730000  0.16191000  0.19313000  1.0 -0.1212670469
C  C1347  1  0.58809000  0.80687000  0.31730000  1.0 -0.0811988302
C  C1348  1  0.18270000  0.08809000  0.19313000  1.0 -0.0901758538
C  C1349  1  0.08809000  0.44313000  0.43270000  1.0 -0.1402187775
C  C1350  1  0.31730000  0.05687000  0.16191000  1.0 -0.1402187775
C  C1351  1  0.31730000  0.69313000  0.58809000  1.0 -0.0901758538
C  C1352  1  0.83809000  0.81730000  0.44313000  1.0 -0.1701050413
C  C1353  1  0.55687000  0.33809000  0.68270000  1.0 -0.1299130984
C  C1354  1  0.83809000  0.93270000  0.30687000  1.0 -0.0811988302
C  C1355  1  0.55687000  0.41191000  0.06730000  1.0 -0.0901758538
C  C1356  1  0.94313000  0.18270000  0.83809000  1.0 -0.1212670469
C  C1357  1  0.80687000  0.18270000  0.91191000  1.0 -0.0901758538
C  C1358  1  0.94313000  0.56730000  0.91191000  1.0 -0.0901758538
C  C1359  1  0.68270000  0.66191000  0.05687000  1.0 -0.1098574371
C  C1360  1  0.66191000  0.94313000  0.31730000  1.0 -0.1098574371
C  C1361  1  0.66191000  0.80687000  0.43270000  1.0 -0.0811988302
C  C1362  1  0.56730000  0.66191000  0.19313000  1.0 -0.0811988302
C  C1363  1  0.08809000  0.80687000  0.31730000  1.0 -0.1299130984
C  C1364  1  0.68270000  0.58809000  0.19313000  1.0 -0.0811988302
C  C1365  1  0.08809000  0.94313000  0.43270000  1.0 -0.0901758538
C  C1366  1  0.31730000  0.55687000  0.66191000  1.0 -0.1212670469
C  C1367  1  0.83809000  0.31730000  0.94313000  1.0 -0.1402187775
C  C1368  1  0.55687000  0.83809000  0.18270000  1.0 -0.1701050413
C  C1369  1  0.94313000  0.68270000  0.33809000  1.0 -0.1098574371
C  C1370  1  0.80687000  0.68270000  0.41191000  1.0 -0.0811988302
C  C1371  1  0.68270000  0.16191000  0.55687000  1.0 -0.1299130984
C  C1372  1  0.66191000  0.44313000  0.81730000  1.0 -0.1402187775
C  C1373  1  0.56730000  0.16191000  0.69313000  1.0 -0.0901758538
C  C1374  1  0.08809000  0.80687000  0.81730000  1.0 -0.0901758538
C  C1375  1  0.68270000  0.08809000  0.19313000  1.0 -0.1299130984
C  C1376  1  0.08809000  0.44313000  0.93270000  1.0 -0.0901758538
C  C1377  1  0.19144000  0.91295000  0.33365000  1.0 0.0881362836
C  C1378  1  0.55856000  0.83705000  0.33365000  1.0 0.0212388158
C  C1379  1  0.19144000  0.83705000  0.91635000  1.0 0.0881362836
C  C1380  1  0.55856000  0.91295000  0.91635000  1.0 0.0802769275
C  C1381  1  0.66635000  0.19144000  0.08705000  1.0 0.0881362836
C  C1382  1  0.91295000  0.66635000  0.80856000  1.0 0.0881362836
C  C1383  1  0.08365000  0.55856000  0.08705000  1.0 0.0802769275
C  C1384  1  0.83705000  0.66635000  0.44144000  1.0 0.0212388158
C  C1385  1  0.66635000  0.55856000  0.16295000  1.0 0.0212388158
C  C1386  1  0.83705000  0.08365000  0.80856000  1.0 0.0881362836
C  C1387  1  0.08365000  0.19144000  0.16295000  1.0 0.0881362836
C  C1388  1  0.91295000  0.08365000  0.44144000  1.0 0.0802769275
C  C1389  1  0.58705000  0.80856000  0.66635000  1.0 0.0881362836
C  C1390  1  0.66295000  0.94144000  0.16635000  1.0 0.0881362836
C  C1391  1  0.66295000  0.80856000  0.08365000  1.0 0.0110511389
C  C1392  1  0.58705000  0.94144000  0.58365000  1.0 0.0802769275
C  C1393  1  0.80856000  0.33365000  0.41295000  1.0 0.0881362836
C  C1394  1  0.83365000  0.08705000  0.19144000  1.0 0.0802769275
C  C1395  1  0.94144000  0.41635000  0.41295000  1.0 0.0802769275
C  C1396  1  0.83365000  0.66295000  0.05856000  1.0 0.0881362836
C  C1397  1  0.94144000  0.33365000  0.83705000  1.0 0.0802769275
C  C1398  1  0.91635000  0.66295000  0.19144000  1.0 0.0110511389
C  C1399  1  0.80856000  0.91635000  0.33705000  1.0 0.0110511389
C  C1400  1  0.41635000  0.08705000  0.55856000  1.0 0.0802769275
C  C1401  1  0.19144000  0.41295000  0.83365000  1.0 0.0980222923
C  C1402  1  0.55856000  0.33705000  0.83365000  1.0 0.0802769275
C  C1403  1  0.19144000  0.33705000  0.41635000  1.0 0.0802769275
C  C1404  1  0.55856000  0.41295000  0.41635000  1.0 0.0802769275
C  C1405  1  0.66635000  0.69144000  0.58705000  1.0 0.0802769275
C  C1406  1  0.91295000  0.16635000  0.30856000  1.0 0.0802769275
C  C1407  1  0.08365000  0.05856000  0.58705000  1.0 0.0881362836
C  C1408  1  0.83705000  0.16635000  0.94144000  1.0 0.0110511389
C  C1409  1  0.66635000  0.05856000  0.66295000  1.0 0.0881362836
C  C1410  1  0.83705000  0.58365000  0.30856000  1.0 0.0110511389
C  C1411  1  0.08365000  0.69144000  0.66295000  1.0 0.0802769275
C  C1412  1  0.91295000  0.58365000  0.94144000  1.0 0.0110511389
C  C1413  1  0.58705000  0.30856000  0.16635000  1.0 0.0881362836
C  C1414  1  0.66295000  0.44144000  0.66635000  1.0 0.0110511389
C  C1415  1  0.66295000  0.30856000  0.58365000  1.0 0.0881362836
C  C1416  1  0.58705000  0.44144000  0.08365000  1.0 0.0110511389
C  C1417  1  0.80856000  0.83365000  0.91295000  1.0 0.0802769275
C  C1418  1  0.83365000  0.58705000  0.69144000  1.0 0.0881362836
C  C1419  1  0.94144000  0.91635000  0.91295000  1.0 0.0802769275
C  C1420  1  0.83365000  0.16295000  0.55856000  1.0 0.0802769275
C  C1421  1  0.94144000  0.83365000  0.33705000  1.0 0.0881362836
C  C1422  1  0.91635000  0.16295000  0.69144000  1.0 0.0802769275
C  C1423  1  0.80856000  0.41635000  0.83705000  1.0 0.0802769275
C  C1424  1  0.41635000  0.58705000  0.05856000  1.0 0.0802769275
C  C1425  1  0.69144000  0.91295000  0.83365000  1.0 0.0802769275
C  C1426  1  0.05856000  0.83705000  0.83365000  1.0 0.0110511389
C  C1427  1  0.69144000  0.83705000  0.41635000  1.0 0.0110511389
C  C1428  1  0.05856000  0.91295000  0.41635000  1.0 0.0110511389
C  C1429  1  0.16635000  0.19144000  0.58705000  1.0 0.0802769275
C  C1430  1  0.41295000  0.66635000  0.30856000  1.0 0.0802769275
C  C1431  1  0.58365000  0.55856000  0.58705000  1.0 0.0802769275
C  C1432  1  0.33705000  0.66635000  0.94144000  1.0 0.0802769275
C  C1433  1  0.16635000  0.55856000  0.66295000  1.0 0.0881362836
C  C1434  1  0.33705000  0.08365000  0.30856000  1.0 0.0802769275
C  C1435  1  0.58365000  0.19144000  0.66295000  1.0 0.0110511389
C  C1436  1  0.41295000  0.08365000  0.94144000  1.0 0.0881362836
C  C1437  1  0.08705000  0.80856000  0.16635000  1.0 0.0802769275
C  C1438  1  0.16295000  0.94144000  0.66635000  1.0 0.0881362836
C  C1439  1  0.16295000  0.80856000  0.58365000  1.0 0.0802769275
C  C1440  1  0.08705000  0.94144000  0.08365000  1.0 0.0881362836
C  C1441  1  0.30856000  0.33365000  0.91295000  1.0 0.0802769275
C  C1442  1  0.33365000  0.08705000  0.69144000  1.0 0.0802769275
C  C1443  1  0.44144000  0.41635000  0.91295000  1.0 0.0881362836
C  C1444  1  0.33365000  0.66295000  0.55856000  1.0 0.0110511389
C  C1445  1  0.44144000  0.33365000  0.33705000  1.0 0.0110511389
C  C1446  1  0.41635000  0.66295000  0.69144000  1.0 0.0881362836
C  C1447  1  0.30856000  0.91635000  0.83705000  1.0 0.0802769275
C  C1448  1  0.91635000  0.08705000  0.05856000  1.0 0.0802769275
C  C1449  1  0.69144000  0.41295000  0.33365000  1.0 0.0802769275
C  C1450  1  0.05856000  0.33705000  0.33365000  1.0 0.0802769275
C  C1451  1  0.69144000  0.33705000  0.91635000  1.0 0.0802769275
C  C1452  1  0.05856000  0.41295000  0.91635000  1.0 0.0110511389
C  C1453  1  0.16635000  0.69144000  0.08705000  1.0 0.0802769275
C  C1454  1  0.41295000  0.16635000  0.80856000  1.0 0.0802769275
C  C1455  1  0.58365000  0.05856000  0.08705000  1.0 0.0110511389
C  C1456  1  0.33705000  0.16635000  0.44144000  1.0 0.0881362836
C  C1457  1  0.16635000  0.05856000  0.16295000  1.0 0.0110511389
C  C1458  1  0.33705000  0.58365000  0.80856000  1.0 0.0802769275
C  C1459  1  0.58365000  0.69144000  0.16295000  1.0 0.0110511389
C  C1460  1  0.41295000  0.58365000  0.44144000  1.0 0.0802769275
C  C1461  1  0.08705000  0.30856000  0.66635000  1.0 0.0802769275
C  C1462  1  0.16295000  0.44144000  0.16635000  1.0 0.0802769275
C  C1463  1  0.16295000  0.30856000  0.08365000  1.0 0.0802769275
C  C1464  1  0.08705000  0.44144000  0.58365000  1.0 0.0881362836
C  C1465  1  0.30856000  0.83365000  0.41295000  1.0 0.0881362836
C  C1466  1  0.33365000  0.58705000  0.19144000  1.0 0.0881362836
C  C1467  1  0.44144000  0.91635000  0.41295000  1.0 0.0110511389
C  C1468  1  0.33365000  0.16295000  0.05856000  1.0 0.0881362836
C  C1469  1  0.44144000  0.83365000  0.83705000  1.0 0.0881362836
C  C1470  1  0.41635000  0.16295000  0.19144000  1.0 0.0802769275
C  C1471  1  0.30856000  0.41635000  0.33705000  1.0 0.0881362836
C  C1472  1  0.91635000  0.58705000  0.55856000  1.0 0.0110511389
C  C1473  1  0.80856000  0.08705000  0.66635000  1.0 0.0802769275
C  C1474  1  0.94144000  0.66295000  0.66635000  1.0 0.0802769275
C  C1475  1  0.80856000  0.66295000  0.58365000  1.0 0.0881362836
C  C1476  1  0.94144000  0.08705000  0.58365000  1.0 0.0881362836
C  C1477  1  0.33365000  0.80856000  0.91295000  1.0 0.0802769275
C  C1478  1  0.08705000  0.33365000  0.19144000  1.0 0.0802769275
C  C1479  1  0.41635000  0.94144000  0.91295000  1.0 0.0881362836
C  C1480  1  0.66295000  0.33365000  0.05856000  1.0 0.0802769275
C  C1481  1  0.33365000  0.94144000  0.33705000  1.0 0.0802769275
C  C1482  1  0.66295000  0.41635000  0.19144000  1.0 0.0881362836
C  C1483  1  0.41635000  0.80856000  0.33705000  1.0 0.0881362836
C  C1484  1  0.08705000  0.41635000  0.05856000  1.0 0.0881362836
C  C1485  1  0.41295000  0.19144000  0.33365000  1.0 0.0881362836
C  C1486  1  0.83705000  0.55856000  0.83365000  1.0 0.0802769275
C  C1487  1  0.83705000  0.19144000  0.41635000  1.0 0.0802769275
C  C1488  1  0.41295000  0.55856000  0.91635000  1.0 0.0881362836
C  C1489  1  0.19144000  0.66635000  0.58705000  1.0 0.0881362836
C  C1490  1  0.16635000  0.91295000  0.80856000  1.0 0.0802769275
C  C1491  1  0.55856000  0.08365000  0.58705000  1.0 0.0802769275
C  C1492  1  0.16635000  0.83705000  0.44144000  1.0 0.0802769275
C  C1493  1  0.55856000  0.66635000  0.66295000  1.0 0.0802769275
C  C1494  1  0.58365000  0.83705000  0.80856000  1.0 0.0802769275
C  C1495  1  0.19144000  0.58365000  0.16295000  1.0 0.0802769275
C  C1496  1  0.08365000  0.91295000  0.94144000  1.0 0.0881362836
C  C1497  1  0.80856000  0.58705000  0.16635000  1.0 0.0980222923
C  C1498  1  0.94144000  0.66295000  0.16635000  1.0 0.0110511389
C  C1499  1  0.94144000  0.58705000  0.58365000  1.0 0.0110511389
C  C1500  1  0.33365000  0.30856000  0.41295000  1.0 0.0881362836
C  C1501  1  0.08705000  0.83365000  0.69144000  1.0 0.0881362836
C  C1502  1  0.41635000  0.94144000  0.41295000  1.0 0.0013617803
C  C1503  1  0.66295000  0.83365000  0.05856000  1.0 0.0110511389
C  C1504  1  0.66295000  0.41635000  0.69144000  1.0 0.0110511389
C  C1505  1  0.41635000  0.30856000  0.33705000  1.0 0.0110511389
C  C1506  1  0.41295000  0.69144000  0.83365000  1.0 0.0881362836
C  C1507  1  0.83705000  0.55856000  0.33365000  1.0 0.0110511389
C  C1508  1  0.83705000  0.69144000  0.91635000  1.0 0.0881362836
C  C1509  1  0.19144000  0.16635000  0.08705000  1.0 0.0881362836
C  C1510  1  0.16635000  0.41295000  0.30856000  1.0 0.0881362836
C  C1511  1  0.55856000  0.08365000  0.08705000  1.0 0.0110511389
C  C1512  1  0.55856000  0.16635000  0.16295000  1.0 0.0802769275
C  C1513  1  0.58365000  0.83705000  0.30856000  1.0 0.0110511389
C  C1514  1  0.19144000  0.08365000  0.16295000  1.0 0.0110511389
C  C1515  1  0.08365000  0.41295000  0.44144000  1.0 0.0881362836
C  C1516  1  0.30856000  0.08705000  0.16635000  1.0 0.0881362836
C  C1517  1  0.30856000  0.66295000  0.58365000  1.0 0.0110511389
C  C1518  1  0.83365000  0.80856000  0.41295000  1.0 0.0980222923
C  C1519  1  0.58705000  0.33365000  0.69144000  1.0 0.0881362836
C  C1520  1  0.83365000  0.94144000  0.33705000  1.0 0.0110511389
C  C1521  1  0.58705000  0.41635000  0.05856000  1.0 0.0013617803
C  C1522  1  0.91295000  0.19144000  0.83365000  1.0 0.0881362836
C  C1523  1  0.83705000  0.19144000  0.91635000  1.0 0.0110511389
C  C1524  1  0.91295000  0.55856000  0.91635000  1.0 0.0110511389
C  C1525  1  0.69144000  0.66635000  0.08705000  1.0 0.0881362836
C  C1526  1  0.66635000  0.91295000  0.30856000  1.0 0.0881362836
C  C1527  1  0.66635000  0.83705000  0.44144000  1.0 0.0110511389
C  C1528  1  0.55856000  0.66635000  0.16295000  1.0 0.0110511389
C  C1529  1  0.08365000  0.83705000  0.30856000  1.0 0.0881362836
C  C1530  1  0.69144000  0.58365000  0.16295000  1.0 0.0110511389
C  C1531  1  0.08365000  0.91295000  0.44144000  1.0 0.0013617803
C  C1532  1  0.30856000  0.58705000  0.66635000  1.0 0.0881362836
C  C1533  1  0.83365000  0.30856000  0.91295000  1.0 0.0881362836
C  C1534  1  0.58705000  0.83365000  0.19144000  1.0 0.0980222923
C  C1535  1  0.91295000  0.69144000  0.33365000  1.0 0.0881362836
C  C1536  1  0.83705000  0.69144000  0.41635000  1.0 0.0110511389
C  C1537  1  0.69144000  0.16635000  0.58705000  1.0 0.0881362836
C  C1538  1  0.66635000  0.41295000  0.80856000  1.0 0.0881362836
C  C1539  1  0.55856000  0.16635000  0.66295000  1.0 0.0110511389
C  C1540  1  0.08365000  0.83705000  0.80856000  1.0 0.0110511389
C  C1541  1  0.69144000  0.08365000  0.16295000  1.0 0.0881362836
C  C1542  1  0.08365000  0.41295000  0.94144000  1.0 0.0212388158
C  C1543  1  0.26025000  0.93214000  0.24675000  1.0 0.5972689025
C  C1544  1  0.48975000  0.81786000  0.24675000  1.0 0.311578603
C  C1545  1  0.26025000  0.81786000  0.00325000  1.0 0.5972689025
C  C1546  1  0.48975000  0.93214000  0.00325000  1.0 0.5972689025
C  C1547  1  0.75325000  0.26025000  0.06786000  1.0 0.5972689025
C  C1548  1  0.93214000  0.75325000  0.73975000  1.0 0.5972689025
C  C1549  1  0.99675000  0.48975000  0.06786000  1.0 0.5803534507
C  C1550  1  0.81786000  0.75325000  0.51025000  1.0 0.311578603
C  C1551  1  0.75325000  0.48975000  0.18214000  1.0 0.311578603
C  C1552  1  0.81786000  0.99675000  0.73975000  1.0 0.5972689025
C  C1553  1  0.99675000  0.26025000  0.18214000  1.0 0.5972689025
C  C1554  1  0.93214000  0.99675000  0.51025000  1.0 0.5972689025
C  C1555  1  0.56786000  0.73975000  0.75325000  1.0 0.5890090875
C  C1556  1  0.68214000  0.01025000  0.25325000  1.0 0.5890090875
C  C1557  1  0.68214000  0.73975000  0.99675000  1.0 0.311578603
C  C1558  1  0.56786000  0.01025000  0.49675000  1.0 0.5972689025
C  C1559  1  0.73975000  0.24675000  0.43214000  1.0 0.5890090875
C  C1560  1  0.74675000  0.06786000  0.26025000  1.0 0.5703097611
C  C1561  1  0.01025000  0.50325000  0.43214000  1.0 0.5972689025
C  C1562  1  0.74675000  0.68214000  0.98975000  1.0 0.5890090875
C  C1563  1  0.01025000  0.24675000  0.81786000  1.0 0.5890090875
C  C1564  1  0.00325000  0.68214000  0.26025000  1.0 0.311578603
C  C1565  1  0.73975000  0.00325000  0.31786000  1.0 0.311578603
C  C1566  1  0.50325000  0.06786000  0.48975000  1.0 0.5803534507
C  C1567  1  0.26025000  0.43214000  0.74675000  1.0 0.5972689025
C  C1568  1  0.48975000  0.31786000  0.74675000  1.0 0.5890090875
C  C1569  1  0.26025000  0.31786000  0.50325000  1.0 0.5972689025
C  C1570  1  0.48975000  0.43214000  0.50325000  1.0 0.5890090875
C  C1571  1  0.75325000  0.76025000  0.56786000  1.0 0.5703097611
C  C1572  1  0.93214000  0.25325000  0.23975000  1.0 0.5972689025
C  C1573  1  0.99675000  0.98975000  0.56786000  1.0 0.5803534507
C  C1574  1  0.81786000  0.25325000  0.01025000  1.0 0.3023450403
C  C1575  1  0.75325000  0.98975000  0.68214000  1.0 0.5890090875
C  C1576  1  0.81786000  0.49675000  0.23975000  1.0 0.311578603
C  C1577  1  0.99675000  0.76025000  0.68214000  1.0 0.5703097611
C  C1578  1  0.93214000  0.49675000  0.01025000  1.0 0.3344155877
C  C1579  1  0.56786000  0.23975000  0.25325000  1.0 0.5972689025
C  C1580  1  0.68214000  0.51025000  0.75325000  1.0 0.3023450403
C  C1581  1  0.68214000  0.23975000  0.49675000  1.0 0.5972689025
C  C1582  1  0.56786000  0.51025000  0.99675000  1.0 0.3168861055
C  C1583  1  0.73975000  0.74675000  0.93214000  1.0 0.5703097611
C  C1584  1  0.74675000  0.56786000  0.76025000  1.0 0.5972689025
C  C1585  1  0.01025000  0.00325000  0.93214000  1.0 0.5972689025
C  C1586  1  0.74675000  0.18214000  0.48975000  1.0 0.5890090875
C  C1587  1  0.01025000  0.74675000  0.31786000  1.0 0.5890090875
C  C1588  1  0.00325000  0.18214000  0.76025000  1.0 0.5972689025
C  C1589  1  0.73975000  0.50325000  0.81786000  1.0 0.5703097611
C  C1590  1  0.50325000  0.56786000  0.98975000  1.0 0.5972689025
C  C1591  1  0.76025000  0.93214000  0.74675000  1.0 0.5972689025
C  C1592  1  0.98975000  0.81786000  0.74675000  1.0 0.3023450403
C  C1593  1  0.76025000  0.81786000  0.50325000  1.0 0.311578603
C  C1594  1  0.98975000  0.93214000  0.50325000  1.0 0.3168861055
C  C1595  1  0.25325000  0.26025000  0.56786000  1.0 0.5972689025
C  C1596  1  0.43214000  0.75325000  0.23975000  1.0 0.5703097611
C  C1597  1  0.49675000  0.48975000  0.56786000  1.0 0.5890090875
C  C1598  1  0.31786000  0.75325000  0.01025000  1.0 0.5890090875
C  C1599  1  0.25325000  0.48975000  0.68214000  1.0 0.5890090875
C  C1600  1  0.31786000  0.99675000  0.23975000  1.0 0.5703097611
C  C1601  1  0.49675000  0.26025000  0.68214000  1.0 0.3168861055
C  C1602  1  0.43214000  0.99675000  0.01025000  1.0 0.5803534507
C  C1603  1  0.06786000  0.73975000  0.25325000  1.0 0.5703097611
C  C1604  1  0.18214000  0.01025000  0.75325000  1.0 0.5890090875
C  C1605  1  0.18214000  0.73975000  0.49675000  1.0 0.5703097611
C  C1606  1  0.06786000  0.01025000  0.99675000  1.0 0.5890090875
C  C1607  1  0.23975000  0.24675000  0.93214000  1.0 0.5972689025
C  C1608  1  0.24675000  0.06786000  0.76025000  1.0 0.5972689025
C  C1609  1  0.51025000  0.50325000  0.93214000  1.0 0.5803534507
C  C1610  1  0.24675000  0.68214000  0.48975000  1.0 0.3023450403
C  C1611  1  0.51025000  0.24675000  0.31786000  1.0 0.3023450403
C  C1612  1  0.50325000  0.68214000  0.76025000  1.0 0.5890090875
C  C1613  1  0.23975000  0.00325000  0.81786000  1.0 0.5972689025
C  C1614  1  0.00325000  0.06786000  0.98975000  1.0 0.5972689025
C  C1615  1  0.76025000  0.43214000  0.24675000  1.0 0.5703097611
C  C1616  1  0.98975000  0.31786000  0.24675000  1.0 0.5890090875
C  C1617  1  0.76025000  0.31786000  0.00325000  1.0 0.5703097611
C  C1618  1  0.98975000  0.43214000  0.00325000  1.0 0.311578603
C  C1619  1  0.25325000  0.76025000  0.06786000  1.0 0.5972689025
C  C1620  1  0.43214000  0.25325000  0.73975000  1.0 0.5803534507
C  C1621  1  0.49675000  0.98975000  0.06786000  1.0 0.3168861055
C  C1622  1  0.31786000  0.25325000  0.51025000  1.0 0.5890090875
C  C1623  1  0.25325000  0.98975000  0.18214000  1.0 0.3023450403
C  C1624  1  0.31786000  0.49675000  0.73975000  1.0 0.5972689025
C  C1625  1  0.49675000  0.76025000  0.18214000  1.0 0.311578603
C  C1626  1  0.43214000  0.49675000  0.51025000  1.0 0.5890090875
C  C1627  1  0.06786000  0.23975000  0.75325000  1.0 0.5972689025
C  C1628  1  0.18214000  0.51025000  0.25325000  1.0 0.5890090875
C  C1629  1  0.18214000  0.23975000  0.99675000  1.0 0.5972689025
C  C1630  1  0.06786000  0.51025000  0.49675000  1.0 0.5803534507
C  C1631  1  0.23975000  0.74675000  0.43214000  1.0 0.5972689025
C  C1632  1  0.24675000  0.56786000  0.26025000  1.0 0.5890090875
C  C1633  1  0.51025000  0.00325000  0.43214000  1.0 0.3168861055
C  C1634  1  0.24675000  0.18214000  0.98975000  1.0 0.5890090875
C  C1635  1  0.51025000  0.74675000  0.81786000  1.0 0.5890090875
C  C1636  1  0.50325000  0.18214000  0.26025000  1.0 0.5703097611
C  C1637  1  0.23975000  0.50325000  0.31786000  1.0 0.5972689025
C  C1638  1  0.00325000  0.56786000  0.48975000  1.0 0.3168861055
C  C1639  1  0.73975000  0.06786000  0.75325000  1.0 0.5890090875
C  C1640  1  0.01025000  0.68214000  0.75325000  1.0 0.5890090875
C  C1641  1  0.73975000  0.68214000  0.49675000  1.0 0.5703097611
C  C1642  1  0.01025000  0.06786000  0.49675000  1.0 0.5803534507
C  C1643  1  0.24675000  0.73975000  0.93214000  1.0 0.5890090875
C  C1644  1  0.06786000  0.24675000  0.26025000  1.0 0.5890090875
C  C1645  1  0.50325000  0.01025000  0.93214000  1.0 0.5803534507
C  C1646  1  0.68214000  0.24675000  0.98975000  1.0 0.5890090875
C  C1647  1  0.24675000  0.01025000  0.31786000  1.0 0.5890090875
C  C1648  1  0.68214000  0.50325000  0.26025000  1.0 0.5703097611
C  C1649  1  0.50325000  0.73975000  0.31786000  1.0 0.5703097611
C  C1650  1  0.06786000  0.50325000  0.98975000  1.0 0.5604867517
C  C1651  1  0.43214000  0.26025000  0.24675000  1.0 0.5703097611
C  C1652  1  0.81786000  0.48975000  0.74675000  1.0 0.5890090875
C  C1653  1  0.81786000  0.26025000  0.50325000  1.0 0.5803534507
C  C1654  1  0.43214000  0.48975000  0.00325000  1.0 0.5803534507
C  C1655  1  0.26025000  0.75325000  0.56786000  1.0 0.5703097611
C  C1656  1  0.25325000  0.93214000  0.73975000  1.0 0.5890090875
C  C1657  1  0.48975000  0.99675000  0.56786000  1.0 0.5803534507
C  C1658  1  0.25325000  0.81786000  0.51025000  1.0 0.5890090875
C  C1659  1  0.48975000  0.75325000  0.68214000  1.0 0.5890090875
C  C1660  1  0.49675000  0.81786000  0.73975000  1.0 0.5890090875
C  C1661  1  0.26025000  0.49675000  0.18214000  1.0 0.5803534507
C  C1662  1  0.99675000  0.93214000  0.01025000  1.0 0.5890090875
C  C1663  1  0.73975000  0.56786000  0.25325000  1.0 0.5604867517
C  C1664  1  0.01025000  0.68214000  0.25325000  1.0 0.311578603
C  C1665  1  0.01025000  0.56786000  0.49675000  1.0 0.3168861055
C  C1666  1  0.24675000  0.23975000  0.43214000  1.0 0.5890090875
C  C1667  1  0.06786000  0.74675000  0.76025000  1.0 0.5703097611
C  C1668  1  0.50325000  0.01025000  0.43214000  1.0 0.3168861055
C  C1669  1  0.68214000  0.74675000  0.98975000  1.0 0.311578603
C  C1670  1  0.68214000  0.50325000  0.76025000  1.0 0.3023450403
C  C1671  1  0.50325000  0.23975000  0.31786000  1.0 0.3023450403
C  C1672  1  0.43214000  0.76025000  0.74675000  1.0 0.5890090875
C  C1673  1  0.81786000  0.48975000  0.24675000  1.0 0.311578603
C  C1674  1  0.81786000  0.76025000  0.00325000  1.0 0.5803534507
C  C1675  1  0.26025000  0.25325000  0.06786000  1.0 0.5890090875
C  C1676  1  0.25325000  0.43214000  0.23975000  1.0 0.5890090875
C  C1677  1  0.48975000  0.99675000  0.06786000  1.0 0.3168861055
C  C1678  1  0.48975000  0.25325000  0.18214000  1.0 0.5890090875
C  C1679  1  0.49675000  0.81786000  0.23975000  1.0 0.311578603
C  C1680  1  0.26025000  0.99675000  0.18214000  1.0 0.3023450403
C  C1681  1  0.99675000  0.43214000  0.51025000  1.0 0.5803534507
C  C1682  1  0.23975000  0.06786000  0.25325000  1.0 0.5703097611
C  C1683  1  0.23975000  0.68214000  0.49675000  1.0 0.3023450403
C  C1684  1  0.74675000  0.73975000  0.43214000  1.0 0.5604867517
C  C1685  1  0.56786000  0.24675000  0.76025000  1.0 0.5703097611
C  C1686  1  0.74675000  0.01025000  0.31786000  1.0 0.311578603
C  C1687  1  0.56786000  0.50325000  0.98975000  1.0 0.3168861055
C  C1688  1  0.93214000  0.26025000  0.74675000  1.0 0.5890090875
C  C1689  1  0.81786000  0.26025000  0.00325000  1.0 0.3023450403
C  C1690  1  0.93214000  0.48975000  0.00325000  1.0 0.3355459004
C  C1691  1  0.76025000  0.75325000  0.06786000  1.0 0.5803534507
C  C1692  1  0.75325000  0.93214000  0.23975000  1.0 0.5803534507
C  C1693  1  0.75325000  0.81786000  0.51025000  1.0 0.311578603
C  C1694  1  0.48975000  0.75325000  0.18214000  1.0 0.311578603
C  C1695  1  0.99675000  0.81786000  0.23975000  1.0 0.5803534507
C  C1696  1  0.76025000  0.49675000  0.18214000  1.0 0.311578603
C  C1697  1  0.99675000  0.93214000  0.51025000  1.0 0.3168861055
C  C1698  1  0.23975000  0.56786000  0.75325000  1.0 0.5890090875
C  C1699  1  0.74675000  0.23975000  0.93214000  1.0 0.5703097611
C  C1700  1  0.56786000  0.74675000  0.26025000  1.0 0.5604867517
C  C1701  1  0.93214000  0.76025000  0.24675000  1.0 0.5803534507
C  C1702  1  0.81786000  0.76025000  0.50325000  1.0 0.311578603
C  C1703  1  0.76025000  0.25325000  0.56786000  1.0 0.5890090875
C  C1704  1  0.75325000  0.43214000  0.73975000  1.0 0.5703097611
C  C1705  1  0.48975000  0.25325000  0.68214000  1.0 0.311578603
C  C1706  1  0.99675000  0.81786000  0.73975000  1.0 0.3023450403
C  C1707  1  0.76025000  0.99675000  0.18214000  1.0 0.5803534507
C  C1708  1  0.99675000  0.43214000  0.01025000  1.0 0.311578603
C  C1709  1  0.23754000  0.88122000  0.32483000  1.0 -0.1490047755
C  C1710  1  0.51246000  0.86878000  0.32483000  1.0 -0.1402187775
C  C1711  1  0.23754000  0.86878000  0.92517000  1.0 -0.1490047755
C  C1712  1  0.51246000  0.88122000  0.92517000  1.0 -0.1490047755
C  C1713  1  0.67517000  0.23754000  0.11878000  1.0 -0.1490047755
C  C1714  1  0.88122000  0.67517000  0.76246000  1.0 -0.1490047755
C  C1715  1  0.07483000  0.51246000  0.11878000  1.0 -0.1402187775
C  C1716  1  0.86878000  0.67517000  0.48754000  1.0 -0.1402187775
C  C1717  1  0.67517000  0.51246000  0.13122000  1.0 -0.1402187775
C  C1718  1  0.86878000  0.07483000  0.76246000  1.0 -0.1490047755
C  C1719  1  0.07483000  0.23754000  0.13122000  1.0 -0.1490047755
C  C1720  1  0.88122000  0.07483000  0.48754000  1.0 -0.1490047755
C  C1721  1  0.61878000  0.76246000  0.67517000  1.0 -0.1402187775
C  C1722  1  0.63122000  0.98754000  0.17517000  1.0 -0.1402187775
C  C1723  1  0.63122000  0.76246000  0.07483000  1.0 -0.179768593
C  C1724  1  0.61878000  0.98754000  0.57483000  1.0 -0.1490047755
C  C1725  1  0.76246000  0.32483000  0.38122000  1.0 -0.1402187775
C  C1726  1  0.82483000  0.11878000  0.23754000  1.0 -0.1402187775
C  C1727  1  0.98754000  0.42517000  0.38122000  1.0 -0.1402187775
C  C1728  1  0.82483000  0.63122000  0.01246000  1.0 -0.1402187775
C  C1729  1  0.98754000  0.32483000  0.86878000  1.0 -0.1402187775
C  C1730  1  0.92517000  0.63122000  0.23754000  1.0 -0.179768593
C  C1731  1  0.76246000  0.92517000  0.36878000  1.0 -0.179768593
C  C1732  1  0.42517000  0.11878000  0.51246000  1.0 -0.1402187775
C  C1733  1  0.23754000  0.38122000  0.82483000  1.0 -0.1402187775
C  C1734  1  0.51246000  0.36878000  0.82483000  1.0 -0.1402187775
C  C1735  1  0.23754000  0.36878000  0.42517000  1.0 -0.1490047755
C  C1736  1  0.51246000  0.38122000  0.42517000  1.0 -0.1402187775
C  C1737  1  0.67517000  0.73754000  0.61878000  1.0 -0.1402187775
C  C1738  1  0.88122000  0.17517000  0.26246000  1.0 -0.1490047755
C  C1739  1  0.07483000  0.01246000  0.61878000  1.0 -0.1402187775
C  C1740  1  0.86878000  0.17517000  0.98754000  1.0 -0.1490047755
C  C1741  1  0.67517000  0.01246000  0.63122000  1.0 -0.1402187775
C  C1742  1  0.86878000  0.57483000  0.26246000  1.0 -0.1701050413
C  C1743  1  0.07483000  0.73754000  0.63122000  1.0 -0.1402187775
C  C1744  1  0.88122000  0.57483000  0.98754000  1.0 -0.1701050413
C  C1745  1  0.61878000  0.26246000  0.17517000  1.0 -0.1490047755
C  C1746  1  0.63122000  0.48754000  0.67517000  1.0 -0.1490047755
C  C1747  1  0.63122000  0.26246000  0.57483000  1.0 -0.1402187775
C  C1748  1  0.61878000  0.48754000  0.07483000  1.0 -0.1701050413
C  C1749  1  0.76246000  0.82483000  0.88122000  1.0 -0.1402187775
C  C1750  1  0.82483000  0.61878000  0.73754000  1.0 -0.1490047755
C  C1751  1  0.98754000  0.92517000  0.88122000  1.0 -0.1402187775
C  C1752  1  0.82483000  0.13122000  0.51246000  1.0 -0.1402187775
C  C1753  1  0.98754000  0.82483000  0.36878000  1.0 -0.1402187775
C  C1754  1  0.92517000  0.13122000  0.73754000  1.0 -0.1490047755
C  C1755  1  0.76246000  0.42517000  0.86878000  1.0 -0.1402187775
C  C1756  1  0.42517000  0.61878000  0.01246000  1.0 -0.1402187775
C  C1757  1  0.73754000  0.88122000  0.82483000  1.0 -0.1490047755
C  C1758  1  0.01246000  0.86878000  0.82483000  1.0 -0.1490047755
C  C1759  1  0.73754000  0.86878000  0.42517000  1.0 -0.1701050413
C  C1760  1  0.01246000  0.88122000  0.42517000  1.0 -0.179768593
C  C1761  1  0.17517000  0.23754000  0.61878000  1.0 -0.1402187775
C  C1762  1  0.38122000  0.67517000  0.26246000  1.0 -0.1402187775
C  C1763  1  0.57483000  0.51246000  0.61878000  1.0 -0.1402187775
C  C1764  1  0.36878000  0.67517000  0.98754000  1.0 -0.1402187775
C  C1765  1  0.17517000  0.51246000  0.63122000  1.0 -0.1402187775
C  C1766  1  0.36878000  0.07483000  0.26246000  1.0 -0.1402187775
C  C1767  1  0.57483000  0.23754000  0.63122000  1.0 -0.1701050413
C  C1768  1  0.38122000  0.07483000  0.98754000  1.0 -0.1402187775
C  C1769  1  0.11878000  0.76246000  0.17517000  1.0 -0.1402187775
C  C1770  1  0.13122000  0.98754000  0.67517000  1.0 -0.1402187775
C  C1771  1  0.13122000  0.76246000  0.57483000  1.0 -0.1402187775
C  C1772  1  0.11878000  0.98754000  0.07483000  1.0 -0.1299130984
C  C1773  1  0.26246000  0.32483000  0.88122000  1.0 -0.1402187775
C  C1774  1  0.32483000  0.11878000  0.73754000  1.0 -0.1402187775
C  C1775  1  0.48754000  0.42517000  0.88122000  1.0 -0.1402187775
C  C1776  1  0.32483000  0.63122000  0.51246000  1.0 -0.1490047755
C  C1777  1  0.48754000  0.32483000  0.36878000  1.0 -0.1490047755
C  C1778  1  0.42517000  0.63122000  0.73754000  1.0 -0.1402187775
C  C1779  1  0.26246000  0.92517000  0.86878000  1.0 -0.1490047755
C  C1780  1  0.92517000  0.11878000  0.01246000  1.0 -0.1402187775
C  C1781  1  0.73754000  0.38122000  0.32483000  1.0 -0.1402187775
C  C1782  1  0.01246000  0.36878000  0.32483000  1.0 -0.1402187775
C  C1783  1  0.73754000  0.36878000  0.92517000  1.0 -0.1402187775
C  C1784  1  0.01246000  0.38122000  0.92517000  1.0 -0.1490047755
C  C1785  1  0.17517000  0.73754000  0.11878000  1.0 -0.1490047755
C  C1786  1  0.38122000  0.17517000  0.76246000  1.0 -0.1402187775
C  C1787  1  0.57483000  0.01246000  0.11878000  1.0 -0.1701050413
C  C1788  1  0.36878000  0.17517000  0.48754000  1.0 -0.1402187775
C  C1789  1  0.17517000  0.01246000  0.13122000  1.0 -0.1490047755
C  C1790  1  0.36878000  0.57483000  0.76246000  1.0 -0.1490047755
C  C1791  1  0.57483000  0.73754000  0.13122000  1.0 -0.1701050413
C  C1792  1  0.38122000  0.57483000  0.48754000  1.0 -0.1402187775
C  C1793  1  0.11878000  0.26246000  0.67517000  1.0 -0.1402187775
C  C1794  1  0.13122000  0.48754000  0.17517000  1.0 -0.1402187775
C  C1795  1  0.13122000  0.26246000  0.07483000  1.0 -0.1490047755
C  C1796  1  0.11878000  0.48754000  0.57483000  1.0 -0.1402187775
C  C1797  1  0.26246000  0.82483000  0.38122000  1.0 -0.1490047755
C  C1798  1  0.32483000  0.61878000  0.23754000  1.0 -0.1402187775
C  C1799  1  0.48754000  0.92517000  0.38122000  1.0 -0.1701050413
C  C1800  1  0.32483000  0.13122000  0.01246000  1.0 -0.1402187775
C  C1801  1  0.48754000  0.82483000  0.86878000  1.0 -0.1402187775
C  C1802  1  0.42517000  0.13122000  0.23754000  1.0 -0.1402187775
C  C1803  1  0.26246000  0.42517000  0.36878000  1.0 -0.1490047755
C  C1804  1  0.92517000  0.61878000  0.51246000  1.0 -0.1701050413
C  C1805  1  0.76246000  0.11878000  0.67517000  1.0 -0.1402187775
C  C1806  1  0.98754000  0.63122000  0.67517000  1.0 -0.1299130984
C  C1807  1  0.76246000  0.63122000  0.57483000  1.0 -0.1299130984
C  C1808  1  0.98754000  0.11878000  0.57483000  1.0 -0.1299130984
C  C1809  1  0.32483000  0.76246000  0.88122000  1.0 -0.1402187775
C  C1810  1  0.11878000  0.32483000  0.23754000  1.0 -0.1402187775
C  C1811  1  0.42517000  0.98754000  0.88122000  1.0 -0.1299130984
C  C1812  1  0.63122000  0.32483000  0.01246000  1.0 -0.1299130984
C  C1813  1  0.32483000  0.98754000  0.36878000  1.0 -0.1299130984
C  C1814  1  0.63122000  0.42517000  0.23754000  1.0 -0.1299130984
C  C1815  1  0.42517000  0.76246000  0.36878000  1.0 -0.1299130984
C  C1816  1  0.11878000  0.42517000  0.01246000  1.0 -0.1212670469
C  C1817  1  0.38122000  0.23754000  0.32483000  1.0 -0.1299130984
C  C1818  1  0.86878000  0.51246000  0.82483000  1.0 -0.1299130984
C  C1819  1  0.86878000  0.23754000  0.42517000  1.0 -0.1299130984
C  C1820  1  0.38122000  0.51246000  0.92517000  1.0 -0.1299130984
C  C1821  1  0.23754000  0.67517000  0.61878000  1.0 -0.1299130984
C  C1822  1  0.17517000  0.88122000  0.76246000  1.0 -0.1402187775
C  C1823  1  0.51246000  0.07483000  0.61878000  1.0 -0.1299130984
C  C1824  1  0.17517000  0.86878000  0.48754000  1.0 -0.1299130984
C  C1825  1  0.51246000  0.67517000  0.63122000  1.0 -0.1299130984
C  C1826  1  0.57483000  0.86878000  0.76246000  1.0 -0.1299130984
C  C1827  1  0.23754000  0.57483000  0.13122000  1.0 -0.1299130984
C  C1828  1  0.07483000  0.88122000  0.98754000  1.0 -0.1299130984
C  C1829  1  0.76246000  0.61878000  0.17517000  1.0 -0.1212670469
C  C1830  1  0.98754000  0.63122000  0.17517000  1.0 -0.1490047755
C  C1831  1  0.98754000  0.61878000  0.57483000  1.0 -0.1701050413
C  C1832  1  0.32483000  0.26246000  0.38122000  1.0 -0.1402187775
C  C1833  1  0.11878000  0.82483000  0.73754000  1.0 -0.1212670469
C  C1834  1  0.42517000  0.98754000  0.38122000  1.0 -0.1701050413
C  C1835  1  0.63122000  0.82483000  0.01246000  1.0 -0.1490047755
C  C1836  1  0.63122000  0.42517000  0.73754000  1.0 -0.1992037181
C  C1837  1  0.42517000  0.26246000  0.36878000  1.0 -0.1992037181
C  C1838  1  0.38122000  0.73754000  0.82483000  1.0 -0.1402187775
C  C1839  1  0.86878000  0.51246000  0.32483000  1.0 -0.1402187775
C  C1840  1  0.86878000  0.73754000  0.92517000  1.0 -0.1299130984
C  C1841  1  0.23754000  0.17517000  0.11878000  1.0 -0.1402187775
C  C1842  1  0.17517000  0.38122000  0.26246000  1.0 -0.1402187775
C  C1843  1  0.51246000  0.07483000  0.11878000  1.0 -0.1701050413
C  C1844  1  0.51246000  0.17517000  0.13122000  1.0 -0.1299130984
C  C1845  1  0.57483000  0.86878000  0.26246000  1.0 -0.179768593
C  C1846  1  0.23754000  0.07483000  0.13122000  1.0 -0.1992037181
C  C1847  1  0.07483000  0.38122000  0.48754000  1.0 -0.1299130984
C  C1848  1  0.26246000  0.11878000  0.17517000  1.0 -0.1299130984
C  C1849  1  0.26246000  0.63122000  0.57483000  1.0 -0.1992037181
C  C1850  1  0.82483000  0.76246000  0.38122000  1.0 -0.1212670469
C  C1851  1  0.61878000  0.32483000  0.73754000  1.0 -0.1402187775
C  C1852  1  0.82483000  0.98754000  0.36878000  1.0 -0.1402187775
C  C1853  1  0.61878000  0.42517000  0.01246000  1.0 -0.1701050413
C  C1854  1  0.88122000  0.23754000  0.82483000  1.0 -0.1402187775
C  C1855  1  0.86878000  0.23754000  0.92517000  1.0 -0.1992037181
C  C1856  1  0.88122000  0.51246000  0.92517000  1.0 -0.1603199685
C  C1857  1  0.73754000  0.67517000  0.11878000  1.0 -0.1402187775
C  C1858  1  0.67517000  0.88122000  0.26246000  1.0 -0.1402187775
C  C1859  1  0.67517000  0.86878000  0.48754000  1.0 -0.1402187775
C  C1860  1  0.51246000  0.67517000  0.13122000  1.0 -0.1402187775
C  C1861  1  0.07483000  0.86878000  0.26246000  1.0 -0.1299130984
C  C1862  1  0.73754000  0.57483000  0.13122000  1.0 -0.179768593
C  C1863  1  0.07483000  0.88122000  0.48754000  1.0 -0.1701050413
C  C1864  1  0.26246000  0.61878000  0.67517000  1.0 -0.1402187775
C  C1865  1  0.82483000  0.26246000  0.88122000  1.0 -0.1299130984
C  C1866  1  0.61878000  0.82483000  0.23754000  1.0 -0.1212670469
C  C1867  1  0.88122000  0.73754000  0.32483000  1.0 -0.1402187775
C  C1868  1  0.86878000  0.73754000  0.42517000  1.0 -0.179768593
C  C1869  1  0.73754000  0.17517000  0.61878000  1.0 -0.1402187775
C  C1870  1  0.67517000  0.38122000  0.76246000  1.0 -0.1299130984
C  C1871  1  0.51246000  0.17517000  0.63122000  1.0 -0.1603199685
C  C1872  1  0.07483000  0.86878000  0.76246000  1.0 -0.1899800456
C  C1873  1  0.73754000  0.07483000  0.13122000  1.0 -0.1299130984
C  C1874  1  0.07483000  0.38122000  0.98754000  1.0 -0.1899800456
C  C1875  1  0.27092000  0.88983000  0.28271000  1.0 -0.099272321
C  C1876  1  0.47908000  0.86017000  0.28271000  1.0 -0.1899800456
C  C1877  1  0.27092000  0.86017000  0.96729000  1.0 -0.099272321
C  C1878  1  0.47908000  0.88983000  0.96729000  1.0 -0.099272321
C  C1879  1  0.71729000  0.27092000  0.11017000  1.0 -0.099272321
C  C1880  1  0.88983000  0.71729000  0.72908000  1.0 -0.099272321
C  C1881  1  0.03271000  0.47908000  0.11017000  1.0 -0.099272321
C  C1882  1  0.86017000  0.71729000  0.52092000  1.0 -0.1899800456
C  C1883  1  0.71729000  0.47908000  0.13983000  1.0 -0.1899800456
C  C1884  1  0.86017000  0.03271000  0.72908000  1.0 -0.099272321
C  C1885  1  0.03271000  0.27092000  0.13983000  1.0 -0.099272321
C  C1886  1  0.88983000  0.03271000  0.52092000  1.0 -0.099272321
C  C1887  1  0.61017000  0.72908000  0.71729000  1.0 -0.099272321
C  C1888  1  0.63983000  0.02092000  0.21729000  1.0 -0.099272321
C  C1889  1  0.63983000  0.72908000  0.03271000  1.0 -0.1899800456
C  C1890  1  0.61017000  0.02092000  0.53271000  1.0 -0.099272321
C  C1891  1  0.72908000  0.28271000  0.38983000  1.0 -0.0901758538
C  C1892  1  0.78271000  0.11017000  0.27092000  1.0 -0.099272321
C  C1893  1  0.02092000  0.46729000  0.38983000  1.0 -0.099272321
C  C1894  1  0.78271000  0.63983000  0.97908000  1.0 -0.099272321
C  C1895  1  0.02092000  0.28271000  0.86017000  1.0 -0.0901758538
C  C1896  1  0.96729000  0.63983000  0.27092000  1.0 -0.1899800456
C  C1897  1  0.72908000  0.96729000  0.36017000  1.0 -0.1899800456
C  C1898  1  0.46729000  0.11017000  0.47908000  1.0 -0.099272321
C  C1899  1  0.27092000  0.38983000  0.78271000  1.0 -0.0901758538
C  C1900  1  0.47908000  0.36017000  0.78271000  1.0 -0.0901758538
C  C1901  1  0.27092000  0.36017000  0.46729000  1.0 -0.0901758538
C  C1902  1  0.47908000  0.38983000  0.46729000  1.0 -0.0901758538
C  C1903  1  0.71729000  0.77092000  0.61017000  1.0 -0.099272321
C  C1904  1  0.88983000  0.21729000  0.22908000  1.0 -0.0901758538
C  C1905  1  0.03271000  0.97908000  0.61017000  1.0 -0.099272321
C  C1906  1  0.86017000  0.21729000  0.02092000  1.0 -0.179768593
C  C1907  1  0.71729000  0.97908000  0.63983000  1.0 -0.0901758538
C  C1908  1  0.86017000  0.53271000  0.22908000  1.0 -0.1992037181
C  C1909  1  0.03271000  0.77092000  0.63983000  1.0 -0.099272321
C  C1910  1  0.88983000  0.53271000  0.02092000  1.0 -0.179768593
C  C1911  1  0.61017000  0.22908000  0.21729000  1.0 -0.099272321
C  C1912  1  0.63983000  0.52092000  0.71729000  1.0 -0.179768593
C  C1913  1  0.63983000  0.22908000  0.53271000  1.0 -0.099272321
C  C1914  1  0.61017000  0.52092000  0.03271000  1.0 -0.1701050413
C  C1915  1  0.72908000  0.78271000  0.88983000  1.0 -0.099272321
C  C1916  1  0.78271000  0.61017000  0.77092000  1.0 -0.099272321
C  C1917  1  0.02092000  0.96729000  0.88983000  1.0 -0.099272321
C  C1918  1  0.78271000  0.13983000  0.47908000  1.0 -0.0901758538
C  C1919  1  0.02092000  0.78271000  0.36017000  1.0 -0.099272321
C  C1920  1  0.96729000  0.13983000  0.77092000  1.0 -0.0901758538
C  C1921  1  0.72908000  0.46729000  0.86017000  1.0 -0.099272321
C  C1922  1  0.46729000  0.61017000  0.97908000  1.0 -0.099272321
C  C1923  1  0.77092000  0.88983000  0.78271000  1.0 -0.0901758538
C  C1924  1  0.97908000  0.86017000  0.78271000  1.0 -0.1701050413
C  C1925  1  0.77092000  0.86017000  0.46729000  1.0 -0.1992037181
C  C1926  1  0.97908000  0.88983000  0.46729000  1.0 -0.1701050413
C  C1927  1  0.21729000  0.27092000  0.61017000  1.0 -0.0901758538
C  C1928  1  0.38983000  0.71729000  0.22908000  1.0 -0.1098574371
C  C1929  1  0.53271000  0.47908000  0.61017000  1.0 -0.0901758538
C  C1930  1  0.36017000  0.71729000  0.02092000  1.0 -0.0901758538
C  C1931  1  0.21729000  0.47908000  0.63983000  1.0 -0.0901758538
C  C1932  1  0.36017000  0.03271000  0.22908000  1.0 -0.099272321
C  C1933  1  0.53271000  0.27092000  0.63983000  1.0 -0.179768593
C  C1934  1  0.38983000  0.03271000  0.02092000  1.0 -0.099272321
C  C1935  1  0.11017000  0.72908000  0.21729000  1.0 -0.099272321
C  C1936  1  0.13983000  0.02092000  0.71729000  1.0 -0.0901758538
C  C1937  1  0.13983000  0.72908000  0.53271000  1.0 -0.099272321
C  C1938  1  0.11017000  0.02092000  0.03271000  1.0 -0.0901758538
C  C1939  1  0.22908000  0.28271000  0.88983000  1.0 -0.0901758538
C  C1940  1  0.28271000  0.11017000  0.77092000  1.0 -0.0901758538
C  C1941  1  0.52092000  0.46729000  0.88983000  1.0 -0.099272321
C  C1942  1  0.28271000  0.63983000  0.47908000  1.0 -0.179768593
C  C1943  1  0.52092000  0.28271000  0.36017000  1.0 -0.179768593
C  C1944  1  0.46729000  0.63983000  0.77092000  1.0 -0.099272321
C  C1945  1  0.22908000  0.96729000  0.86017000  1.0 -0.099272321
C  C1946  1  0.96729000  0.11017000  0.97908000  1.0 -0.0901758538
C  C1947  1  0.77092000  0.38983000  0.28271000  1.0 -0.1098574371
C  C1948  1  0.97908000  0.36017000  0.28271000  1.0 -0.0901758538
C  C1949  1  0.77092000  0.36017000  0.96729000  1.0 -0.099272321
C  C1950  1  0.97908000  0.38983000  0.96729000  1.0 -0.2110873864
C  C1951  1  0.21729000  0.77092000  0.11017000  1.0 -0.0901758538
C  C1952  1  0.38983000  0.21729000  0.72908000  1.0 -0.099272321
C  C1953  1  0.53271000  0.97908000  0.11017000  1.0 -0.1701050413
C  C1954  1  0.36017000  0.21729000  0.52092000  1.0 -0.0901758538
C  C1955  1  0.21729000  0.97908000  0.13983000  1.0 -0.179768593
C  C1956  1  0.36017000  0.53271000  0.72908000  1.0 -0.0901758538
C  C1957  1  0.53271000  0.77092000  0.13983000  1.0 -0.1992037181
C  C1958  1  0.38983000  0.53271000  0.52092000  1.0 -0.0901758538
C  C1959  1  0.11017000  0.22908000  0.71729000  1.0 -0.0901758538
C  C1960  1  0.13983000  0.52092000  0.21729000  1.0 -0.0901758538
C  C1961  1  0.13983000  0.22908000  0.03271000  1.0 -0.0901758538
C  C1962  1  0.11017000  0.52092000  0.53271000  1.0 -0.099272321
C  C1963  1  0.22908000  0.78271000  0.38983000  1.0 -0.099272321
C  C1964  1  0.28271000  0.61017000  0.27092000  1.0 -0.0901758538
C  C1965  1  0.52092000  0.96729000  0.38983000  1.0 -0.1701050413
C  C1966  1  0.28271000  0.13983000  0.97908000  1.0 -0.0901758538
C  C1967  1  0.52092000  0.78271000  0.86017000  1.0 -0.0901758538
C  C1968  1  0.46729000  0.13983000  0.27092000  1.0 -0.099272321
C  C1969  1  0.22908000  0.46729000  0.36017000  1.0 -0.099272321
C  C1970  1  0.96729000  0.61017000  0.47908000  1.0 -0.1701050413
C  C1971  1  0.72908000  0.11017000  0.71729000  1.0 -0.099272321
C  C1972  1  0.02092000  0.63983000  0.71729000  1.0 -0.099272321
C  C1973  1  0.72908000  0.63983000  0.53271000  1.0 -0.099272321
C  C1974  1  0.02092000  0.11017000  0.53271000  1.0 -0.099272321
C  C1975  1  0.28271000  0.72908000  0.88983000  1.0 -0.099272321
C  C1976  1  0.11017000  0.28271000  0.27092000  1.0 -0.099272321
C  C1977  1  0.46729000  0.02092000  0.88983000  1.0 -0.1098574371
C  C1978  1  0.63983000  0.28271000  0.97908000  1.0 -0.099272321
C  C1979  1  0.28271000  0.02092000  0.36017000  1.0 -0.099272321
C  C1980  1  0.63983000  0.46729000  0.27092000  1.0 -0.099272321
C  C1981  1  0.46729000  0.72908000  0.36017000  1.0 -0.099272321
C  C1982  1  0.11017000  0.46729000  0.97908000  1.0 -0.1299130984
C  C1983  1  0.38983000  0.27092000  0.28271000  1.0 -0.1212670469
C  C1984  1  0.86017000  0.47908000  0.78271000  1.0 -0.099272321
C  C1985  1  0.86017000  0.27092000  0.46729000  1.0 -0.099272321
C  C1986  1  0.38983000  0.47908000  0.96729000  1.0 -0.1098574371
C  C1987  1  0.27092000  0.71729000  0.61017000  1.0 -0.1212670469
C  C1988  1  0.21729000  0.88983000  0.72908000  1.0 -0.099272321
C  C1989  1  0.47908000  0.03271000  0.61017000  1.0 -0.099272321
C  C1990  1  0.21729000  0.86017000  0.52092000  1.0 -0.099272321
C  C1991  1  0.47908000  0.71729000  0.63983000  1.0 -0.099272321
C  C1992  1  0.53271000  0.86017000  0.72908000  1.0 -0.099272321
C  C1993  1  0.27092000  0.53271000  0.13983000  1.0 -0.099272321
C  C1994  1  0.03271000  0.88983000  0.02092000  1.0 -0.099272321
C  C1995  1  0.72908000  0.61017000  0.21729000  1.0 -0.1212670469
C  C1996  1  0.02092000  0.63983000  0.21729000  1.0 -0.1899800456
C  C1997  1  0.02092000  0.61017000  0.53271000  1.0 -0.179768593
C  C1998  1  0.28271000  0.22908000  0.38983000  1.0 -0.099272321
C  C1999  1  0.11017000  0.78271000  0.77092000  1.0 -0.1212670469
C  C2000  1  0.46729000  0.02092000  0.38983000  1.0 -0.179768593
C  C2001  1  0.63983000  0.78271000  0.97908000  1.0 -0.1899800456
C  C2002  1  0.63983000  0.46729000  0.77092000  1.0 -0.1992037181
C  C2003  1  0.46729000  0.22908000  0.36017000  1.0 -0.1992037181
C  C2004  1  0.38983000  0.77092000  0.78271000  1.0 -0.099272321
C  C2005  1  0.86017000  0.47908000  0.28271000  1.0 -0.1899800456
C  C2006  1  0.86017000  0.77092000  0.96729000  1.0 -0.099272321
C  C2007  1  0.27092000  0.21729000  0.11017000  1.0 -0.099272321
C  C2008  1  0.21729000  0.38983000  0.22908000  1.0 -0.0901758538
C  C2009  1  0.47908000  0.03271000  0.11017000  1.0 -0.179768593
C  C2010  1  0.47908000  0.21729000  0.13983000  1.0 -0.099272321
C  C2011  1  0.53271000  0.86017000  0.22908000  1.0 -0.2293106388
C  C2012  1  0.27092000  0.03271000  0.13983000  1.0 -0.1992037181
C  C2013  1  0.03271000  0.38983000  0.52092000  1.0 -0.1098574371
C  C2014  1  0.22908000  0.11017000  0.21729000  1.0 -0.1212670469
C  C2015  1  0.22908000  0.63983000  0.53271000  1.0 -0.2110873864
C  C2016  1  0.78271000  0.72908000  0.38983000  1.0 -0.1212670469
C  C2017  1  0.61017000  0.28271000  0.77092000  1.0 -0.099272321
C  C2018  1  0.78271000  0.02092000  0.36017000  1.0 -0.1899800456
C  C2019  1  0.61017000  0.46729000  0.97908000  1.0 -0.179768593
C  C2020  1  0.88983000  0.27092000  0.78271000  1.0 -0.099272321
C  C2021  1  0.86017000  0.27092000  0.96729000  1.0 -0.1992037181
C  C2022  1  0.88983000  0.47908000  0.96729000  1.0 -0.1992037181
C  C2023  1  0.77092000  0.71729000  0.11017000  1.0 -0.099272321
C  C2024  1  0.71729000  0.88983000  0.22908000  1.0 -0.099272321
C  C2025  1  0.71729000  0.86017000  0.52092000  1.0 -0.1899800456
C  C2026  1  0.47908000  0.71729000  0.13983000  1.0 -0.1899800456
C  C2027  1  0.03271000  0.86017000  0.22908000  1.0 -0.099272321
C  C2028  1  0.77092000  0.53271000  0.13983000  1.0 -0.2293106388
C  C2029  1  0.03271000  0.88983000  0.52092000  1.0 -0.179768593
C  C2030  1  0.22908000  0.61017000  0.71729000  1.0 -0.099272321
C  C2031  1  0.78271000  0.22908000  0.88983000  1.0 -0.1212670469
C  C2032  1  0.61017000  0.78271000  0.27092000  1.0 -0.1212670469
C  C2033  1  0.88983000  0.77092000  0.28271000  1.0 -0.099272321
C  C2034  1  0.86017000  0.77092000  0.46729000  1.0 -0.2293106388
C  C2035  1  0.77092000  0.21729000  0.61017000  1.0 -0.0901758538
C  C2036  1  0.71729000  0.38983000  0.72908000  1.0 -0.1212670469
C  C2037  1  0.47908000  0.21729000  0.63983000  1.0 -0.179768593
C  C2038  1  0.03271000  0.86017000  0.72908000  1.0 -0.1992037181
C  C2039  1  0.77092000  0.03271000  0.13983000  1.0 -0.099272321
C  C2040  1  0.03271000  0.38983000  0.02092000  1.0 -0.220387441
C  C2041  1  0.26308000  0.87331000  0.30862000  1.0 -0.099272321
C  C2042  1  0.48692000  0.87669000  0.30862000  1.0 -0.0901758538
C  C2043  1  0.26308000  0.87669000  0.94138000  1.0 -0.099272321
C  C2044  1  0.48692000  0.87331000  0.94138000  1.0 -0.099272321
C  C2045  1  0.69138000  0.26308000  0.12669000  1.0 -0.099272321
C  C2046  1  0.87331000  0.69138000  0.73692000  1.0 -0.099272321
C  C2047  1  0.05862000  0.48692000  0.12669000  1.0 -0.099272321
C  C2048  1  0.87669000  0.69138000  0.51308000  1.0 -0.0901758538
C  C2049  1  0.69138000  0.48692000  0.12331000  1.0 -0.0901758538
C  C2050  1  0.87669000  0.05862000  0.73692000  1.0 -0.099272321
C  C2051  1  0.05862000  0.26308000  0.12331000  1.0 -0.099272321
C  C2052  1  0.87331000  0.05862000  0.51308000  1.0 -0.099272321
C  C2053  1  0.62669000  0.73692000  0.69138000  1.0 -0.099272321
C  C2054  1  0.62331000  0.01308000  0.19138000  1.0 -0.099272321
C  C2055  1  0.62331000  0.73692000  0.05862000  1.0 -0.0901758538
C  C2056  1  0.62669000  0.01308000  0.55862000  1.0 -0.099272321
C  C2057  1  0.73692000  0.30862000  0.37331000  1.0 -0.099272321
C  C2058  1  0.80862000  0.12669000  0.26308000  1.0 -0.0901758538
C  C2059  1  0.01308000  0.44138000  0.37331000  1.0 -0.099272321
C  C2060  1  0.80862000  0.62331000  0.98692000  1.0 -0.099272321
C  C2061  1  0.01308000  0.30862000  0.87669000  1.0 -0.099272321
C  C2062  1  0.94138000  0.62331000  0.26308000  1.0 -0.0901758538
C  C2063  1  0.73692000  0.94138000  0.37669000  1.0 -0.0901758538
C  C2064  1  0.44138000  0.12669000  0.48692000  1.0 -0.0901758538
C  C2065  1  0.26308000  0.37331000  0.80862000  1.0 -0.099272321
C  C2066  1  0.48692000  0.37669000  0.80862000  1.0 -0.099272321
C  C2067  1  0.26308000  0.37669000  0.44138000  1.0 -0.099272321
C  C2068  1  0.48692000  0.37331000  0.44138000  1.0 -0.1098574371
C  C2069  1  0.69138000  0.76308000  0.62669000  1.0 -0.0901758538
C  C2070  1  0.87331000  0.19138000  0.23692000  1.0 -0.099272321
C  C2071  1  0.05862000  0.98692000  0.62669000  1.0 -0.099272321
C  C2072  1  0.87669000  0.19138000  0.01308000  1.0 -0.0811988302
C  C2073  1  0.69138000  0.98692000  0.62331000  1.0 -0.099272321
C  C2074  1  0.87669000  0.55862000  0.23692000  1.0 -0.0901758538
C  C2075  1  0.05862000  0.76308000  0.62331000  1.0 -0.099272321
C  C2076  1  0.87331000  0.55862000  0.01308000  1.0 -0.0811988302
C  C2077  1  0.62669000  0.23692000  0.19138000  1.0 -0.099272321
C  C2078  1  0.62331000  0.51308000  0.69138000  1.0 -0.0811988302
C  C2079  1  0.62331000  0.23692000  0.55862000  1.0 -0.1098574371
C  C2080  1  0.62669000  0.51308000  0.05862000  1.0 -0.0901758538
C  C2081  1  0.73692000  0.80862000  0.87331000  1.0 -0.0901758538
C  C2082  1  0.80862000  0.62669000  0.76308000  1.0 -0.099272321
C  C2083  1  0.01308000  0.94138000  0.87331000  1.0 -0.1098574371
C  C2084  1  0.80862000  0.12331000  0.48692000  1.0 -0.0901758538
C  C2085  1  0.01308000  0.80862000  0.37669000  1.0 -0.1098574371
C  C2086  1  0.94138000  0.12331000  0.76308000  1.0 -0.099272321
C  C2087  1  0.73692000  0.44138000  0.87669000  1.0 -0.0901758538
C  C2088  1  0.44138000  0.62669000  0.98692000  1.0 -0.099272321
C  C2089  1  0.76308000  0.87331000  0.80862000  1.0 -0.099272321
C  C2090  1  0.98692000  0.87669000  0.80862000  1.0 -0.0811988302
C  C2091  1  0.76308000  0.87669000  0.44138000  1.0 -0.0901758538
C  C2092  1  0.98692000  0.87331000  0.44138000  1.0 -0.0811988302
C  C2093  1  0.19138000  0.26308000  0.62669000  1.0 -0.099272321
C  C2094  1  0.37331000  0.69138000  0.23692000  1.0 -0.0901758538
C  C2095  1  0.55862000  0.48692000  0.62669000  1.0 -0.1098574371
C  C2096  1  0.37669000  0.69138000  0.01308000  1.0 -0.099272321
C  C2097  1  0.19138000  0.48692000  0.62331000  1.0 -0.099272321
C  C2098  1  0.37669000  0.05862000  0.23692000  1.0 -0.0901758538
C  C2099  1  0.55862000  0.26308000  0.62331000  1.0 -0.0901758538
C  C2100  1  0.37331000  0.05862000  0.01308000  1.0 -0.099272321
C  C2101  1  0.12669000  0.73692000  0.19138000  1.0 -0.099272321
C  C2102  1  0.12331000  0.01308000  0.69138000  1.0 -0.099272321
C  C2103  1  0.12331000  0.73692000  0.55862000  1.0 -0.0901758538
C  C2104  1  0.12669000  0.01308000  0.05862000  1.0 -0.099272321
C  C2105  1  0.23692000  0.30862000  0.87331000  1.0 -0.099272321
C  C2106  1  0.30862000  0.12669000  0.76308000  1.0 -0.099272321
C  C2107  1  0.51308000  0.44138000  0.87331000  1.0 -0.099272321
C  C2108  1  0.30862000  0.62331000  0.48692000  1.0 -0.0811988302
C  C2109  1  0.51308000  0.30862000  0.37669000  1.0 -0.0811988302
C  C2110  1  0.44138000  0.62331000  0.76308000  1.0 -0.099272321
C  C2111  1  0.23692000  0.94138000  0.87669000  1.0 -0.099272321
C  C2112  1  0.94138000  0.12669000  0.98692000  1.0 -0.1098574371
C  C2113  1  0.76308000  0.37331000  0.30862000  1.0 -0.0901758538
C  C2114  1  0.98692000  0.37669000  0.30862000  1.0 -0.099272321
C  C2115  1  0.76308000  0.37669000  0.94138000  1.0 -0.0901758538
C  C2116  1  0.98692000  0.37331000  0.94138000  1.0 -0.0703996179
C  C2117  1  0.19138000  0.76308000  0.12669000  1.0 -0.099272321
C  C2118  1  0.37331000  0.19138000  0.73692000  1.0 -0.099272321
C  C2119  1  0.55862000  0.98692000  0.12669000  1.0 -0.0811988302
C  C2120  1  0.37669000  0.19138000  0.51308000  1.0 -0.099272321
C  C2121  1  0.19138000  0.98692000  0.12331000  1.0 -0.0811988302
C  C2122  1  0.37669000  0.55862000  0.73692000  1.0 -0.099272321
C  C2123  1  0.55862000  0.76308000  0.12331000  1.0 -0.0901758538
C  C2124  1  0.37331000  0.55862000  0.51308000  1.0 -0.1098574371
C  C2125  1  0.12669000  0.23692000  0.69138000  1.0 -0.099272321
C  C2126  1  0.12331000  0.51308000  0.19138000  1.0 -0.099272321
C  C2127  1  0.12331000  0.23692000  0.05862000  1.0 -0.099272321
C  C2128  1  0.12669000  0.51308000  0.55862000  1.0 -0.099272321
C  C2129  1  0.23692000  0.80862000  0.37331000  1.0 -0.099272321
C  C2130  1  0.30862000  0.62669000  0.26308000  1.0 -0.099272321
C  C2131  1  0.51308000  0.94138000  0.37331000  1.0 -0.0901758538
C  C2132  1  0.30862000  0.12331000  0.98692000  1.0 -0.099272321
C  C2133  1  0.51308000  0.80862000  0.87669000  1.0 -0.099272321
C  C2134  1  0.44138000  0.12331000  0.26308000  1.0 -0.0901758538
C  C2135  1  0.23692000  0.44138000  0.37669000  1.0 -0.099272321
C  C2136  1  0.94138000  0.62669000  0.48692000  1.0 -0.0901758538
C  C2137  1  0.73692000  0.12669000  0.69138000  1.0 -0.099272321
C  C2138  1  0.01308000  0.62331000  0.69138000  1.0 -0.099272321
C  C2139  1  0.73692000  0.62331000  0.55862000  1.0 -0.099272321
C  C2140  1  0.01308000  0.12669000  0.55862000  1.0 -0.0901758538
C  C2141  1  0.30862000  0.73692000  0.87331000  1.0 -0.099272321
C  C2142  1  0.12669000  0.30862000  0.26308000  1.0 -0.099272321
C  C2143  1  0.44138000  0.01308000  0.87331000  1.0 -0.0901758538
C  C2144  1  0.62331000  0.30862000  0.98692000  1.0 -0.099272321
C  C2145  1  0.30862000  0.01308000  0.37669000  1.0 -0.099272321
C  C2146  1  0.62331000  0.44138000  0.26308000  1.0 -0.099272321
C  C2147  1  0.44138000  0.73692000  0.37669000  1.0 -0.0901758538
C  C2148  1  0.12669000  0.44138000  0.98692000  1.0 -0.0901758538
C  C2149  1  0.37331000  0.26308000  0.30862000  1.0 -0.0901758538
C  C2150  1  0.87669000  0.48692000  0.80862000  1.0 -0.099272321
C  C2151  1  0.87669000  0.26308000  0.44138000  1.0 -0.0901758538
C  C2152  1  0.37331000  0.48692000  0.94138000  1.0 -0.0901758538
C  C2153  1  0.26308000  0.69138000  0.62669000  1.0 -0.0901758538
C  C2154  1  0.19138000  0.87331000  0.73692000  1.0 -0.099272321
C  C2155  1  0.48692000  0.05862000  0.62669000  1.0 -0.0901758538
C  C2156  1  0.19138000  0.87669000  0.51308000  1.0 -0.099272321
C  C2157  1  0.48692000  0.69138000  0.62331000  1.0 -0.0901758538
C  C2158  1  0.55862000  0.87669000  0.73692000  1.0 -0.0901758538
C  C2159  1  0.26308000  0.55862000  0.12331000  1.0 -0.0901758538
C  C2160  1  0.05862000  0.87331000  0.01308000  1.0 -0.0901758538
C  C2161  1  0.73692000  0.62669000  0.19138000  1.0 -0.0901758538
C  C2162  1  0.01308000  0.62331000  0.19138000  1.0 -0.0703996179
C  C2163  1  0.01308000  0.62669000  0.55862000  1.0 -0.0811988302
C  C2164  1  0.30862000  0.23692000  0.37331000  1.0 -0.099272321
C  C2165  1  0.12669000  0.80862000  0.76308000  1.0 -0.0901758538
C  C2166  1  0.44138000  0.01308000  0.37331000  1.0 -0.0811988302
C  C2167  1  0.62331000  0.80862000  0.98692000  1.0 -0.0703996179
C  C2168  1  0.62331000  0.44138000  0.76308000  1.0 -0.0703996179
C  C2169  1  0.44138000  0.23692000  0.37669000  1.0 -0.0703996179
C  C2170  1  0.37331000  0.76308000  0.80862000  1.0 -0.099272321
C  C2171  1  0.87669000  0.48692000  0.30862000  1.0 -0.0703996179
C  C2172  1  0.87669000  0.76308000  0.94138000  1.0 -0.099272321
C  C2173  1  0.26308000  0.19138000  0.12669000  1.0 -0.099272321
C  C2174  1  0.19138000  0.37331000  0.23692000  1.0 -0.099272321
C  C2175  1  0.48692000  0.05862000  0.12669000  1.0 -0.0811988302
C  C2176  1  0.48692000  0.19138000  0.12331000  1.0 -0.099272321
C  C2177  1  0.55862000  0.87669000  0.23692000  1.0 -0.0589387266
C  C2178  1  0.26308000  0.05862000  0.12331000  1.0 -0.0703996179
C  C2179  1  0.05862000  0.37331000  0.51308000  1.0 -0.0901758538
C  C2180  1  0.23692000  0.12669000  0.19138000  1.0 -0.0901758538
C  C2181  1  0.23692000  0.62331000  0.55862000  1.0 -0.0703996179
C  C2182  1  0.80862000  0.73692000  0.37331000  1.0 -0.0901758538
C  C2183  1  0.62669000  0.30862000  0.76308000  1.0 -0.099272321
C  C2184  1  0.80862000  0.01308000  0.37669000  1.0 -0.0703996179
C  C2185  1  0.62669000  0.44138000  0.98692000  1.0 -0.0811988302
C  C2186  1  0.87331000  0.26308000  0.80862000  1.0 -0.099272321
C  C2187  1  0.87669000  0.26308000  0.94138000  1.0 -0.0703996179
C  C2188  1  0.87331000  0.48692000  0.94138000  1.0 -0.0703996179
C  C2189  1  0.76308000  0.69138000  0.12669000  1.0 -0.099272321
C  C2190  1  0.69138000  0.87331000  0.23692000  1.0 -0.099272321
C  C2191  1  0.69138000  0.87669000  0.51308000  1.0 -0.0703996179
C  C2192  1  0.48692000  0.69138000  0.12331000  1.0 -0.0703996179
C  C2193  1  0.05862000  0.87669000  0.23692000  1.0 -0.099272321
C  C2194  1  0.76308000  0.55862000  0.12331000  1.0 -0.0589387266
C  C2195  1  0.05862000  0.87331000  0.51308000  1.0 -0.0811988302
C  C2196  1  0.23692000  0.62669000  0.69138000  1.0 -0.099272321
C  C2197  1  0.80862000  0.23692000  0.87331000  1.0 -0.0901758538
C  C2198  1  0.62669000  0.80862000  0.26308000  1.0 -0.0901758538
C  C2199  1  0.87331000  0.76308000  0.30862000  1.0 -0.099272321
C  C2200  1  0.87669000  0.76308000  0.44138000  1.0 -0.0589387266
C  C2201  1  0.76308000  0.19138000  0.62669000  1.0 -0.099272321
C  C2202  1  0.69138000  0.37331000  0.73692000  1.0 -0.0901758538
C  C2203  1  0.48692000  0.19138000  0.62331000  1.0 -0.0703996179
C  C2204  1  0.05862000  0.87669000  0.73692000  1.0 -0.0703996179
C  C2205  1  0.76308000  0.05862000  0.12331000  1.0 -0.0901758538
C  C2206  1  0.05862000  0.37331000  0.01308000  1.0 -0.0703996179
O  O1  1  0.28307000  0.92348000  0.23132000  1.0 -0.5111323921
O  O2  1  0.46693000  0.82652000  0.23132000  1.0 -0.1603199685
O  O3  1  0.28307000  0.82652000  0.01868000  1.0 -0.5207821921
O  O4  1  0.46693000  0.92348000  0.01868000  1.0 -0.5207821921
O  O5  1  0.76868000  0.28307000  0.07652000  1.0 -0.5111323921
O  O6  1  0.92348000  0.76868000  0.71693000  1.0 -0.5111323921
O  O7  1  0.98132000  0.46693000  0.07652000  1.0 -0.5294587636
O  O8  1  0.82652000  0.76868000  0.53307000  1.0 -0.1603199685
O  O9  1  0.76868000  0.46693000  0.17348000  1.0 -0.1603199685
O  O10  1  0.82652000  0.98132000  0.71693000  1.0 -0.5207821921
O  O11  1  0.98132000  0.28307000  0.17348000  1.0 -0.5207821921
O  O12  1  0.92348000  0.98132000  0.53307000  1.0 -0.5207821921
O  O13  1  0.57652000  0.71693000  0.76868000  1.0 -0.5207821921
O  O14  1  0.67348000  0.03307000  0.26868000  1.0 -0.5111323921
O  O15  1  0.67348000  0.71693000  0.98132000  1.0 -0.1490047755
O  O16  1  0.57652000  0.03307000  0.48132000  1.0 -0.5207821921
O  O17  1  0.71693000  0.23132000  0.42348000  1.0 -0.5111323921
O  O18  1  0.73132000  0.07652000  0.28307000  1.0 -0.4989488424
O  O19  1  0.03307000  0.51868000  0.42348000  1.0 -0.5207821921
O  O20  1  0.73132000  0.67348000  0.96693000  1.0 -0.5111323921
O  O21  1  0.03307000  0.23132000  0.82652000  1.0 -0.5111323921
O  O22  1  0.01868000  0.67348000  0.28307000  1.0 -0.1490047755
O  O23  1  0.71693000  0.01868000  0.32652000  1.0 -0.1490047755
O  O24  1  0.51868000  0.07652000  0.46693000  1.0 -0.4989488424
O  O25  1  0.28307000  0.42348000  0.73132000  1.0 -0.5111323921
O  O26  1  0.46693000  0.32652000  0.73132000  1.0 -0.4989488424
O  O27  1  0.28307000  0.32652000  0.51868000  1.0 -0.5207821921
O  O28  1  0.46693000  0.42348000  0.51868000  1.0 -0.5207821921
O  O29  1  0.76868000  0.78307000  0.57652000  1.0 -0.5207821921
O  O30  1  0.92348000  0.26868000  0.21693000  1.0 -0.5111323921
O  O31  1  0.98132000  0.96693000  0.57652000  1.0 -0.4989488424
O  O32  1  0.82652000  0.26868000  0.03307000  1.0 -0.1490047755
O  O33  1  0.76868000  0.96693000  0.67348000  1.0 -0.5111323921
O  O34  1  0.82652000  0.48132000  0.21693000  1.0 -0.1701050413
O  O35  1  0.98132000  0.78307000  0.67348000  1.0 -0.5111323921
O  O36  1  0.92348000  0.48132000  0.03307000  1.0 -0.1603199685
O  O37  1  0.57652000  0.21693000  0.26868000  1.0 -0.5111323921
O  O38  1  0.67348000  0.53307000  0.76868000  1.0 -0.1490047755
O  O39  1  0.67348000  0.21693000  0.48132000  1.0 -0.5207821921
O  O40  1  0.57652000  0.53307000  0.98132000  1.0 -0.1603199685
O  O41  1  0.71693000  0.73132000  0.92348000  1.0 -0.4989488424
O  O42  1  0.73132000  0.57652000  0.78307000  1.0 -0.5111323921
O  O43  1  0.03307000  0.01868000  0.92348000  1.0 -0.5207821921
O  O44  1  0.73132000  0.17348000  0.46693000  1.0 -0.5207821921
O  O45  1  0.03307000  0.73132000  0.32652000  1.0 -0.5111323921
O  O46  1  0.01868000  0.17348000  0.78307000  1.0 -0.5207821921
O  O47  1  0.71693000  0.51868000  0.82652000  1.0 -0.5111323921
O  O48  1  0.51868000  0.57652000  0.96693000  1.0 -0.5207821921
O  O49  1  0.78307000  0.92348000  0.73132000  1.0 -0.5111323921
O  O50  1  0.96693000  0.82652000  0.73132000  1.0 -0.1490047755
O  O51  1  0.78307000  0.82652000  0.51868000  1.0 -0.1701050413
O  O52  1  0.96693000  0.92348000  0.51868000  1.0 -0.1603199685
O  O53  1  0.26868000  0.28307000  0.57652000  1.0 -0.5111323921
O  O54  1  0.42348000  0.76868000  0.21693000  1.0 -0.5207821921
O  O55  1  0.48132000  0.46693000  0.57652000  1.0 -0.5207821921
O  O56  1  0.32652000  0.76868000  0.03307000  1.0 -0.5111323921
O  O57  1  0.26868000  0.46693000  0.67348000  1.0 -0.5111323921
O  O58  1  0.32652000  0.98132000  0.21693000  1.0 -0.5111323921
O  O59  1  0.48132000  0.28307000  0.67348000  1.0 -0.1490047755
O  O60  1  0.42348000  0.98132000  0.03307000  1.0 -0.4989488424
O  O61  1  0.07652000  0.71693000  0.26868000  1.0 -0.4989488424
O  O62  1  0.17348000  0.03307000  0.76868000  1.0 -0.5111323921
O  O63  1  0.17348000  0.71693000  0.48132000  1.0 -0.5111323921
O  O64  1  0.07652000  0.03307000  0.98132000  1.0 -0.5111323921
O  O65  1  0.21693000  0.23132000  0.92348000  1.0 -0.5111323921
O  O66  1  0.23132000  0.07652000  0.78307000  1.0 -0.5111323921
O  O67  1  0.53307000  0.51868000  0.92348000  1.0 -0.4989488424
O  O68  1  0.23132000  0.67348000  0.46693000  1.0 -0.1490047755
O  O69  1  0.53307000  0.23132000  0.32652000  1.0 -0.1490047755
O  O70  1  0.51868000  0.67348000  0.78307000  1.0 -0.5207821921
O  O71  1  0.21693000  0.01868000  0.82652000  1.0 -0.5207821921
O  O72  1  0.01868000  0.07652000  0.96693000  1.0 -0.5111323921
O  O73  1  0.78307000  0.42348000  0.23132000  1.0 -0.5207821921
O  O74  1  0.96693000  0.32652000  0.23132000  1.0 -0.5111323921
O  O75  1  0.78307000  0.32652000  0.01868000  1.0 -0.5111323921
O  O76  1  0.96693000  0.42348000  0.01868000  1.0 -0.1603199685
O  O77  1  0.26868000  0.78307000  0.07652000  1.0 -0.5111323921
O  O78  1  0.42348000  0.26868000  0.71693000  1.0 -0.5111323921
O  O79  1  0.48132000  0.96693000  0.07652000  1.0 -0.1603199685
O  O80  1  0.32652000  0.26868000  0.53307000  1.0 -0.5111323921
O  O81  1  0.26868000  0.96693000  0.17348000  1.0 -0.1490047755
O  O82  1  0.32652000  0.48132000  0.71693000  1.0 -0.5207821921
O  O83  1  0.48132000  0.78307000  0.17348000  1.0 -0.1701050413
O  O84  1  0.42348000  0.48132000  0.53307000  1.0 -0.5207821921
O  O85  1  0.07652000  0.21693000  0.76868000  1.0 -0.5111323921
O  O86  1  0.17348000  0.53307000  0.26868000  1.0 -0.5207821921
O  O87  1  0.17348000  0.21693000  0.98132000  1.0 -0.5207821921
O  O88  1  0.07652000  0.53307000  0.48132000  1.0 -0.4989488424
O  O89  1  0.21693000  0.73132000  0.42348000  1.0 -0.5111323921
O  O90  1  0.23132000  0.57652000  0.28307000  1.0 -0.5111323921
O  O91  1  0.53307000  0.01868000  0.42348000  1.0 -0.1603199685
O  O92  1  0.23132000  0.17348000  0.96693000  1.0 -0.5111323921
O  O93  1  0.53307000  0.73132000  0.82652000  1.0 -0.5207821921
O  O94  1  0.51868000  0.17348000  0.28307000  1.0 -0.5111323921
O  O95  1  0.21693000  0.51868000  0.32652000  1.0 -0.5207821921
O  O96  1  0.01868000  0.57652000  0.46693000  1.0 -0.1603199685
O  O97  1  0.71693000  0.07652000  0.76868000  1.0 -0.571981782
O  O98  1  0.03307000  0.67348000  0.76868000  1.0 -0.5207821921
O  O99  1  0.71693000  0.67348000  0.48132000  1.0 -0.5294587636
O  O100  1  0.03307000  0.07652000  0.48132000  1.0 -0.5502588801
O  O101  1  0.23132000  0.71693000  0.92348000  1.0 -0.5609917242
O  O102  1  0.07652000  0.23132000  0.28307000  1.0 -0.5609917242
O  O103  1  0.51868000  0.03307000  0.92348000  1.0 -0.5502588801
O  O104  1  0.67348000  0.23132000  0.96693000  1.0 -0.5294587636
O  O105  1  0.23132000  0.03307000  0.32652000  1.0 -0.5207821921
O  O106  1  0.67348000  0.51868000  0.28307000  1.0 -0.5294587636
O  O107  1  0.51868000  0.71693000  0.32652000  1.0 -0.5294587636
O  O108  1  0.07652000  0.51868000  0.96693000  1.0 -0.5447902949
O  O109  1  0.42348000  0.28307000  0.23132000  1.0 -0.5294587636
O  O110  1  0.82652000  0.46693000  0.73132000  1.0 -0.5207821921
O  O111  1  0.82652000  0.28307000  0.51868000  1.0 -0.5294587636
O  O112  1  0.42348000  0.46693000  0.01868000  1.0 -0.5502588801
O  O113  1  0.28307000  0.76868000  0.57652000  1.0 -0.5294587636
O  O114  1  0.26868000  0.92348000  0.71693000  1.0 -0.5609917242
O  O115  1  0.46693000  0.98132000  0.57652000  1.0 -0.5502588801
O  O116  1  0.26868000  0.82652000  0.53307000  1.0 -0.5207821921
O  O117  1  0.46693000  0.76868000  0.67348000  1.0 -0.5111323921
O  O118  1  0.48132000  0.82652000  0.71693000  1.0 -0.5111323921
O  O119  1  0.28307000  0.48132000  0.17348000  1.0 -0.5294587636
O  O120  1  0.98132000  0.92348000  0.03307000  1.0 -0.5609917242
O  O121  1  0.71693000  0.57652000  0.26868000  1.0 -0.5207821921
O  O122  1  0.03307000  0.67348000  0.26868000  1.0 -0.1490047755
O  O123  1  0.03307000  0.57652000  0.48132000  1.0 -0.1603199685
O  O124  1  0.23132000  0.21693000  0.42348000  1.0 -0.5609917242
O  O125  1  0.07652000  0.73132000  0.78307000  1.0 -0.5294587636
O  O126  1  0.51868000  0.03307000  0.42348000  1.0 -0.1603199685
O  O127  1  0.67348000  0.73132000  0.96693000  1.0 -0.1490047755
O  O128  1  0.67348000  0.51868000  0.78307000  1.0 -0.1603199685
O  O129  1  0.51868000  0.21693000  0.32652000  1.0 -0.1603199685
O  O130  1  0.42348000  0.78307000  0.73132000  1.0 -0.5111323921
O  O131  1  0.82652000  0.46693000  0.23132000  1.0 -0.1490047755
O  O132  1  0.82652000  0.78307000  0.01868000  1.0 -0.5294587636
O  O133  1  0.28307000  0.26868000  0.07652000  1.0 -0.5609917242
O  O134  1  0.26868000  0.42348000  0.21693000  1.0 -0.5207821921
O  O135  1  0.46693000  0.98132000  0.07652000  1.0 -0.1701050413
O  O136  1  0.46693000  0.26868000  0.17348000  1.0 -0.5207821921
O  O137  1  0.48132000  0.82652000  0.21693000  1.0 -0.1701050413
O  O138  1  0.28307000  0.98132000  0.17348000  1.0 -0.1603199685
O  O139  1  0.98132000  0.42348000  0.53307000  1.0 -0.5502588801
O  O140  1  0.21693000  0.07652000  0.26868000  1.0 -0.5294587636
O  O141  1  0.21693000  0.67348000  0.48132000  1.0 -0.1490047755
O  O142  1  0.73132000  0.71693000  0.42348000  1.0 -0.5207821921
O  O143  1  0.57652000  0.23132000  0.78307000  1.0 -0.5502588801
O  O144  1  0.73132000  0.03307000  0.32652000  1.0 -0.1490047755
O  O145  1  0.57652000  0.51868000  0.96693000  1.0 -0.1603199685
O  O146  1  0.92348000  0.28307000  0.73132000  1.0 -0.5609917242
O  O147  1  0.82652000  0.28307000  0.01868000  1.0 -0.1603199685
O  O148  1  0.92348000  0.46693000  0.01868000  1.0 -0.179768593
O  O149  1  0.78307000  0.76868000  0.07652000  1.0 -0.5207821921
O  O150  1  0.76868000  0.92348000  0.21693000  1.0 -0.5207821921
O  O151  1  0.76868000  0.82652000  0.53307000  1.0 -0.1402187775
O  O152  1  0.46693000  0.76868000  0.17348000  1.0 -0.1402187775
O  O153  1  0.98132000  0.82652000  0.21693000  1.0 -0.5294587636
O  O154  1  0.78307000  0.48132000  0.17348000  1.0 -0.1701050413
O  O155  1  0.98132000  0.92348000  0.53307000  1.0 -0.1701050413
O  O156  1  0.21693000  0.57652000  0.76868000  1.0 -0.5609917242
O  O157  1  0.73132000  0.21693000  0.92348000  1.0 -0.5294587636
O  O158  1  0.57652000  0.73132000  0.28307000  1.0 -0.5207821921
O  O159  1  0.92348000  0.78307000  0.23132000  1.0 -0.5207821921
O  O160  1  0.82652000  0.78307000  0.51868000  1.0 -0.1701050413
O  O161  1  0.78307000  0.26868000  0.57652000  1.0 -0.5207821921
O  O162  1  0.76868000  0.42348000  0.71693000  1.0 -0.5294587636
O  O163  1  0.46693000  0.26868000  0.67348000  1.0 -0.1490047755
O  O164  1  0.98132000  0.82652000  0.71693000  1.0 -0.1603199685
O  O165  1  0.78307000  0.98132000  0.17348000  1.0 -0.5294587636
O  O166  1  0.98132000  0.42348000  0.03307000  1.0 -0.1402187775
O  O167  1  0.24416000  0.95430000  0.24004000  1.0 -0.5609917242
O  O168  1  0.50584000  0.79570000  0.24004000  1.0 -0.1212670469
O  O169  1  0.24416000  0.79570000  0.00996000  1.0 -0.5502588801
O  O170  1  0.50584000  0.95430000  0.00996000  1.0 -0.5502588801
O  O171  1  0.75996000  0.24416000  0.04570000  1.0 -0.5609917242
O  O172  1  0.95430000  0.75996000  0.75584000  1.0 -0.5609917242
O  O173  1  0.99004000  0.50584000  0.04570000  1.0 -0.571981782
O  O174  1  0.79570000  0.75996000  0.49416000  1.0 -0.1212670469
O  O175  1  0.75996000  0.50584000  0.20430000  1.0 -0.1212670469
O  O176  1  0.79570000  0.99004000  0.75584000  1.0 -0.5502588801
O  O177  1  0.99004000  0.24416000  0.20430000  1.0 -0.5502588801
O  O178  1  0.95430000  0.99004000  0.49416000  1.0 -0.5502588801
O  O179  1  0.54570000  0.75584000  0.75996000  1.0 -0.5609917242
O  O180  1  0.70430000  0.99416000  0.25996000  1.0 -0.571981782
O  O181  1  0.70430000  0.75584000  0.99004000  1.0 -0.099272321
O  O182  1  0.54570000  0.99416000  0.49004000  1.0 -0.5502588801
O  O183  1  0.75584000  0.24004000  0.45430000  1.0 -0.571981782
O  O184  1  0.74004000  0.04570000  0.24416000  1.0 -0.571981782
O  O185  1  0.99416000  0.50996000  0.45430000  1.0 -0.5502588801
O  O186  1  0.74004000  0.70430000  0.00584000  1.0 -0.571981782
O  O187  1  0.99416000  0.24004000  0.79570000  1.0 -0.571981782
O  O188  1  0.00996000  0.70430000  0.24416000  1.0 -0.099272321
O  O189  1  0.75584000  0.00996000  0.29570000  1.0 -0.099272321
O  O190  1  0.50996000  0.04570000  0.50584000  1.0 -0.5609917242
O  O191  1  0.24416000  0.45430000  0.74004000  1.0 -0.571981782
O  O192  1  0.50584000  0.29570000  0.74004000  1.0 -0.5903179269
O  O193  1  0.24416000  0.29570000  0.50996000  1.0 -0.5502588801
O  O194  1  0.50584000  0.45430000  0.50996000  1.0 -0.5609917242
O  O195  1  0.75996000  0.74416000  0.54570000  1.0 -0.5992554636
O  O196  1  0.95430000  0.25996000  0.25584000  1.0 -0.571981782
O  O197  1  0.99004000  0.00584000  0.54570000  1.0 -0.5609917242
O  O198  1  0.79570000  0.25996000  0.99416000  1.0 -0.1212670469
O  O199  1  0.75996000  0.00584000  0.70430000  1.0 -0.571981782
O  O200  1  0.79570000  0.49004000  0.25584000  1.0 -0.1212670469
O  O201  1  0.99004000  0.74416000  0.70430000  1.0 -0.5502588801
O  O202  1  0.95430000  0.49004000  0.99416000  1.0 -0.1490047755
O  O203  1  0.54570000  0.25584000  0.25996000  1.0 -0.5609917242
O  O204  1  0.70430000  0.49416000  0.75996000  1.0 -0.1212670469
O  O205  1  0.70430000  0.25584000  0.49004000  1.0 -0.5609917242
O  O206  1  0.54570000  0.49416000  0.99004000  1.0 -0.1490047755
O  O207  1  0.75584000  0.74004000  0.95430000  1.0 -0.5812895219
O  O208  1  0.74004000  0.54570000  0.74416000  1.0 -0.5609917242
O  O209  1  0.99416000  0.00996000  0.95430000  1.0 -0.5447902949
O  O210  1  0.74004000  0.20430000  0.50584000  1.0 -0.5609917242
O  O211  1  0.99416000  0.74004000  0.29570000  1.0 -0.571981782
O  O212  1  0.00996000  0.20430000  0.74416000  1.0 -0.5447902949
O  O213  1  0.75584000  0.50996000  0.79570000  1.0 -0.5502588801
O  O214  1  0.50996000  0.54570000  0.00584000  1.0 -0.5502588801
O  O215  1  0.74416000  0.95430000  0.74004000  1.0 -0.571981782
O  O216  1  0.00584000  0.79570000  0.74004000  1.0 -0.1098574371
O  O217  1  0.74416000  0.79570000  0.50996000  1.0 -0.1212670469
O  O218  1  0.00584000  0.95430000  0.50996000  1.0 -0.1490047755
O  O219  1  0.25996000  0.24416000  0.54570000  1.0 -0.571981782
O  O220  1  0.45430000  0.75996000  0.25584000  1.0 -0.5992554636
O  O221  1  0.49004000  0.50584000  0.54570000  1.0 -0.5609917242
O  O222  1  0.29570000  0.75996000  0.99416000  1.0 -0.571981782
O  O223  1  0.25996000  0.50584000  0.70430000  1.0 -0.571981782
O  O224  1  0.29570000  0.99004000  0.25584000  1.0 -0.5502588801
O  O225  1  0.49004000  0.24416000  0.70430000  1.0 -0.099272321
O  O226  1  0.45430000  0.99004000  0.99416000  1.0 -0.571981782
O  O227  1  0.04570000  0.75584000  0.25996000  1.0 -0.5812895219
O  O228  1  0.20430000  0.99416000  0.75996000  1.0 -0.571981782
O  O229  1  0.20430000  0.75584000  0.49004000  1.0 -0.5502588801
O  O230  1  0.04570000  0.99416000  0.99004000  1.0 -0.571981782
O  O231  1  0.25584000  0.24004000  0.95430000  1.0 -0.571981782
O  O232  1  0.24004000  0.04570000  0.74416000  1.0 -0.571981782
O  O233  1  0.49416000  0.50996000  0.95430000  1.0 -0.5609917242
O  O234  1  0.24004000  0.70430000  0.50584000  1.0 -0.1098574371
O  O235  1  0.49416000  0.24004000  0.29570000  1.0 -0.1212670469
O  O236  1  0.50996000  0.70430000  0.74416000  1.0 -0.5609917242
O  O237  1  0.25584000  0.00996000  0.79570000  1.0 -0.5447902949
O  O238  1  0.00996000  0.04570000  0.00584000  1.0 -0.571981782
O  O239  1  0.74416000  0.45430000  0.24004000  1.0 -0.5992554636
O  O240  1  0.00584000  0.29570000  0.24004000  1.0 -0.571981782
O  O241  1  0.74416000  0.29570000  0.00996000  1.0 -0.5502588801
O  O242  1  0.00584000  0.45430000  0.00996000  1.0 -0.1212670469
O  O243  1  0.25996000  0.74416000  0.04570000  1.0 -0.571981782
O  O244  1  0.45430000  0.25996000  0.75584000  1.0 -0.571981782
O  O245  1  0.49004000  0.00584000  0.04570000  1.0 -0.1490047755
O  O246  1  0.29570000  0.25996000  0.49416000  1.0 -0.571981782
O  O247  1  0.25996000  0.00584000  0.20430000  1.0 -0.1212670469
O  O248  1  0.29570000  0.49004000  0.75584000  1.0 -0.5502588801
O  O249  1  0.49004000  0.74416000  0.20430000  1.0 -0.1212670469
O  O250  1  0.45430000  0.49004000  0.49416000  1.0 -0.5609917242
O  O251  1  0.04570000  0.25584000  0.75996000  1.0 -0.571981782
O  O252  1  0.20430000  0.49416000  0.25996000  1.0 -0.5609917242
O  O253  1  0.20430000  0.25584000  0.99004000  1.0 -0.5447902949
O  O254  1  0.04570000  0.49416000  0.49004000  1.0 -0.5609917242
O  O255  1  0.25584000  0.74004000  0.45430000  1.0 -0.5609917242
O  O256  1  0.24004000  0.54570000  0.24416000  1.0 -0.571981782
O  O257  1  0.49416000  0.00996000  0.45430000  1.0 -0.1490047755
O  O258  1  0.24004000  0.20430000  0.00584000  1.0 -0.571981782
O  O259  1  0.49416000  0.74004000  0.79570000  1.0 -0.5609917242
O  O260  1  0.50996000  0.20430000  0.24416000  1.0 -0.5502588801
O  O261  1  0.25584000  0.50996000  0.29570000  1.0 -0.5609917242
O  O262  1  0.00996000  0.54570000  0.50584000  1.0 -0.1490047755
O  O263  1  0.75584000  0.04570000  0.75996000  1.0 -0.5903179269
O  O264  1  0.99416000  0.70430000  0.75996000  1.0 -0.571981782
O  O265  1  0.75584000  0.70430000  0.49004000  1.0 -0.571981782
O  O266  1  0.99416000  0.04570000  0.49004000  1.0 -0.5812895219
O  O267  1  0.24004000  0.75584000  0.95430000  1.0 -0.5903179269
O  O268  1  0.04570000  0.24004000  0.24416000  1.0 -0.5903179269
O  O269  1  0.50996000  0.99416000  0.95430000  1.0 -0.5812895219
O  O270  1  0.70430000  0.24004000  0.00584000  1.0 -0.571981782
O  O271  1  0.24004000  0.99416000  0.29570000  1.0 -0.571981782
O  O272  1  0.70430000  0.50996000  0.24416000  1.0 -0.571981782
O  O273  1  0.50996000  0.75584000  0.29570000  1.0 -0.571981782
O  O274  1  0.04570000  0.50996000  0.00584000  1.0 -0.5812895219
O  O275  1  0.45430000  0.24416000  0.24004000  1.0 -0.571981782
O  O276  1  0.79570000  0.50584000  0.74004000  1.0 -0.571981782
O  O277  1  0.79570000  0.24416000  0.50996000  1.0 -0.571981782
O  O278  1  0.45430000  0.50584000  0.00996000  1.0 -0.5812895219
O  O279  1  0.24416000  0.75996000  0.54570000  1.0 -0.571981782
O  O280  1  0.25996000  0.95430000  0.75584000  1.0 -0.5903179269
O  O281  1  0.50584000  0.99004000  0.54570000  1.0 -0.5812895219
O  O282  1  0.25996000  0.79570000  0.49416000  1.0 -0.571981782
O  O283  1  0.50584000  0.75996000  0.70430000  1.0 -0.5609917242
O  O284  1  0.49004000  0.79570000  0.75584000  1.0 -0.5609917242
O  O285  1  0.24416000  0.49004000  0.20430000  1.0 -0.571981782
O  O286  1  0.99004000  0.95430000  0.99416000  1.0 -0.5903179269
O  O287  1  0.75584000  0.54570000  0.25996000  1.0 -0.571981782
O  O288  1  0.99416000  0.70430000  0.25996000  1.0 -0.099272321
O  O289  1  0.99416000  0.54570000  0.49004000  1.0 -0.1402187775
O  O290  1  0.24004000  0.25584000  0.45430000  1.0 -0.5903179269
O  O291  1  0.04570000  0.74004000  0.74416000  1.0 -0.571981782
O  O292  1  0.50996000  0.99416000  0.45430000  1.0 -0.1402187775
O  O293  1  0.70430000  0.74004000  0.00584000  1.0 -0.099272321
O  O294  1  0.70430000  0.50996000  0.74416000  1.0 -0.1098574371
O  O295  1  0.50996000  0.25584000  0.29570000  1.0 -0.1212670469
O  O296  1  0.45430000  0.74416000  0.74004000  1.0 -0.5609917242
O  O297  1  0.79570000  0.50584000  0.24004000  1.0 -0.1299130984
O  O298  1  0.79570000  0.74416000  0.00996000  1.0 -0.571981782
O  O299  1  0.24416000  0.25996000  0.04570000  1.0 -0.5903179269
O  O300  1  0.25996000  0.45430000  0.25584000  1.0 -0.571981782
O  O301  1  0.50584000  0.99004000  0.04570000  1.0 -0.1402187775
O  O302  1  0.50584000  0.25996000  0.20430000  1.0 -0.571981782
O  O303  1  0.49004000  0.79570000  0.25584000  1.0 -0.0901758538
O  O304  1  0.24416000  0.99004000  0.20430000  1.0 -0.1212670469
O  O305  1  0.99004000  0.45430000  0.49416000  1.0 -0.5812895219
O  O306  1  0.25584000  0.04570000  0.25996000  1.0 -0.571981782
O  O307  1  0.25584000  0.70430000  0.49004000  1.0 -0.1212670469
O  O308  1  0.74004000  0.75584000  0.45430000  1.0 -0.571981782
O  O309  1  0.54570000  0.24004000  0.74416000  1.0 -0.5903179269
O  O310  1  0.74004000  0.99416000  0.29570000  1.0 -0.099272321
O  O311  1  0.54570000  0.50996000  0.00584000  1.0 -0.1402187775
O  O312  1  0.95430000  0.24416000  0.74004000  1.0 -0.5903179269
O  O313  1  0.79570000  0.24416000  0.00996000  1.0 -0.1212670469
O  O314  1  0.95430000  0.50584000  0.00996000  1.0 -0.1299130984
O  O315  1  0.74416000  0.75996000  0.04570000  1.0 -0.5812895219
O  O316  1  0.75996000  0.95430000  0.25584000  1.0 -0.5812895219
O  O317  1  0.75996000  0.79570000  0.49416000  1.0 -0.1299130984
O  O318  1  0.50584000  0.75996000  0.20430000  1.0 -0.1299130984
O  O319  1  0.99004000  0.79570000  0.25584000  1.0 -0.571981782
O  O320  1  0.74416000  0.49004000  0.20430000  1.0 -0.0901758538
O  O321  1  0.99004000  0.95430000  0.49416000  1.0 -0.1402187775
O  O322  1  0.25584000  0.54570000  0.75996000  1.0 -0.5903179269
O  O323  1  0.74004000  0.25584000  0.95430000  1.0 -0.571981782
O  O324  1  0.54570000  0.74004000  0.24416000  1.0 -0.571981782
O  O325  1  0.95430000  0.74416000  0.24004000  1.0 -0.5812895219
O  O326  1  0.79570000  0.74416000  0.50996000  1.0 -0.0901758538
O  O327  1  0.74416000  0.25996000  0.54570000  1.0 -0.571981782
O  O328  1  0.75996000  0.45430000  0.75584000  1.0 -0.571981782
O  O329  1  0.50584000  0.25996000  0.70430000  1.0 -0.0901758538
O  O330  1  0.99004000  0.79570000  0.75584000  1.0 -0.1212670469
O  O331  1  0.74416000  0.99004000  0.20430000  1.0 -0.571981782
O  O332  1  0.99004000  0.45430000  0.99416000  1.0 -0.1490047755
O  O333  1  0.32449000  0.92551000  0.17551000  1.0 -0.4926113338
O  O334  1  0.42551000  0.82449000  0.17551000  1.0 -0.4136979849
O  O335  1  0.32449000  0.82449000  0.07449000  1.0 -0.5992554636
O  O336  1  0.42551000  0.92551000  0.07449000  1.0 -0.4571759136
O  O337  1  0.82449000  0.32449000  0.07449000  1.0 -0.4926113338
O  O338  1  0.92551000  0.82449000  0.67551000  1.0 -0.4926113338
O  O339  1  0.92551000  0.42551000  0.07449000  1.0 -0.3814392061
O  O340  1  0.82449000  0.82449000  0.57449000  1.0 -0.4136979849
O  O341  1  0.82449000  0.42551000  0.17551000  1.0 -0.4136979849
O  O342  1  0.82449000  0.92551000  0.67551000  1.0 -0.5992554636
O  O343  1  0.92551000  0.32449000  0.17551000  1.0 -0.5992554636
O  O344  1  0.92551000  0.92551000  0.57449000  1.0 -0.4571759136
O  O345  1  0.57449000  0.67551000  0.82449000  1.0 -0.5294587636
O  O346  1  0.67551000  0.07449000  0.32449000  1.0 -0.5111323921
O  O347  1  0.67551000  0.67551000  0.92551000  1.0 -0.5111323921
O  O348  1  0.57449000  0.07449000  0.42551000  1.0 -0.4571759136
O  O349  1  0.67551000  0.17551000  0.42551000  1.0 -0.5609917242
O  O350  1  0.07449000  0.57449000  0.42551000  1.0 -0.4571759136
O  O351  1  0.07449000  0.17551000  0.82449000  1.0 -0.5992554636
O  O352  1  0.07449000  0.67551000  0.32449000  1.0 -0.5111323921
O  O353  1  0.32449000  0.42551000  0.67551000  1.0 -0.5903179269
O  O354  1  0.42551000  0.32449000  0.67551000  1.0 -0.4775943727
O  O355  1  0.32449000  0.32449000  0.57449000  1.0 -0.5992554636
O  O356  1  0.42551000  0.42551000  0.57449000  1.0 -0.677255419
O  O357  1  0.57449000  0.17551000  0.32449000  1.0 -0.4926113338
O  O358  1  0.67551000  0.57449000  0.82449000  1.0 -0.4989488424
O  O359  1  0.57449000  0.57449000  0.92551000  1.0 -0.4571759136
O  O360  1  0.07449000  0.07449000  0.92551000  1.0 -0.6217988403
O  O361  1  0.17551000  0.07449000  0.82449000  1.0 -0.5992554636
O  O362  1  0.17551000  0.67551000  0.42551000  1.0 -0.4926113338
O  O363  1  0.17551000  0.17551000  0.92551000  1.0 -0.5992554636
O  O364  1  0.17551000  0.57449000  0.32449000  1.0 -0.5609917242
O  O365  1  0.67551000  0.07449000  0.82449000  1.0 -1.1086968453
O  O366  1  0.07449000  0.67551000  0.82449000  1.0 -0.8612458528
O  O367  1  0.67551000  0.67551000  0.42551000  1.0 -0.9025258691
O  O368  1  0.07449000  0.07449000  0.42551000  1.0 -1.0711410116
O  O369  1  0.17551000  0.67551000  0.92551000  1.0 -1.1001390786
O  O370  1  0.07449000  0.17551000  0.32449000  1.0 -1.1001390786
O  O371  1  0.57449000  0.07449000  0.92551000  1.0 -1.0711410116
O  O372  1  0.67551000  0.17551000  0.92551000  1.0 -0.8612458528
O  O373  1  0.17551000  0.07449000  0.32449000  1.0 -0.8612458528
O  O374  1  0.67551000  0.57449000  0.32449000  1.0 -0.9025258691
O  O375  1  0.57449000  0.67551000  0.32449000  1.0 -0.9025258691
O  O376  1  0.07449000  0.57449000  0.92551000  1.0 -1.0370949776
O  O377  1  0.42551000  0.32449000  0.17551000  1.0 -0.8612458528
O  O378  1  0.82449000  0.42551000  0.67551000  1.0 -0.8612458528
O  O379  1  0.82449000  0.32449000  0.57449000  1.0 -0.8506520659
O  O380  1  0.42551000  0.42551000  0.07449000  1.0 -1.0711410116
O  O381  1  0.32449000  0.82449000  0.57449000  1.0 -0.8612458528
O  O382  1  0.32449000  0.92551000  0.67551000  1.0 -1.1001390786
O  O383  1  0.42551000  0.92551000  0.57449000  1.0 -1.0711410116
O  O384  1  0.42551000  0.82449000  0.67551000  1.0 -0.5812895219
O  O385  1  0.32449000  0.42551000  0.17551000  1.0 -0.8506520659
O  O386  1  0.92551000  0.92551000  0.07449000  1.0 -1.1001390786
O  O387  1  0.17551000  0.17551000  0.42551000  1.0 -1.1001390786
O  O388  1  0.82449000  0.82449000  0.07449000  1.0 -0.8612458528
O  O389  1  0.32449000  0.32449000  0.07449000  1.0 -1.1001390786
O  O390  1  0.92551000  0.42551000  0.57449000  1.0 -1.0711410116
O  O391  1  0.57449000  0.17551000  0.82449000  1.0 -1.0711410116
O  O392  1  0.92551000  0.32449000  0.67551000  1.0 -1.1001390786
O  O393  1  0.82449000  0.92551000  0.17551000  1.0 -0.8655493529
O  O394  1  0.92551000  0.82449000  0.17551000  1.0 -0.8612458528
O  O395  1  0.17551000  0.57449000  0.82449000  1.0 -1.1001390786
