# DDEC6 charges by PACMAN v1.1 (https://github.com/mtap-research/PACMAN-charge/)
data_ja7b02272_si_013_FSR_pacman
_symmetry_space_group_name_H-M   'P 1'
_cell_length_a   29.15700000
_cell_length_b   29.15700000
_cell_length_c   69.95500000
_cell_angle_alpha   90.00000000
_cell_angle_beta   90.00000000
_cell_angle_gamma   90.00000000
_symmetry_Int_Tables_number   1
_chemical_formula_structural   Zn13H74C195(BrN4)13
_chemical_formula_sum   'Zn104 H592 C1560 Br104 N416'
_cell_volume   59470.88955079
_cell_formula_units_Z   8
loop_
 _symmetry_equiv_pos_site_id
 _symmetry_equiv_pos_as_xyz
  1  'x, y, z'
loop_
 _atom_site_type_symbol
 _atom_site_label
 _atom_site_symmetry_multiplicity
 _atom_site_fract_x
 _atom_site_fract_y
 _atom_site_fract_z
 _atom_site_occupancy
 _atom_site_charge
Zn  Zn1  1  0.41647000  0.72559000  0.59283000  1.0 0.6604089798
Zn  Zn2  1  0.33006000  0.65365000  0.52392000  1.0 0.6604089798
Zn  Zn3  1  0.36088000  0.53287000  0.58844000  1.0 0.6604089798
Zn  Zn4  1  0.70008000  0.58580000  0.36491000  1.0 0.6604089798
Zn  Zn5  1  0.63544000  0.77298000  0.35337000  1.0 0.6604089798
Zn  Zn6  1  0.45416000  0.73226000  0.38366000  1.0 0.6698923917
Zn  Zn7  1  0.50766000  0.53823000  0.37501000  1.0 0.6604089798
Zn  Zn8  1  0.33120000  0.72658000  0.44764000  1.0 0.6604089798
Zn  Zn9  1  0.12448000  0.80630000  0.38429000  1.0 0.6604089798
Zn  Zn10  1  0.72437000  0.67140000  0.29151000  1.0 0.6698923917
Zn  Zn11  1  0.26729000  0.66710000  0.37190000  1.0 0.6604089798
Zn  Zn12  1  0.17153000  0.84441000  0.46448000  1.0 0.6698923917
Zn  Zn13  1  0.32940000  0.49288000  0.34027000  1.0 0.6774220801
Zn  Zn14  1  0.58353000  0.27441000  0.09283000  1.0 0.6604089798
Zn  Zn15  1  0.66994000  0.34635000  0.02392000  1.0 0.6604089798
Zn  Zn16  1  0.63912000  0.46713000  0.08844000  1.0 0.6604089798
Zn  Zn17  1  0.29992000  0.41420000  0.86491000  1.0 0.6604089798
Zn  Zn18  1  0.36456000  0.22702000  0.85337000  1.0 0.6604089798
Zn  Zn19  1  0.54584000  0.26774000  0.88366000  1.0 0.6698923917
Zn  Zn20  1  0.49234000  0.46177000  0.87501000  1.0 0.6604089798
Zn  Zn21  1  0.66880000  0.27342000  0.94764000  1.0 0.6604089798
Zn  Zn22  1  0.87552000  0.19370000  0.88429000  1.0 0.6604089798
Zn  Zn23  1  0.27563000  0.32860000  0.79151000  1.0 0.6698923917
Zn  Zn24  1  0.73271000  0.33290000  0.87190000  1.0 0.6604089798
Zn  Zn25  1  0.82847000  0.15559000  0.96448000  1.0 0.6698923917
Zn  Zn26  1  0.67060000  0.50712000  0.84027000  1.0 0.6774220801
Zn  Zn27  1  0.77441000  0.91647000  0.34283000  1.0 0.6604089798
Zn  Zn28  1  0.84635000  0.83006000  0.27392000  1.0 0.6604089798
Zn  Zn29  1  0.96713000  0.86088000  0.33844000  1.0 0.6604089798
Zn  Zn30  1  0.91420000  0.20008000  0.11491000  1.0 0.6604089798
Zn  Zn31  1  0.72702000  0.13544000  0.10337000  1.0 0.6604089798
Zn  Zn32  1  0.76774000  0.95416000  0.13366000  1.0 0.6698923917
Zn  Zn33  1  0.96177000  0.00766000  0.12501000  1.0 0.6604089798
Zn  Zn34  1  0.77342000  0.83120000  0.19764000  1.0 0.6604089798
Zn  Zn35  1  0.69370000  0.62448000  0.13429000  1.0 0.6604089798
Zn  Zn36  1  0.82860000  0.22437000  0.04151000  1.0 0.6698923917
Zn  Zn37  1  0.83290000  0.76729000  0.12190000  1.0 0.6604089798
Zn  Zn38  1  0.65559000  0.67153000  0.21448000  1.0 0.6698923917
Zn  Zn39  1  0.00712000  0.82940000  0.09027000  1.0 0.6774220801
Zn  Zn40  1  0.22559000  0.08353000  0.84283000  1.0 0.6604089798
Zn  Zn41  1  0.15365000  0.16994000  0.77392000  1.0 0.6604089798
Zn  Zn42  1  0.03287000  0.13912000  0.83844000  1.0 0.6604089798
Zn  Zn43  1  0.08580000  0.79992000  0.61491000  1.0 0.6604089798
Zn  Zn44  1  0.27298000  0.86456000  0.60337000  1.0 0.6604089798
Zn  Zn45  1  0.23226000  0.04584000  0.63366000  1.0 0.6698923917
Zn  Zn46  1  0.03823000  0.99234000  0.62501000  1.0 0.6604089798
Zn  Zn47  1  0.22658000  0.16880000  0.69764000  1.0 0.6604089798
Zn  Zn48  1  0.30630000  0.37552000  0.63429000  1.0 0.6604089798
Zn  Zn49  1  0.17140000  0.77563000  0.54151000  1.0 0.6698923917
Zn  Zn50  1  0.16710000  0.23271000  0.62190000  1.0 0.6604089798
Zn  Zn51  1  0.34441000  0.32847000  0.71448000  1.0 0.6698923917
Zn  Zn52  1  0.99288000  0.17060000  0.59027000  1.0 0.6774220801
Zn  Zn53  1  0.08353000  0.22559000  0.15717000  1.0 0.6604089798
Zn  Zn54  1  0.16994000  0.15365000  0.22608000  1.0 0.6604089798
Zn  Zn55  1  0.13912000  0.03287000  0.16156000  1.0 0.6604089798
Zn  Zn56  1  0.79992000  0.08580000  0.38509000  1.0 0.6604089798
Zn  Zn57  1  0.86456000  0.27298000  0.39663000  1.0 0.6604089798
Zn  Zn58  1  0.04584000  0.23226000  0.36634000  1.0 0.6698923917
Zn  Zn59  1  0.99234000  0.03823000  0.37499000  1.0 0.6604089798
Zn  Zn60  1  0.16880000  0.22658000  0.30236000  1.0 0.6604089798
Zn  Zn61  1  0.37552000  0.30630000  0.36571000  1.0 0.6604089798
Zn  Zn62  1  0.77563000  0.17140000  0.45849000  1.0 0.6698923917
Zn  Zn63  1  0.23271000  0.16710000  0.37810000  1.0 0.6604089798
Zn  Zn64  1  0.32847000  0.34441000  0.28552000  1.0 0.6698923917
Zn  Zn65  1  0.17060000  0.99288000  0.40973000  1.0 0.6774220801
Zn  Zn66  1  0.91647000  0.77441000  0.65717000  1.0 0.6604089798
Zn  Zn67  1  0.83006000  0.84635000  0.72608000  1.0 0.6604089798
Zn  Zn68  1  0.86088000  0.96713000  0.66156000  1.0 0.6604089798
Zn  Zn69  1  0.20008000  0.91420000  0.88509000  1.0 0.6604089798
Zn  Zn70  1  0.13544000  0.72702000  0.89663000  1.0 0.6604089798
Zn  Zn71  1  0.95416000  0.76774000  0.86634000  1.0 0.6698923917
Zn  Zn72  1  0.00766000  0.96177000  0.87499000  1.0 0.6604089798
Zn  Zn73  1  0.83120000  0.77342000  0.80236000  1.0 0.6604089798
Zn  Zn74  1  0.62448000  0.69370000  0.86571000  1.0 0.6604089798
Zn  Zn75  1  0.22437000  0.82860000  0.95849000  1.0 0.6698923917
Zn  Zn76  1  0.76729000  0.83290000  0.87810000  1.0 0.6604089798
Zn  Zn77  1  0.67153000  0.65559000  0.78552000  1.0 0.6698923917
Zn  Zn78  1  0.82940000  0.00712000  0.90973000  1.0 0.6774220801
Zn  Zn79  1  0.72559000  0.41647000  0.40717000  1.0 0.6604089798
Zn  Zn80  1  0.65365000  0.33006000  0.47608000  1.0 0.6604089798
Zn  Zn81  1  0.53287000  0.36088000  0.41156000  1.0 0.6604089798
Zn  Zn82  1  0.58580000  0.70008000  0.63509000  1.0 0.6604089798
Zn  Zn83  1  0.77298000  0.63544000  0.64663000  1.0 0.6604089798
Zn  Zn84  1  0.73226000  0.45416000  0.61634000  1.0 0.6698923917
Zn  Zn85  1  0.53823000  0.50766000  0.62499000  1.0 0.6604089798
Zn  Zn86  1  0.72658000  0.33120000  0.55236000  1.0 0.6604089798
Zn  Zn87  1  0.80630000  0.12448000  0.61571000  1.0 0.6604089798
Zn  Zn88  1  0.67140000  0.72437000  0.70849000  1.0 0.6698923917
Zn  Zn89  1  0.66710000  0.26729000  0.62810000  1.0 0.6604089798
Zn  Zn90  1  0.84441000  0.17153000  0.53552000  1.0 0.6698923917
Zn  Zn91  1  0.49288000  0.32940000  0.65973000  1.0 0.6774220801
Zn  Zn92  1  0.27441000  0.58353000  0.90717000  1.0 0.6604089798
Zn  Zn93  1  0.34635000  0.66994000  0.97608000  1.0 0.6604089798
Zn  Zn94  1  0.46713000  0.63912000  0.91156000  1.0 0.6604089798
Zn  Zn95  1  0.41420000  0.29992000  0.13509000  1.0 0.6604089798
Zn  Zn96  1  0.22702000  0.36456000  0.14663000  1.0 0.6604089798
Zn  Zn97  1  0.26774000  0.54584000  0.11634000  1.0 0.6698923917
Zn  Zn98  1  0.46177000  0.49234000  0.12499000  1.0 0.6604089798
Zn  Zn99  1  0.27342000  0.66880000  0.05236000  1.0 0.6604089798
Zn  Zn100  1  0.19370000  0.87552000  0.11571000  1.0 0.6604089798
Zn  Zn101  1  0.32860000  0.27563000  0.20849000  1.0 0.6698923917
Zn  Zn102  1  0.33290000  0.73271000  0.12810000  1.0 0.6604089798
Zn  Zn103  1  0.15559000  0.82847000  0.03552000  1.0 0.6698923917
Zn  Zn104  1  0.50712000  0.67060000  0.15973000  1.0 0.6774220801
H  H1  1  0.38780000  0.69500000  0.41530000  1.0 0.1004681606
H  H2  1  0.37160000  0.83590000  0.45460000  1.0 0.1394556068
H  H3  1  0.48200000  0.83460000  0.40490000  1.0 0.1394556068
H  H4  1  0.60150000  0.80680000  0.61930000  1.0 0.1394556068
H  H5  1  0.46970000  0.82120000  0.58000000  1.0 0.1394556068
H  H6  1  0.49680000  0.68190000  0.61330000  1.0 0.1087952209
H  H7  1  0.71070000  0.83570000  0.33480000  1.0 0.1087952209
H  H8  1  0.73310000  0.94510000  0.38440000  1.0 0.1309936284
H  H9  1  0.61050000  0.83870000  0.38850000  1.0 0.1309936284
H  H10  1  0.17700000  0.83560000  0.42040000  1.0 0.1004681606
H  H11  1  0.04090000  0.75030000  0.40860000  1.0 0.1394556068
H  H12  1  0.08750000  0.78070000  0.47240000  1.0 0.1394556068
H  H13  1  0.41580000  0.62150000  0.58420000  1.0 0.1004681606
H  H14  1  0.29650000  0.56620000  0.62450000  1.0 0.1394556068
H  H15  1  0.34800000  0.72020000  0.63050000  1.0 0.1394556068
H  H16  1  0.71140000  0.72630000  0.32870000  1.0 0.1004681606
H  H17  1  0.55750000  0.77900000  0.32180000  1.0 0.1516672418
H  H18  1  0.65080000  0.66880000  0.34920000  1.0 0.0898548387
H  H19  1  0.67900000  0.78260000  0.39640000  1.0 0.1394556068
H  H20  1  0.73290000  0.62950000  0.40580000  1.0 0.1394556068
H  H21  1  0.43110000  0.77950000  0.34360000  1.0 0.1394556068
H  H22  1  0.27650000  0.73330000  0.33510000  1.0 0.1394556068
H  H23  1  0.36390000  0.67320000  0.38670000  1.0 0.0898548387
H  H24  1  0.32800000  0.58750000  0.35910000  1.0 0.1087952209
H  H25  1  0.21680000  0.47820000  0.33910000  1.0 0.1394556068
H  H26  1  0.16970000  0.62740000  0.35790000  1.0 0.1309936284
H  H27  1  0.71140000  0.69020000  0.25020000  1.0 0.1087952209
H  H28  1  0.67460000  0.56810000  0.29280000  1.0 0.1309936284
H  H29  1  0.60170000  0.57710000  0.23210000  1.0 0.1394556068
H  H30  1  0.55090000  0.72210000  0.37190000  1.0 0.1087952209
H  H31  1  0.58320000  0.86610000  0.34290000  1.0 0.1394556068
H  H32  1  0.43790000  0.84290000  0.37200000  1.0 0.1394556068
H  H33  1  0.41790000  0.48010000  0.36110000  1.0 0.1004681606
H  H34  1  0.50360000  0.61470000  0.34320000  1.0 0.1309936284
H  H35  1  0.35470000  0.58980000  0.31800000  1.0 0.1394556068
H  H36  1  0.68650000  0.63340000  0.32780000  1.0 0.0898548387
H  H37  1  0.82910000  0.62380000  0.29530000  1.0 0.1309936284
H  H38  1  0.81030000  0.55090000  0.35520000  1.0 0.1309936284
H  H39  1  0.69600000  0.49200000  0.33910000  1.0 0.1309936284
H  H40  1  0.54280000  0.44650000  0.35230000  1.0 0.1309936284
H  H41  1  0.59750000  0.59050000  0.37480000  1.0 0.1004681606
H  H42  1  0.20930000  0.73940000  0.39020000  1.0 0.1004681606
H  H43  1  0.21500000  0.66650000  0.32940000  1.0 0.1394556068
H  H44  1  0.11340000  0.79120000  0.33970000  1.0 0.1309936284
H  H45  1  0.53630000  0.72360000  0.41520000  1.0 0.1394556068
H  H46  1  0.45490000  0.63060000  0.37070000  1.0 0.1004681606
H  H47  1  0.57450000  0.56630000  0.40850000  1.0 0.1394556068
H  H48  1  0.30350000  0.72660000  0.40480000  1.0 0.0898548387
H  H49  1  0.23000000  0.58210000  0.39820000  1.0 0.1394556068
H  H50  1  0.29140000  0.62650000  0.45810000  1.0 0.1309936284
H  H51  1  0.11430000  0.90420000  0.40110000  1.0 0.1004681606
H  H52  1  0.24600000  0.97990000  0.37630000  1.0 0.1394556068
H  H53  1  0.20890000  0.82970000  0.35530000  1.0 0.1394556068
H  H54  1  0.27020000  0.73960000  0.54070000  1.0 0.1004681606
H  H55  1  0.12340000  0.70740000  0.51370000  1.0 0.1394556068
H  H56  1  0.24800000  0.60700000  0.50180000  1.0 0.1309936284
H  H57  1  0.36500000  0.45190000  0.61290000  1.0 0.1087952209
H  H58  1  0.20960000  0.42280000  0.62960000  1.0 0.1394556068
H  H59  1  0.24560000  0.54170000  0.58580000  1.0 0.1394556068
H  H60  1  0.49140000  0.75820000  0.56110000  1.0 0.1309936284
H  H61  1  0.42240000  0.70240000  0.50430000  1.0 0.1309936284
H  H62  1  0.34470000  0.68720000  0.56360000  1.0 0.0898548387
H  H63  1  0.29900000  0.69210000  0.48400000  1.0 0.1087952209
H  H64  1  0.41850000  0.59510000  0.50700000  1.0 0.1516672418
H  H65  1  0.43540000  0.67220000  0.44770000  1.0 0.1309936284
H  H66  1  0.24620000  0.76840000  0.43940000  1.0 0.1004681606
H  H67  1  0.36580000  0.77910000  0.48540000  1.0 0.1394556068
H  H68  1  0.22900000  0.86480000  0.49380000  1.0 0.1213821931
H  H69  1  0.42550000  0.39120000  0.42800000  1.0 0.1309936284
H  H70  1  0.41460000  0.53770000  0.39900000  1.0 0.1309936284
H  H71  1  0.55120000  0.45000000  0.39220000  1.0 0.1004681606
H  H72  1  0.34780000  0.61720000  0.56320000  1.0 0.0773412082
H  H73  1  0.33070000  0.45620000  0.55460000  1.0 0.1213821931
H  H74  1  0.32170000  0.55640000  0.50110000  1.0 0.1309936284
H  H75  1  0.61220000  0.30500000  0.91530000  1.0 0.1004681606
H  H76  1  0.62840000  0.16410000  0.95460000  1.0 0.1394556068
H  H77  1  0.51800000  0.16540000  0.90490000  1.0 0.1394556068
H  H78  1  0.39850000  0.19320000  0.11930000  1.0 0.1394556068
H  H79  1  0.53030000  0.17880000  0.08000000  1.0 0.1394556068
H  H80  1  0.50320000  0.31810000  0.11330000  1.0 0.1087952209
H  H81  1  0.28930000  0.16430000  0.83480000  1.0 0.1087952209
H  H82  1  0.26690000  0.05490000  0.88440000  1.0 0.1309936284
H  H83  1  0.38950000  0.16130000  0.88850000  1.0 0.1309936284
H  H84  1  0.82300000  0.16440000  0.92040000  1.0 0.1004681606
H  H85  1  0.95910000  0.24970000  0.90860000  1.0 0.1394556068
H  H86  1  0.91250000  0.21930000  0.97240000  1.0 0.1394556068
H  H87  1  0.58420000  0.37850000  0.08420000  1.0 0.1004681606
H  H88  1  0.70350000  0.43380000  0.12450000  1.0 0.1394556068
H  H89  1  0.65200000  0.27980000  0.13050000  1.0 0.1394556068
H  H90  1  0.28860000  0.27370000  0.82870000  1.0 0.1004681606
H  H91  1  0.44250000  0.22100000  0.82180000  1.0 0.1516672418
H  H92  1  0.34920000  0.33120000  0.84920000  1.0 0.0898548387
H  H93  1  0.32100000  0.21740000  0.89640000  1.0 0.1394556068
H  H94  1  0.26710000  0.37050000  0.90580000  1.0 0.1394556068
H  H95  1  0.56890000  0.22050000  0.84360000  1.0 0.1394556068
H  H96  1  0.72350000  0.26670000  0.83510000  1.0 0.1394556068
H  H97  1  0.63610000  0.32680000  0.88670000  1.0 0.0898548387
H  H98  1  0.67200000  0.41250000  0.85910000  1.0 0.1087952209
H  H99  1  0.78320000  0.52180000  0.83910000  1.0 0.1394556068
H  H100  1  0.83030000  0.37260000  0.85790000  1.0 0.1309936284
H  H101  1  0.28860000  0.30980000  0.75020000  1.0 0.1087952209
H  H102  1  0.32540000  0.43190000  0.79280000  1.0 0.1309936284
H  H103  1  0.39830000  0.42290000  0.73210000  1.0 0.1394556068
H  H104  1  0.44910000  0.27790000  0.87190000  1.0 0.1087952209
H  H105  1  0.41680000  0.13390000  0.84290000  1.0 0.1394556068
H  H106  1  0.56210000  0.15710000  0.87200000  1.0 0.1394556068
H  H107  1  0.58210000  0.51990000  0.86110000  1.0 0.1004681606
H  H108  1  0.49640000  0.38530000  0.84320000  1.0 0.1309936284
H  H109  1  0.64530000  0.41020000  0.81800000  1.0 0.1394556068
H  H110  1  0.31350000  0.36660000  0.82780000  1.0 0.0898548387
H  H111  1  0.17090000  0.37620000  0.79530000  1.0 0.1309936284
H  H112  1  0.18970000  0.44910000  0.85520000  1.0 0.1309936284
H  H113  1  0.30400000  0.50800000  0.83910000  1.0 0.1309936284
H  H114  1  0.45720000  0.55350000  0.85230000  1.0 0.1309936284
H  H115  1  0.40250000  0.40950000  0.87480000  1.0 0.1004681606
H  H116  1  0.79070000  0.26060000  0.89020000  1.0 0.1004681606
H  H117  1  0.78500000  0.33350000  0.82940000  1.0 0.1394556068
H  H118  1  0.88660000  0.20880000  0.83970000  1.0 0.1309936284
H  H119  1  0.46370000  0.27640000  0.91520000  1.0 0.1394556068
H  H120  1  0.54510000  0.36940000  0.87070000  1.0 0.1004681606
H  H121  1  0.42550000  0.43370000  0.90850000  1.0 0.1394556068
H  H122  1  0.69650000  0.27340000  0.90480000  1.0 0.0898548387
H  H123  1  0.77000000  0.41790000  0.89820000  1.0 0.1394556068
H  H124  1  0.70860000  0.37350000  0.95810000  1.0 0.1309936284
H  H125  1  0.88570000  0.09580000  0.90110000  1.0 0.0898548387
H  H126  1  0.75400000  0.02010000  0.87630000  1.0 0.1394556068
H  H127  1  0.79110000  0.17030000  0.85530000  1.0 0.1394556068
H  H128  1  0.72980000  0.26040000  0.04070000  1.0 0.1004681606
H  H129  1  0.87660000  0.29260000  0.01370000  1.0 0.1394556068
H  H130  1  0.75200000  0.39300000  0.00180000  1.0 0.1309936284
H  H131  1  0.63500000  0.54810000  0.11290000  1.0 0.1087952209
H  H132  1  0.79040000  0.57720000  0.12960000  1.0 0.1394556068
H  H133  1  0.75440000  0.45830000  0.08580000  1.0 0.1394556068
H  H134  1  0.50860000  0.24180000  0.06110000  1.0 0.1309936284
H  H135  1  0.57760000  0.29760000  0.00430000  1.0 0.1309936284
H  H136  1  0.65530000  0.31280000  0.06360000  1.0 0.0898548387
H  H137  1  0.70100000  0.30790000  0.98400000  1.0 0.1087952209
H  H138  1  0.58150000  0.40490000  0.00700000  1.0 0.1516672418
H  H139  1  0.56460000  0.32780000  0.94770000  1.0 0.1309936284
H  H140  1  0.75380000  0.23160000  0.93940000  1.0 0.1004681606
H  H141  1  0.63420000  0.22090000  0.98540000  1.0 0.1394556068
H  H142  1  0.77100000  0.13520000  0.99380000  1.0 0.1213821931
H  H143  1  0.57450000  0.60880000  0.92800000  1.0 0.1309936284
H  H144  1  0.58540000  0.46230000  0.89900000  1.0 0.1309936284
H  H145  1  0.44880000  0.55000000  0.89220000  1.0 0.1004681606
H  H146  1  0.65220000  0.38280000  0.06320000  1.0 0.0773412082
H  H147  1  0.66930000  0.54380000  0.05460000  1.0 0.1213821931
H  H148  1  0.67830000  0.44360000  0.00110000  1.0 0.1309936284
H  H149  1  0.80500000  0.88780000  0.16530000  1.0 0.1004681606
H  H150  1  0.66410000  0.87160000  0.20460000  1.0 0.1394556068
H  H151  1  0.66540000  0.98200000  0.15490000  1.0 0.1394556068
H  H152  1  0.69320000  0.10150000  0.36930000  1.0 0.1394556068
H  H153  1  0.67880000  0.96970000  0.33000000  1.0 0.1394556068
H  H154  1  0.81810000  0.99680000  0.36330000  1.0 0.1087952209
H  H155  1  0.66430000  0.21070000  0.08480000  1.0 0.1087952209
H  H156  1  0.55490000  0.23310000  0.13440000  1.0 0.1309936284
H  H157  1  0.66130000  0.11050000  0.13850000  1.0 0.1309936284
H  H158  1  0.66440000  0.67700000  0.17040000  1.0 0.1004681606
H  H159  1  0.74970000  0.54090000  0.15860000  1.0 0.1394556068
H  H160  1  0.71930000  0.58750000  0.22240000  1.0 0.1394556068
H  H161  1  0.87850000  0.91580000  0.33420000  1.0 0.1004681606
H  H162  1  0.93380000  0.79650000  0.37450000  1.0 0.1394556068
H  H163  1  0.77980000  0.84800000  0.38050000  1.0 0.1394556068
H  H164  1  0.77370000  0.21140000  0.07870000  1.0 0.1004681606
H  H165  1  0.72100000  0.05750000  0.07180000  1.0 0.1516672418
H  H166  1  0.83120000  0.15080000  0.09920000  1.0 0.0898548387
H  H167  1  0.71740000  0.17900000  0.14640000  1.0 0.1394556068
H  H168  1  0.87050000  0.23290000  0.15580000  1.0 0.1394556068
H  H169  1  0.72050000  0.93110000  0.09360000  1.0 0.1394556068
H  H170  1  0.76670000  0.77650000  0.08510000  1.0 0.1394556068
H  H171  1  0.82680000  0.86390000  0.13670000  1.0 0.0898548387
H  H172  1  0.91250000  0.82800000  0.10910000  1.0 0.1087952209
H  H173  1  0.02180000  0.71680000  0.08910000  1.0 0.1394556068
H  H174  1  0.87260000  0.66970000  0.10790000  1.0 0.1309936284
H  H175  1  0.80980000  0.21140000  0.00020000  1.0 0.1087952209
H  H176  1  0.93190000  0.17460000  0.04280000  1.0 0.1309936284
H  H177  1  0.92290000  0.10170000  0.98210000  1.0 0.1394556068
H  H178  1  0.77790000  0.05090000  0.12190000  1.0 0.1087952209
H  H179  1  0.63390000  0.08320000  0.09290000  1.0 0.1394556068
H  H180  1  0.65710000  0.93790000  0.12200000  1.0 0.1394556068
H  H181  1  0.01990000  0.91790000  0.11110000  1.0 0.1004681606
H  H182  1  0.88530000  0.00360000  0.09320000  1.0 0.1309936284
H  H183  1  0.91020000  0.85470000  0.06800000  1.0 0.1394556068
H  H184  1  0.86660000  0.18650000  0.07780000  1.0 0.0898548387
H  H185  1  0.87620000  0.32910000  0.04530000  1.0 0.1309936284
H  H186  1  0.94910000  0.31030000  0.10520000  1.0 0.1309936284
H  H187  1  0.00800000  0.19600000  0.08910000  1.0 0.1309936284
H  H188  1  0.05350000  0.04280000  0.10230000  1.0 0.1309936284
H  H189  1  0.90950000  0.09750000  0.12480000  1.0 0.1004681606
H  H190  1  0.76060000  0.70930000  0.14020000  1.0 0.1004681606
H  H191  1  0.83350000  0.71500000  0.07940000  1.0 0.1394556068
H  H192  1  0.70880000  0.61340000  0.08970000  1.0 0.1309936284
H  H193  1  0.77640000  0.03630000  0.16520000  1.0 0.1394556068
H  H194  1  0.86940000  0.95490000  0.12070000  1.0 0.1004681606
H  H195  1  0.93370000  0.07450000  0.15850000  1.0 0.1394556068
H  H196  1  0.77340000  0.80350000  0.15480000  1.0 0.0898548387
H  H197  1  0.91790000  0.73000000  0.14820000  1.0 0.1394556068
H  H198  1  0.87350000  0.79140000  0.20810000  1.0 0.1309936284
H  H199  1  0.59580000  0.61430000  0.15110000  1.0 0.1004681606
H  H200  1  0.52010000  0.74600000  0.12630000  1.0 0.1394556068
H  H201  1  0.67030000  0.70890000  0.10530000  1.0 0.1394556068
H  H202  1  0.76040000  0.77020000  0.29070000  1.0 0.1004681606
H  H203  1  0.79260000  0.62340000  0.26370000  1.0 0.1394556068
H  H204  1  0.89300000  0.74800000  0.25180000  1.0 0.1309936284
H  H205  1  0.04810000  0.86500000  0.36290000  1.0 0.1087952209
H  H206  1  0.07720000  0.70960000  0.37960000  1.0 0.1394556068
H  H207  1  0.95830000  0.74560000  0.33580000  1.0 0.1394556068
H  H208  1  0.74180000  0.99140000  0.31110000  1.0 0.1309936284
H  H209  1  0.79760000  0.92240000  0.25430000  1.0 0.1309936284
H  H210  1  0.81280000  0.84470000  0.31360000  1.0 0.0898548387
H  H211  1  0.80790000  0.79900000  0.23400000  1.0 0.1087952209
H  H212  1  0.90490000  0.91850000  0.25700000  1.0 0.1516672418
H  H213  1  0.82780000  0.93540000  0.19770000  1.0 0.1309936284
H  H214  1  0.73160000  0.74620000  0.18940000  1.0 0.1004681606
H  H215  1  0.72090000  0.86580000  0.23540000  1.0 0.1394556068
H  H216  1  0.63520000  0.72900000  0.24380000  1.0 0.1213821931
H  H217  1  0.10880000  0.92550000  0.17800000  1.0 0.1309936284
H  H218  1  0.96230000  0.91460000  0.14900000  1.0 0.1309936284
H  H219  1  0.05000000  0.05120000  0.14220000  1.0 0.1004681606
H  H220  1  0.88280000  0.84780000  0.31320000  1.0 0.0773412082
H  H221  1  0.04380000  0.83070000  0.30460000  1.0 0.1213821931
H  H222  1  0.94360000  0.82170000  0.25110000  1.0 0.1309936284
H  H223  1  0.19500000  0.11220000  0.66530000  1.0 0.1004681606
H  H224  1  0.33590000  0.12840000  0.70460000  1.0 0.1394556068
H  H225  1  0.33460000  0.01800000  0.65490000  1.0 0.1394556068
H  H226  1  0.30680000  0.89850000  0.86930000  1.0 0.1394556068
H  H227  1  0.32120000  0.03030000  0.83000000  1.0 0.1394556068
H  H228  1  0.18190000  0.00320000  0.86330000  1.0 0.1087952209
H  H229  1  0.33570000  0.78930000  0.58480000  1.0 0.1087952209
H  H230  1  0.44510000  0.76690000  0.63440000  1.0 0.1309936284
H  H231  1  0.33870000  0.88950000  0.63850000  1.0 0.1309936284
H  H232  1  0.33560000  0.32300000  0.67040000  1.0 0.1004681606
H  H233  1  0.25030000  0.45910000  0.65860000  1.0 0.1394556068
H  H234  1  0.28070000  0.41250000  0.72240000  1.0 0.1394556068
H  H235  1  0.12150000  0.08420000  0.83420000  1.0 0.1004681606
H  H236  1  0.06620000  0.20350000  0.87450000  1.0 0.1394556068
H  H237  1  0.22020000  0.15200000  0.88050000  1.0 0.1394556068
H  H238  1  0.22630000  0.78860000  0.57870000  1.0 0.1004681606
H  H239  1  0.27900000  0.94250000  0.57180000  1.0 0.1516672418
H  H240  1  0.16880000  0.84920000  0.59920000  1.0 0.0898548387
H  H241  1  0.28260000  0.82100000  0.64640000  1.0 0.1394556068
H  H242  1  0.12950000  0.76710000  0.65580000  1.0 0.1394556068
H  H243  1  0.27950000  0.06890000  0.59360000  1.0 0.1394556068
H  H244  1  0.23330000  0.22350000  0.58510000  1.0 0.1394556068
H  H245  1  0.17320000  0.13610000  0.63670000  1.0 0.0898548387
H  H246  1  0.08750000  0.17200000  0.60910000  1.0 0.1087952209
H  H247  1  0.97820000  0.28320000  0.58910000  1.0 0.1394556068
H  H248  1  0.12740000  0.33030000  0.60790000  1.0 0.1309936284
H  H249  1  0.19020000  0.78860000  0.50020000  1.0 0.1087952209
H  H250  1  0.06810000  0.82540000  0.54280000  1.0 0.1309936284
H  H251  1  0.07710000  0.89830000  0.48210000  1.0 0.1394556068
H  H252  1  0.22210000  0.94910000  0.62190000  1.0 0.1087952209
H  H253  1  0.36610000  0.91680000  0.59290000  1.0 0.1394556068
H  H254  1  0.34290000  0.06210000  0.62200000  1.0 0.1394556068
H  H255  1  0.98010000  0.08210000  0.61110000  1.0 0.1004681606
H  H256  1  0.11470000  0.99640000  0.59320000  1.0 0.1309936284
H  H257  1  0.08980000  0.14530000  0.56800000  1.0 0.1394556068
H  H258  1  0.13340000  0.81350000  0.57780000  1.0 0.0898548387
H  H259  1  0.12380000  0.67090000  0.54530000  1.0 0.1309936284
H  H260  1  0.05090000  0.68970000  0.60520000  1.0 0.1309936284
H  H261  1  0.99200000  0.80400000  0.58910000  1.0 0.1309936284
H  H262  1  0.94650000  0.95720000  0.60230000  1.0 0.1309936284
H  H263  1  0.09050000  0.90250000  0.62480000  1.0 0.1004681606
H  H264  1  0.23940000  0.29070000  0.64020000  1.0 0.1004681606
H  H265  1  0.16650000  0.28500000  0.57940000  1.0 0.1394556068
H  H266  1  0.29120000  0.38660000  0.58970000  1.0 0.1309936284
H  H267  1  0.22360000  0.96370000  0.66520000  1.0 0.1394556068
H  H268  1  0.13060000  0.04510000  0.62070000  1.0 0.1004681606
H  H269  1  0.06630000  0.92550000  0.65850000  1.0 0.1394556068
H  H270  1  0.22660000  0.19650000  0.65480000  1.0 0.0898548387
H  H271  1  0.08210000  0.27000000  0.64820000  1.0 0.1394556068
H  H272  1  0.12650000  0.20860000  0.70810000  1.0 0.1309936284
H  H273  1  0.40420000  0.38570000  0.65110000  1.0 0.1004681606
H  H274  1  0.47990000  0.25400000  0.62630000  1.0 0.1394556068
H  H275  1  0.32970000  0.29110000  0.60530000  1.0 0.1394556068
H  H276  1  0.23960000  0.22980000  0.79070000  1.0 0.1004681606
H  H277  1  0.20740000  0.37660000  0.76370000  1.0 0.1394556068
H  H278  1  0.10700000  0.25200000  0.75180000  1.0 0.1309936284
H  H279  1  0.95190000  0.13500000  0.86290000  1.0 0.1087952209
H  H280  1  0.92280000  0.29040000  0.87960000  1.0 0.1394556068
H  H281  1  0.04170000  0.25440000  0.83580000  1.0 0.1394556068
H  H282  1  0.25820000  0.00860000  0.81110000  1.0 0.1309936284
H  H283  1  0.20240000  0.07760000  0.75430000  1.0 0.1309936284
H  H284  1  0.18720000  0.15530000  0.81360000  1.0 0.0898548387
H  H285  1  0.19210000  0.20100000  0.73400000  1.0 0.1087952209
H  H286  1  0.09510000  0.08150000  0.75700000  1.0 0.1516672418
H  H287  1  0.17220000  0.06460000  0.69770000  1.0 0.1309936284
H  H288  1  0.26840000  0.25380000  0.68940000  1.0 0.1004681606
H  H289  1  0.27910000  0.13420000  0.73540000  1.0 0.1394556068
H  H290  1  0.36480000  0.27100000  0.74380000  1.0 0.1213821931
H  H291  1  0.89120000  0.07450000  0.67800000  1.0 0.1309936284
H  H292  1  0.03770000  0.08540000  0.64900000  1.0 0.1309936284
H  H293  1  0.95000000  0.94880000  0.64220000  1.0 0.1004681606
H  H294  1  0.11720000  0.15220000  0.81320000  1.0 0.0773412082
H  H295  1  0.95620000  0.16930000  0.80460000  1.0 0.1213821931
H  H296  1  0.05640000  0.17830000  0.75110000  1.0 0.1309936284
H  H297  1  0.11220000  0.19500000  0.33470000  1.0 0.1004681606
H  H298  1  0.12840000  0.33590000  0.29540000  1.0 0.1394556068
H  H299  1  0.01800000  0.33460000  0.34510000  1.0 0.1394556068
H  H300  1  0.89850000  0.30680000  0.13070000  1.0 0.1394556068
H  H301  1  0.03030000  0.32120000  0.17000000  1.0 0.1394556068
H  H302  1  0.00320000  0.18190000  0.13670000  1.0 0.1087952209
H  H303  1  0.78930000  0.33570000  0.41520000  1.0 0.1087952209
H  H304  1  0.76690000  0.44510000  0.36560000  1.0 0.1309936284
H  H305  1  0.88950000  0.33870000  0.36150000  1.0 0.1309936284
H  H306  1  0.32300000  0.33560000  0.32960000  1.0 0.1004681606
H  H307  1  0.45910000  0.25030000  0.34140000  1.0 0.1394556068
H  H308  1  0.41250000  0.28070000  0.27760000  1.0 0.1394556068
H  H309  1  0.08420000  0.12150000  0.16580000  1.0 0.1004681606
H  H310  1  0.20350000  0.06620000  0.12550000  1.0 0.1394556068
H  H311  1  0.15200000  0.22020000  0.11950000  1.0 0.1394556068
H  H312  1  0.78860000  0.22630000  0.42130000  1.0 0.1004681606
H  H313  1  0.94250000  0.27900000  0.42820000  1.0 0.1516672418
H  H314  1  0.84920000  0.16880000  0.40080000  1.0 0.0898548387
H  H315  1  0.82100000  0.28260000  0.35360000  1.0 0.1394556068
H  H316  1  0.76710000  0.12950000  0.34420000  1.0 0.1394556068
H  H317  1  0.06890000  0.27950000  0.40640000  1.0 0.1394556068
H  H318  1  0.22350000  0.23330000  0.41490000  1.0 0.1394556068
H  H319  1  0.13610000  0.17320000  0.36330000  1.0 0.0898548387
H  H320  1  0.17200000  0.08750000  0.39090000  1.0 0.1087952209
H  H321  1  0.28320000  0.97820000  0.41090000  1.0 0.1394556068
H  H322  1  0.33030000  0.12740000  0.39210000  1.0 0.1309936284
H  H323  1  0.78860000  0.19020000  0.49980000  1.0 0.1087952209
H  H324  1  0.82540000  0.06810000  0.45720000  1.0 0.1309936284
H  H325  1  0.89830000  0.07710000  0.51790000  1.0 0.1394556068
H  H326  1  0.94910000  0.22210000  0.37810000  1.0 0.1087952209
H  H327  1  0.91680000  0.36610000  0.40710000  1.0 0.1394556068
H  H328  1  0.06210000  0.34290000  0.37800000  1.0 0.1394556068
H  H329  1  0.08210000  0.98010000  0.38890000  1.0 0.1004681606
H  H330  1  0.99640000  0.11470000  0.40680000  1.0 0.1309936284
H  H331  1  0.14530000  0.08980000  0.43200000  1.0 0.1394556068
H  H332  1  0.81350000  0.13340000  0.42220000  1.0 0.0898548387
H  H333  1  0.67090000  0.12380000  0.45470000  1.0 0.1309936284
H  H334  1  0.68970000  0.05090000  0.39480000  1.0 0.1309936284
H  H335  1  0.80400000  0.99200000  0.41090000  1.0 0.1309936284
H  H336  1  0.95720000  0.94650000  0.39770000  1.0 0.1309936284
H  H337  1  0.90250000  0.09050000  0.37520000  1.0 0.1004681606
H  H338  1  0.29070000  0.23940000  0.35980000  1.0 0.1004681606
H  H339  1  0.28500000  0.16650000  0.42060000  1.0 0.1394556068
H  H340  1  0.38660000  0.29120000  0.41030000  1.0 0.1309936284
H  H341  1  0.96370000  0.22360000  0.33480000  1.0 0.1394556068
H  H342  1  0.04510000  0.13060000  0.37930000  1.0 0.1004681606
H  H343  1  0.92550000  0.06630000  0.34150000  1.0 0.1394556068
H  H344  1  0.19650000  0.22660000  0.34520000  1.0 0.0898548387
H  H345  1  0.27000000  0.08210000  0.35180000  1.0 0.1394556068
H  H346  1  0.20860000  0.12650000  0.29190000  1.0 0.1309936284
H  H347  1  0.38570000  0.40420000  0.34890000  1.0 0.1004681606
H  H348  1  0.25400000  0.47990000  0.37370000  1.0 0.1394556068
H  H349  1  0.29110000  0.32970000  0.39470000  1.0 0.1394556068
H  H350  1  0.22980000  0.23960000  0.20930000  1.0 0.1004681606
H  H351  1  0.37660000  0.20740000  0.23630000  1.0 0.1394556068
H  H352  1  0.25200000  0.10700000  0.24820000  1.0 0.1309936284
H  H353  1  0.13500000  0.95190000  0.13710000  1.0 0.1087952209
H  H354  1  0.29040000  0.92280000  0.12040000  1.0 0.1394556068
H  H355  1  0.25440000  0.04170000  0.16420000  1.0 0.1394556068
H  H356  1  0.00860000  0.25820000  0.18890000  1.0 0.1309936284
H  H357  1  0.07760000  0.20240000  0.24570000  1.0 0.1309936284
H  H358  1  0.15530000  0.18720000  0.18640000  1.0 0.0898548387
H  H359  1  0.20100000  0.19210000  0.26600000  1.0 0.1087952209
H  H360  1  0.08150000  0.09510000  0.24300000  1.0 0.1516672418
H  H361  1  0.06460000  0.17220000  0.30230000  1.0 0.1309936284
H  H362  1  0.25380000  0.26840000  0.31060000  1.0 0.1004681606
H  H363  1  0.13420000  0.27910000  0.26460000  1.0 0.1394556068
H  H364  1  0.27100000  0.36480000  0.25620000  1.0 0.1213821931
H  H365  1  0.07450000  0.89120000  0.32200000  1.0 0.1309936284
H  H366  1  0.08540000  0.03770000  0.35100000  1.0 0.1309936284
H  H367  1  0.94880000  0.95000000  0.35780000  1.0 0.1004681606
H  H368  1  0.15220000  0.11720000  0.18680000  1.0 0.0773412082
H  H369  1  0.16930000  0.95620000  0.19540000  1.0 0.1213821931
H  H370  1  0.17830000  0.05640000  0.24890000  1.0 0.1309936284
H  H371  1  0.88780000  0.80500000  0.83470000  1.0 0.1004681606
H  H372  1  0.87160000  0.66410000  0.79540000  1.0 0.1394556068
H  H373  1  0.98200000  0.66540000  0.84510000  1.0 0.1394556068
H  H374  1  0.10150000  0.69320000  0.63070000  1.0 0.1394556068
H  H375  1  0.96970000  0.67880000  0.67000000  1.0 0.1394556068
H  H376  1  0.99680000  0.81810000  0.63670000  1.0 0.1087952209
H  H377  1  0.21070000  0.66430000  0.91520000  1.0 0.1087952209
H  H378  1  0.23310000  0.55490000  0.86560000  1.0 0.1309936284
H  H379  1  0.11050000  0.66130000  0.86150000  1.0 0.1309936284
H  H380  1  0.67700000  0.66440000  0.82960000  1.0 0.1004681606
H  H381  1  0.54090000  0.74970000  0.84140000  1.0 0.1394556068
H  H382  1  0.58750000  0.71930000  0.77760000  1.0 0.1394556068
H  H383  1  0.91580000  0.87850000  0.66580000  1.0 0.1004681606
H  H384  1  0.79650000  0.93380000  0.62550000  1.0 0.1394556068
H  H385  1  0.84800000  0.77980000  0.61950000  1.0 0.1394556068
H  H386  1  0.21140000  0.77370000  0.92130000  1.0 0.1004681606
H  H387  1  0.05750000  0.72100000  0.92820000  1.0 0.1516672418
H  H388  1  0.15080000  0.83120000  0.90080000  1.0 0.0898548387
H  H389  1  0.17900000  0.71740000  0.85360000  1.0 0.1394556068
H  H390  1  0.23290000  0.87050000  0.84420000  1.0 0.1394556068
H  H391  1  0.93110000  0.72050000  0.90640000  1.0 0.1394556068
H  H392  1  0.77650000  0.76670000  0.91490000  1.0 0.1394556068
H  H393  1  0.86390000  0.82680000  0.86330000  1.0 0.0898548387
H  H394  1  0.82800000  0.91250000  0.89090000  1.0 0.1087952209
H  H395  1  0.71680000  0.02180000  0.91090000  1.0 0.1394556068
H  H396  1  0.66970000  0.87260000  0.89210000  1.0 0.1309936284
H  H397  1  0.21140000  0.80980000  0.99980000  1.0 0.1087952209
H  H398  1  0.17460000  0.93190000  0.95720000  1.0 0.1309936284
H  H399  1  0.10170000  0.92290000  0.01790000  1.0 0.1394556068
H  H400  1  0.05090000  0.77790000  0.87810000  1.0 0.1087952209
H  H401  1  0.08320000  0.63390000  0.90710000  1.0 0.1394556068
H  H402  1  0.93790000  0.65710000  0.87800000  1.0 0.1394556068
H  H403  1  0.91790000  0.01990000  0.88890000  1.0 0.1004681606
H  H404  1  0.00360000  0.88530000  0.90680000  1.0 0.1309936284
H  H405  1  0.85470000  0.91020000  0.93200000  1.0 0.1394556068
H  H406  1  0.18650000  0.86660000  0.92220000  1.0 0.0898548387
H  H407  1  0.32910000  0.87620000  0.95470000  1.0 0.1309936284
H  H408  1  0.31030000  0.94910000  0.89480000  1.0 0.1309936284
H  H409  1  0.19600000  0.00800000  0.91090000  1.0 0.1309936284
H  H410  1  0.04280000  0.05350000  0.89770000  1.0 0.1309936284
H  H411  1  0.09750000  0.90950000  0.87520000  1.0 0.1004681606
H  H412  1  0.70930000  0.76060000  0.85980000  1.0 0.1004681606
H  H413  1  0.71500000  0.83350000  0.92060000  1.0 0.1394556068
H  H414  1  0.61340000  0.70880000  0.91030000  1.0 0.1309936284
H  H415  1  0.03630000  0.77640000  0.83480000  1.0 0.1394556068
H  H416  1  0.95490000  0.86940000  0.87930000  1.0 0.1004681606
H  H417  1  0.07450000  0.93370000  0.84150000  1.0 0.1394556068
H  H418  1  0.80350000  0.77340000  0.84520000  1.0 0.0898548387
H  H419  1  0.73000000  0.91790000  0.85180000  1.0 0.1394556068
H  H420  1  0.79140000  0.87350000  0.79190000  1.0 0.1309936284
H  H421  1  0.61430000  0.59580000  0.84890000  1.0 0.1004681606
H  H422  1  0.74600000  0.52010000  0.87370000  1.0 0.1394556068
H  H423  1  0.70890000  0.67030000  0.89470000  1.0 0.1394556068
H  H424  1  0.77020000  0.76040000  0.70930000  1.0 0.1004681606
H  H425  1  0.62340000  0.79260000  0.73630000  1.0 0.1394556068
H  H426  1  0.74800000  0.89300000  0.74820000  1.0 0.1309936284
H  H427  1  0.86500000  0.04810000  0.63710000  1.0 0.1087952209
H  H428  1  0.70960000  0.07720000  0.62040000  1.0 0.1394556068
H  H429  1  0.74560000  0.95830000  0.66420000  1.0 0.1394556068
H  H430  1  0.99140000  0.74180000  0.68890000  1.0 0.1309936284
H  H431  1  0.92240000  0.79760000  0.74570000  1.0 0.1309936284
H  H432  1  0.84470000  0.81280000  0.68640000  1.0 0.0898548387
H  H433  1  0.79900000  0.80790000  0.76600000  1.0 0.1087952209
H  H434  1  0.91850000  0.90490000  0.74300000  1.0 0.1516672418
H  H435  1  0.93540000  0.82780000  0.80230000  1.0 0.1309936284
H  H436  1  0.74620000  0.73160000  0.81060000  1.0 0.1004681606
H  H437  1  0.86580000  0.72090000  0.76460000  1.0 0.1394556068
H  H438  1  0.72900000  0.63520000  0.75620000  1.0 0.1213821931
H  H439  1  0.92550000  0.10880000  0.82200000  1.0 0.1309936284
H  H440  1  0.91460000  0.96230000  0.85100000  1.0 0.1309936284
H  H441  1  0.05120000  0.05000000  0.85780000  1.0 0.1004681606
H  H442  1  0.84780000  0.88280000  0.68680000  1.0 0.0773412082
H  H443  1  0.83070000  0.04380000  0.69540000  1.0 0.1213821931
H  H444  1  0.82170000  0.94360000  0.74890000  1.0 0.1309936284
H  H445  1  0.69500000  0.38780000  0.58470000  1.0 0.1004681606
H  H446  1  0.83590000  0.37160000  0.54540000  1.0 0.1394556068
H  H447  1  0.83460000  0.48200000  0.59510000  1.0 0.1394556068
H  H448  1  0.80680000  0.60150000  0.38070000  1.0 0.1394556068
H  H449  1  0.82120000  0.46970000  0.42000000  1.0 0.1394556068
H  H450  1  0.68190000  0.49680000  0.38670000  1.0 0.1087952209
H  H451  1  0.83570000  0.71070000  0.66520000  1.0 0.1087952209
H  H452  1  0.94510000  0.73310000  0.61560000  1.0 0.1309936284
H  H453  1  0.83870000  0.61050000  0.61150000  1.0 0.1309936284
H  H454  1  0.83560000  0.17700000  0.57960000  1.0 0.1004681606
H  H455  1  0.75030000  0.04090000  0.59140000  1.0 0.1394556068
H  H456  1  0.78070000  0.08750000  0.52760000  1.0 0.1394556068
H  H457  1  0.62150000  0.41580000  0.41580000  1.0 0.1004681606
H  H458  1  0.56620000  0.29650000  0.37550000  1.0 0.1394556068
H  H459  1  0.72020000  0.34800000  0.36950000  1.0 0.1394556068
H  H460  1  0.72630000  0.71140000  0.67130000  1.0 0.1004681606
H  H461  1  0.77900000  0.55750000  0.67820000  1.0 0.1516672418
H  H462  1  0.66880000  0.65080000  0.65080000  1.0 0.0898548387
H  H463  1  0.78260000  0.67900000  0.60360000  1.0 0.1394556068
H  H464  1  0.62950000  0.73290000  0.59420000  1.0 0.1394556068
H  H465  1  0.77950000  0.43110000  0.65640000  1.0 0.1394556068
H  H466  1  0.73330000  0.27650000  0.66490000  1.0 0.1394556068
H  H467  1  0.67320000  0.36390000  0.61330000  1.0 0.0898548387
H  H468  1  0.58750000  0.32800000  0.64090000  1.0 0.1087952209
H  H469  1  0.47820000  0.21680000  0.66090000  1.0 0.1394556068
H  H470  1  0.62740000  0.16970000  0.64210000  1.0 0.1309936284
H  H471  1  0.69020000  0.71140000  0.74980000  1.0 0.1087952209
H  H472  1  0.56810000  0.67460000  0.70720000  1.0 0.1309936284
H  H473  1  0.57710000  0.60170000  0.76790000  1.0 0.1394556068
H  H474  1  0.72210000  0.55090000  0.62810000  1.0 0.1087952209
H  H475  1  0.86610000  0.58320000  0.65710000  1.0 0.1394556068
H  H476  1  0.84290000  0.43790000  0.62800000  1.0 0.1394556068
H  H477  1  0.48010000  0.41790000  0.63890000  1.0 0.1004681606
H  H478  1  0.61470000  0.50360000  0.65680000  1.0 0.1309936284
H  H479  1  0.58980000  0.35470000  0.68200000  1.0 0.1394556068
H  H480  1  0.63340000  0.68650000  0.67220000  1.0 0.0898548387
H  H481  1  0.62380000  0.82910000  0.70470000  1.0 0.1309936284
H  H482  1  0.55090000  0.81030000  0.64480000  1.0 0.1309936284
H  H483  1  0.49200000  0.69600000  0.66090000  1.0 0.1309936284
H  H484  1  0.44650000  0.54280000  0.64770000  1.0 0.1309936284
H  H485  1  0.59050000  0.59750000  0.62520000  1.0 0.1004681606
H  H486  1  0.73940000  0.20930000  0.60980000  1.0 0.1004681606
H  H487  1  0.66650000  0.21500000  0.67060000  1.0 0.1394556068
H  H488  1  0.79120000  0.11340000  0.66030000  1.0 0.1309936284
H  H489  1  0.72360000  0.53630000  0.58480000  1.0 0.1394556068
H  H490  1  0.63060000  0.45490000  0.62930000  1.0 0.1004681606
H  H491  1  0.56630000  0.57450000  0.59150000  1.0 0.1394556068
H  H492  1  0.72660000  0.30350000  0.59520000  1.0 0.0898548387
H  H493  1  0.58210000  0.23000000  0.60180000  1.0 0.1394556068
H  H494  1  0.62650000  0.29140000  0.54190000  1.0 0.1309936284
H  H495  1  0.90420000  0.11430000  0.59890000  1.0 0.1004681606
H  H496  1  0.97990000  0.24600000  0.62370000  1.0 0.1394556068
H  H497  1  0.82970000  0.20890000  0.64470000  1.0 0.1394556068
H  H498  1  0.73960000  0.27020000  0.45930000  1.0 0.1004681606
H  H499  1  0.70740000  0.12340000  0.48630000  1.0 0.1394556068
H  H500  1  0.60700000  0.24800000  0.49820000  1.0 0.1309936284
H  H501  1  0.45190000  0.36500000  0.38710000  1.0 0.1087952209
H  H502  1  0.42280000  0.20960000  0.37040000  1.0 0.1394556068
H  H503  1  0.54170000  0.24560000  0.41420000  1.0 0.1394556068
H  H504  1  0.75820000  0.49140000  0.43890000  1.0 0.1309936284
H  H505  1  0.70240000  0.42240000  0.49570000  1.0 0.1309936284
H  H506  1  0.68720000  0.34470000  0.43640000  1.0 0.0898548387
H  H507  1  0.69210000  0.29900000  0.51600000  1.0 0.1087952209
H  H508  1  0.59510000  0.41850000  0.49300000  1.0 0.1516672418
H  H509  1  0.67220000  0.43540000  0.55230000  1.0 0.1309936284
H  H510  1  0.76840000  0.24620000  0.56060000  1.0 0.1004681606
H  H511  1  0.77910000  0.36580000  0.51460000  1.0 0.1394556068
H  H512  1  0.86480000  0.22900000  0.50620000  1.0 0.1213821931
H  H513  1  0.39120000  0.42550000  0.57200000  1.0 0.1309936284
H  H514  1  0.53770000  0.41460000  0.60100000  1.0 0.1309936284
H  H515  1  0.45000000  0.55120000  0.60780000  1.0 0.1004681606
H  H516  1  0.61720000  0.34780000  0.43680000  1.0 0.0773412082
H  H517  1  0.45620000  0.33070000  0.44540000  1.0 0.1213821931
H  H518  1  0.55640000  0.32170000  0.49890000  1.0 0.1309936284
H  H519  1  0.30500000  0.61220000  0.08470000  1.0 0.1004681606
H  H520  1  0.16410000  0.62840000  0.04540000  1.0 0.1394556068
H  H521  1  0.16540000  0.51800000  0.09510000  1.0 0.1394556068
H  H522  1  0.19320000  0.39850000  0.88070000  1.0 0.1394556068
H  H523  1  0.17880000  0.53030000  0.92000000  1.0 0.1394556068
H  H524  1  0.31810000  0.50320000  0.88670000  1.0 0.1087952209
H  H525  1  0.16430000  0.28930000  0.16520000  1.0 0.1087952209
H  H526  1  0.05490000  0.26690000  0.11560000  1.0 0.1309936284
H  H527  1  0.16130000  0.38950000  0.11150000  1.0 0.1309936284
H  H528  1  0.16440000  0.82300000  0.07960000  1.0 0.1004681606
H  H529  1  0.24970000  0.95910000  0.09140000  1.0 0.1394556068
H  H530  1  0.21930000  0.91250000  0.02760000  1.0 0.1394556068
H  H531  1  0.37850000  0.58420000  0.91580000  1.0 0.1004681606
H  H532  1  0.43380000  0.70350000  0.87550000  1.0 0.1394556068
H  H533  1  0.27980000  0.65200000  0.86950000  1.0 0.1394556068
H  H534  1  0.27370000  0.28860000  0.17130000  1.0 0.1004681606
H  H535  1  0.22100000  0.44250000  0.17820000  1.0 0.1516672418
H  H536  1  0.33120000  0.34920000  0.15080000  1.0 0.0898548387
H  H537  1  0.21740000  0.32100000  0.10360000  1.0 0.1394556068
H  H538  1  0.37050000  0.26710000  0.09420000  1.0 0.1394556068
H  H539  1  0.22050000  0.56890000  0.15640000  1.0 0.1394556068
H  H540  1  0.26670000  0.72350000  0.16490000  1.0 0.1394556068
H  H541  1  0.32680000  0.63610000  0.11330000  1.0 0.0898548387
H  H542  1  0.41250000  0.67200000  0.14090000  1.0 0.1087952209
H  H543  1  0.52180000  0.78320000  0.16090000  1.0 0.1394556068
H  H544  1  0.37260000  0.83030000  0.14210000  1.0 0.1309936284
H  H545  1  0.30980000  0.28860000  0.24980000  1.0 0.1087952209
H  H546  1  0.43190000  0.32540000  0.20720000  1.0 0.1309936284
H  H547  1  0.42290000  0.39830000  0.26790000  1.0 0.1394556068
H  H548  1  0.27790000  0.44910000  0.12810000  1.0 0.1087952209
H  H549  1  0.13390000  0.41680000  0.15710000  1.0 0.1394556068
H  H550  1  0.15710000  0.56210000  0.12800000  1.0 0.1394556068
H  H551  1  0.51990000  0.58210000  0.13890000  1.0 0.1004681606
H  H552  1  0.38530000  0.49640000  0.15680000  1.0 0.1309936284
H  H553  1  0.41020000  0.64530000  0.18200000  1.0 0.1394556068
H  H554  1  0.36660000  0.31350000  0.17220000  1.0 0.0898548387
H  H555  1  0.37620000  0.17090000  0.20470000  1.0 0.1309936284
H  H556  1  0.44910000  0.18970000  0.14480000  1.0 0.1309936284
H  H557  1  0.50800000  0.30400000  0.16090000  1.0 0.1309936284
H  H558  1  0.55350000  0.45720000  0.14770000  1.0 0.1309936284
H  H559  1  0.40950000  0.40250000  0.12520000  1.0 0.1004681606
H  H560  1  0.26060000  0.79070000  0.10980000  1.0 0.1004681606
H  H561  1  0.33350000  0.78500000  0.17060000  1.0 0.1394556068
H  H562  1  0.20880000  0.88660000  0.16030000  1.0 0.1309936284
H  H563  1  0.27640000  0.46370000  0.08480000  1.0 0.1394556068
H  H564  1  0.36940000  0.54510000  0.12930000  1.0 0.1004681606
H  H565  1  0.43370000  0.42550000  0.09150000  1.0 0.1394556068
H  H566  1  0.27340000  0.69650000  0.09520000  1.0 0.0898548387
H  H567  1  0.41790000  0.77000000  0.10180000  1.0 0.1394556068
H  H568  1  0.37350000  0.70860000  0.04190000  1.0 0.1309936284
H  H569  1  0.09580000  0.88570000  0.09890000  1.0 0.1004681606
H  H570  1  0.02010000  0.75400000  0.12370000  1.0 0.1394556068
H  H571  1  0.17030000  0.79110000  0.14470000  1.0 0.1394556068
H  H572  1  0.26040000  0.72980000  0.95930000  1.0 0.1004681606
H  H573  1  0.29260000  0.87660000  0.98630000  1.0 0.1394556068
H  H574  1  0.39300000  0.75200000  0.99820000  1.0 0.1309936284
H  H575  1  0.54810000  0.63500000  0.88710000  1.0 0.1087952209
H  H576  1  0.57720000  0.79040000  0.87040000  1.0 0.1394556068
H  H577  1  0.45830000  0.75440000  0.91420000  1.0 0.1394556068
H  H578  1  0.24180000  0.50860000  0.93890000  1.0 0.1309936284
H  H579  1  0.29760000  0.57760000  0.99570000  1.0 0.1309936284
H  H580  1  0.31280000  0.65530000  0.93640000  1.0 0.0898548387
H  H581  1  0.30790000  0.70100000  0.01600000  1.0 0.1087952209
H  H582  1  0.40490000  0.58150000  0.99300000  1.0 0.1516672418
H  H583  1  0.32780000  0.56460000  0.05230000  1.0 0.1309936284
H  H584  1  0.23160000  0.75380000  0.06060000  1.0 0.1004681606
H  H585  1  0.22090000  0.63420000  0.01460000  1.0 0.1394556068
H  H586  1  0.13520000  0.77100000  0.00620000  1.0 0.1213821931
H  H587  1  0.60880000  0.57450000  0.07200000  1.0 0.1309936284
H  H588  1  0.46230000  0.58540000  0.10100000  1.0 0.1309936284
H  H589  1  0.55000000  0.44880000  0.10780000  1.0 0.1004681606
H  H590  1  0.38280000  0.65220000  0.93680000  1.0 0.0773412082
H  H591  1  0.54380000  0.66930000  0.94540000  1.0 0.1213821931
H  H592  1  0.44360000  0.67830000  0.99890000  1.0 0.1309936284
C  C1  1  0.39940000  0.79590000  0.43320000  1.0 0.1891887256
C  C2  1  0.43240000  0.79550000  0.41840000  1.0 0.1891887256
C  C3  1  0.39630000  0.72550000  0.41850000  1.0 0.0898548387
C  C4  1  0.39390000  0.83560000  0.44470000  1.0 -0.2210214141
C  C5  1  0.42160000  0.87490000  0.44140000  1.0 0.0499330683
C  C6  1  0.45470000  0.87450000  0.42670000  1.0 0.0499330683
C  C7  1  0.46010000  0.83480000  0.41490000  1.0 -0.2210214141
C  C8  1  0.52740000  0.85530000  0.58960000  1.0 0.0693901502
C  C9  1  0.56670000  0.85100000  0.60140000  1.0 0.0605489564
C  C10  1  0.57530000  0.81000000  0.61140000  1.0 -0.2210214141
C  C11  1  0.54400000  0.77440000  0.60910000  1.0 0.1589397469
C  C12  1  0.50620000  0.77870000  0.59780000  1.0 0.1516672418
C  C13  1  0.49640000  0.81870000  0.58780000  1.0 -0.2290953525
C  C14  1  0.50580000  0.71220000  0.61010000  1.0 0.1394556068
C  C15  1  0.70190000  0.84840000  0.34680000  1.0 0.1394556068
C  C16  1  0.70850000  0.92390000  0.38550000  1.0 -0.2210214141
C  C17  1  0.70060000  0.89100000  0.37150000  1.0 0.1516672418
C  C18  1  0.66560000  0.86040000  0.37270000  1.0 0.1516672418
C  C19  1  0.63500000  0.86010000  0.38800000  1.0 -0.2210214141
C  C20  1  0.64180000  0.89290000  0.40250000  1.0 0.0605489564
C  C21  1  0.67850000  0.92470000  0.40130000  1.0 0.0693901502
C  C22  1  0.10430000  0.78720000  0.44400000  1.0 0.1589397469
C  C23  1  0.15150000  0.81870000  0.42500000  1.0 0.1309936284
C  C24  1  0.09080000  0.77850000  0.42570000  1.0 0.1589397469
C  C25  1  0.05010000  0.75560000  0.42140000  1.0 -0.2118928564
C  C26  1  0.02330000  0.74090000  0.43710000  1.0 0.0693901502
C  C27  1  0.03720000  0.74980000  0.45600000  1.0 0.0693901502
C  C28  1  0.07810000  0.77380000  0.45970000  1.0 -0.2210214141
C  C29  1  0.34320000  0.61410000  0.61524000  1.0 0.1516672418
C  C30  1  0.35810000  0.65830000  0.61700000  1.0 0.1516672418
C  C31  1  0.39500000  0.62620000  0.59450000  1.0 0.1087952209
C  C32  1  0.28610000  0.62700000  0.63908000  1.0 0.0499330683
C  C33  1  0.30680000  0.59690000  0.62600000  1.0 -0.2210214141
C  C34  1  0.33770000  0.68930000  0.62960000  1.0 -0.2492570302
C  C35  1  0.30130000  0.67280000  0.64080000  1.0 0.0605489564
C  C36  1  0.68460000  0.72960000  0.32110000  1.0 0.1213821931
C  C37  1  0.61310000  0.70700000  0.28230000  1.0 -0.1509124769
C  C38  1  0.56670000  0.72030000  0.28120000  1.0 0.0404143021
C  C39  1  0.54630000  0.74740000  0.29560000  1.0 0.0499330683
C  C40  1  0.57150000  0.76200000  0.31180000  1.0 -0.2399043213
C  C41  1  0.61760000  0.75010000  0.31230000  1.0 0.1696966486
C  C42  1  0.63810000  0.72280000  0.29770000  1.0 0.1394556068
C  C43  1  0.66160000  0.67670000  0.36160000  1.0 0.1213821931
C  C44  1  0.71650000  0.74030000  0.41430000  1.0 0.0605489564
C  C45  1  0.68880000  0.75190000  0.39860000  1.0 -0.2787471042
C  C46  1  0.67650000  0.71670000  0.38630000  1.0 0.1891887256
C  C47  1  0.69270000  0.67090000  0.38910000  1.0 0.1696966486
C  C48  1  0.72130000  0.65980000  0.40420000  1.0 -0.2210214141
C  C49  1  0.73240000  0.69500000  0.41720000  1.0 0.0330805768
C  C50  1  0.37320000  0.78970000  0.32720000  1.0 0.0499330683
C  C51  1  0.32710000  0.77600000  0.32470000  1.0 0.0499330683
C  C52  1  0.40030000  0.77000000  0.34160000  1.0 -0.2210214141
C  C53  1  0.30770000  0.74240000  0.33650000  1.0 -0.2399043213
C  C54  1  0.33570000  0.72280000  0.35030000  1.0 0.1589397469
C  C55  1  0.38030000  0.73610000  0.35280000  1.0 0.1516672418
C  C56  1  0.36200000  0.69110000  0.37540000  1.0 0.1213821931
C  C57  1  0.29700000  0.57970000  0.35650000  1.0 0.1309936284
C  C58  1  0.22460000  0.58440000  0.35380000  1.0 0.1516672418
C  C59  1  0.20690000  0.50800000  0.34280000  1.0 -0.2118928564
C  C60  1  0.16020000  0.51990000  0.34290000  1.0 0.0605489564
C  C61  1  0.14610000  0.56430000  0.34860000  1.0 0.0693901502
C  C62  1  0.23810000  0.54140000  0.34840000  1.0 0.1589397469
C  C63  1  0.17870000  0.59740000  0.35410000  1.0 -0.2399043213
C  C64  1  0.69450000  0.66320000  0.25300000  1.0 0.1394556068
C  C65  1  0.64840000  0.60720000  0.25030000  1.0 0.1589397469
C  C66  1  0.66920000  0.60470000  0.26780000  1.0 0.1589397469
C  C67  1  0.65980000  0.56960000  0.28070000  1.0 -0.2210214141
C  C68  1  0.62750000  0.53630000  0.27520000  1.0 0.0605489564
C  C69  1  0.60580000  0.53890000  0.25710000  1.0 0.0605489564
C  C70  1  0.61610000  0.57490000  0.24430000  1.0 -0.2210214141
C  C71  1  0.54090000  0.75190000  0.36840000  1.0 0.1394556068
C  C72  1  0.49980000  0.81340000  0.36510000  1.0 0.1309936284
C  C73  1  0.54170000  0.82020000  0.35690000  1.0 0.1589397469
C  C74  1  0.52120000  0.89730000  0.34890000  1.0 0.0693901502
C  C75  1  0.55390000  0.86180000  0.34860000  1.0 -0.2290953525
C  C76  1  0.47800000  0.89030000  0.35770000  1.0 0.0605489564
C  C77  1  0.46670000  0.84780000  0.36600000  1.0 -0.2118928564
C  C78  1  0.44910000  0.57040000  0.34180000  1.0 0.1309936284
C  C79  1  0.42140000  0.50750000  0.35390000  1.0 0.1589397469
C  C80  1  0.40630000  0.56320000  0.33460000  1.0 0.1696966486
C  C81  1  0.47400000  0.60990000  0.33790000  1.0 -0.2492570302
C  C82  1  0.45370000  0.64250000  0.32570000  1.0 0.0605489564
C  C83  1  0.40920000  0.63510000  0.31820000  1.0 0.0605489564
C  C84  1  0.38480000  0.59500000  0.32280000  1.0 -0.2399043213
C  C85  1  0.28450000  0.43810000  0.29340000  1.0 0.1589397469
C  C86  1  0.29340000  0.47370000  0.30570000  1.0 0.1309936284
C  C87  1  0.34020000  0.41970000  0.31140000  1.0 0.1087952209
C  C88  1  0.26870000  0.51460000  0.30510000  1.0 -0.1727980806
C  C89  1  0.23370000  0.51810000  0.29120000  1.0 0.0605489564
C  C90  1  0.22470000  0.48080000  0.27860000  1.0 0.0404143021
C  C91  1  0.25050000  0.44060000  0.27950000  1.0 -0.1596061599
C  C92  1  0.71670000  0.62140000  0.32690000  1.0 0.1309936284
C  C93  1  0.82560000  0.60840000  0.30710000  1.0 -0.1990825372
C  C94  1  0.86310000  0.58650000  0.31590000  1.0 0.0499330683
C  C95  1  0.85750000  0.56450000  0.33390000  1.0 0.0693901502
C  C96  1  0.81440000  0.56470000  0.34310000  1.0 -0.2290953525
C  C97  1  0.77820000  0.58590000  0.33370000  1.0 0.1696966486
C  C98  1  0.78330000  0.60680000  0.31640000  1.0 0.1589397469
C  C99  1  0.60330000  0.42580000  0.33950000  1.0 0.0605489564
C  C100  1  0.64900000  0.43950000  0.33560000  1.0 0.0499330683
C  C101  1  0.66530000  0.48270000  0.34150000  1.0 -0.2290953525
C  C102  1  0.63430000  0.51120000  0.35097000  1.0 0.1516672418
C  C103  1  0.59040000  0.49800000  0.35479000  1.0 0.1516672418
C  C104  1  0.57340000  0.45530000  0.34940000  1.0 -0.2399043213
C  C105  1  0.60230000  0.56300000  0.36770000  1.0 0.1516672418
C  C106  1  0.13480000  0.74380000  0.31960000  1.0 0.0693901502
C  C107  1  0.19920000  0.73720000  0.37730000  1.0 0.1516672418
C  C108  1  0.16290000  0.75020000  0.35140000  1.0 0.1516672418
C  C109  1  0.16530000  0.70640000  0.31640000  1.0 0.0605489564
C  C110  1  0.19440000  0.69140000  0.33120000  1.0 -0.2118928564
C  C111  1  0.19190000  0.71440000  0.34860000  1.0 0.1516672418
C  C112  1  0.13350000  0.76610000  0.33740000  1.0 -0.2290953525
C  C113  1  0.54400000  0.69210000  0.41410000  1.0 -0.2290953525
C  C114  1  0.47720000  0.63360000  0.38050000  1.0 0.1516672418
C  C115  1  0.58070000  0.67310000  0.42440000  1.0 0.0499330683
C  C116  1  0.51940000  0.66260000  0.40220000  1.0 0.1516672418
C  C117  1  0.56690000  0.59770000  0.41010000  1.0 -0.2492570302
C  C118  1  0.53050000  0.61760000  0.40020000  1.0 0.1516672418
C  C119  1  0.59210000  0.62620000  0.42250000  1.0 0.0605489564
C  C120  1  0.25930000  0.63430000  0.41350000  1.0 0.1589397469
C  C121  1  0.29220000  0.69920000  0.41040000  1.0 0.1087952209
C  C122  1  0.24150000  0.59080000  0.41040000  1.0 -0.2492570302
C  C123  1  0.27710000  0.64720000  0.43070000  1.0 0.1516672418
C  C124  1  0.27820000  0.61750000  0.44630000  1.0 -0.2290953525
C  C125  1  0.25910000  0.57360000  0.44390000  1.0 0.0605489564
C  C126  1  0.24100000  0.56030000  0.42590000  1.0 0.0605489564
C  C127  1  0.18880000  0.88390000  0.37190000  1.0 0.1589397469
C  C128  1  0.19960000  0.92720000  0.37803000  1.0 0.1589397469
C  C129  1  0.14010000  0.90460000  0.39280000  1.0 0.1213821931
C  C130  1  0.23880000  0.95000000  0.37190000  1.0 -0.2290953525
C  C131  1  0.21640000  0.85990000  0.35930000  1.0 -0.2399043213
C  C132  1  0.26730000  0.92690000  0.35880000  1.0 0.0499330683
C  C133  1  0.25630000  0.88210000  0.35250000  1.0 0.0605489564
C  C134  1  0.22660000  0.66450000  0.51620000  1.0 0.1516672418
C  C135  1  0.19070000  0.69300000  0.51990000  1.0 0.1516672418
C  C136  1  0.25050000  0.72000000  0.53350000  1.0 0.1394556068
C  C137  1  0.14790000  0.68670000  0.51140000  1.0 -0.2210214141
C  C138  1  0.14240000  0.64850000  0.49940000  1.0 0.0693901502
C  C139  1  0.17960000  0.61850000  0.49590000  1.0 0.0693901502
C  C140  1  0.22260000  0.62660000  0.50420000  1.0 -0.2210214141
C  C141  1  0.26130000  0.45840000  0.61640000  1.0 0.1516672418
C  C142  1  0.33340000  0.45960000  0.61210000  1.0 0.1394556068
C  C143  1  0.27160000  0.49280000  0.60400000  1.0 0.1516672418
C  C144  1  0.21630000  0.44710000  0.62100000  1.0 -0.2492570302
C  C145  1  0.18110000  0.47270000  0.61240000  1.0 0.0605489564
C  C146  1  0.19190000  0.50820000  0.59910000  1.0 0.0605489564
C  C147  1  0.23790000  0.51830000  0.59470000  1.0 -0.2118928564
C  C148  1  0.47760000  0.74790000  0.54950000  1.0 -0.1990825372
C  C149  1  0.43290000  0.73130000  0.54920000  1.0 0.1516672418
C  C150  1  0.41320000  0.71490000  0.53290000  1.0 0.1516672418
C  C151  1  0.43630000  0.71430000  0.51550000  1.0 -0.2210214141
C  C152  1  0.48120000  0.73210000  0.51520000  1.0 0.0693901502
C  C153  1  0.36980000  0.69880000  0.55640000  1.0 0.1087952209
C  C154  1  0.50160000  0.74890000  0.53200000  1.0 0.0605489564
C  C155  1  0.32840000  0.67860000  0.48250000  1.0 0.1309936284
C  C156  1  0.39320000  0.66100000  0.47070000  1.0 0.1589397469
C  C157  1  0.38830000  0.63900000  0.48780000  1.0 0.1516672418
C  C158  1  0.42220000  0.61020000  0.49500000  1.0 -0.2290953525
C  C159  1  0.46210000  0.60450000  0.48400000  1.0 0.0605489564
C  C160  1  0.46730000  0.62750000  0.46630000  1.0 0.0605489564
C  C161  1  0.43240000  0.65640000  0.45950000  1.0 -0.2290953525
C  C162  1  0.33230000  0.82350000  0.50370000  1.0 0.0605489564
C  C163  1  0.25830000  0.78140000  0.45070000  1.0 0.1309936284
C  C164  1  0.30360000  0.79670000  0.47360000  1.0 0.1394556068
C  C165  1  0.26440000  0.82120000  0.47610000  1.0 0.1516672418
C  C166  1  0.33870000  0.79670000  0.48730000  1.0 -0.2290953525
C  C167  1  0.29140000  0.84900000  0.50630000  1.0 0.0404143021
C  C168  1  0.25670000  0.84790000  0.49230000  1.0 -0.2492570302
C  C169  1  0.45970000  0.44070000  0.41280000  1.0 0.1516672418
C  C170  1  0.42300000  0.42080000  0.42240000  1.0 -0.2210214141
C  C171  1  0.38210000  0.44620000  0.42360000  1.0 0.0693901502
C  C172  1  0.37880000  0.49000000  0.41500000  1.0 0.0773412082
C  C173  1  0.45630000  0.48260000  0.40440000  1.0 0.1516672418
C  C174  1  0.41640000  0.50860000  0.40510000  1.0 -0.2399043213
C  C175  1  0.52140000  0.45370000  0.39740000  1.0 0.1394556068
C  C176  1  0.34240000  0.59160000  0.55510000  1.0 0.1309936284
C  C177  1  0.32940000  0.55210000  0.53030000  1.0 0.1589397469
C  C178  1  0.33220000  0.52340000  0.54570000  1.0 0.1784675605
C  C179  1  0.32870000  0.47590000  0.54380000  1.0 -0.2492570302
C  C180  1  0.32210000  0.45850000  0.52520000  1.0 0.0605489564
C  C181  1  0.31940000  0.48830000  0.50930000  1.0 0.0693901502
C  C182  1  0.32320000  0.53600000  0.51170000  1.0 -0.2290953525
C  C183  1  0.60060000  0.20410000  0.93320000  1.0 0.1891887256
C  C184  1  0.56760000  0.20450000  0.91840000  1.0 0.1891887256
C  C185  1  0.60370000  0.27450000  0.91850000  1.0 0.1004681606
C  C186  1  0.60610000  0.16440000  0.94470000  1.0 -0.2210214141
C  C187  1  0.57840000  0.12510000  0.94140000  1.0 0.0499330683
C  C188  1  0.54530000  0.12550000  0.92670000  1.0 0.0499330683
C  C189  1  0.53990000  0.16520000  0.91490000  1.0 -0.2210214141
C  C190  1  0.47260000  0.14470000  0.08960000  1.0 0.0693901502
C  C191  1  0.43330000  0.14900000  0.10140000  1.0 0.0605489564
C  C192  1  0.42470000  0.19000000  0.11140000  1.0 -0.2210214141
C  C193  1  0.45600000  0.22560000  0.10910000  1.0 0.1589397469
C  C194  1  0.49380000  0.22130000  0.09780000  1.0 0.1516672418
C  C195  1  0.50360000  0.18130000  0.08780000  1.0 -0.2290953525
C  C196  1  0.49420000  0.28780000  0.11010000  1.0 0.1394556068
C  C197  1  0.29810000  0.15160000  0.84680000  1.0 0.1394556068
C  C198  1  0.29150000  0.07610000  0.88550000  1.0 -0.2210214141
C  C199  1  0.29940000  0.10900000  0.87150000  1.0 0.1516672418
C  C200  1  0.33440000  0.13960000  0.87270000  1.0 0.1516672418
C  C201  1  0.36500000  0.13990000  0.88800000  1.0 -0.2210214141
C  C202  1  0.35820000  0.10710000  0.90250000  1.0 0.0605489564
C  C203  1  0.32150000  0.07530000  0.90130000  1.0 0.0693901502
C  C204  1  0.89570000  0.21280000  0.94400000  1.0 0.1589397469
C  C205  1  0.84850000  0.18130000  0.92500000  1.0 0.1309936284
C  C206  1  0.90920000  0.22150000  0.92570000  1.0 0.1589397469
C  C207  1  0.94990000  0.24440000  0.92140000  1.0 -0.2118928564
C  C208  1  0.97670000  0.25910000  0.93710000  1.0 0.0693901502
C  C209  1  0.96280000  0.25020000  0.95600000  1.0 0.0693901502
C  C210  1  0.92190000  0.22620000  0.95970000  1.0 -0.2210214141
C  C211  1  0.65680000  0.38590000  0.11524000  1.0 0.1516672418
C  C212  1  0.64190000  0.34170000  0.11700000  1.0 0.1516672418
C  C213  1  0.60500000  0.37380000  0.09450000  1.0 0.1087952209
C  C214  1  0.71390000  0.37300000  0.13908000  1.0 0.0499330683
C  C215  1  0.69320000  0.40310000  0.12600000  1.0 -0.2210214141
C  C216  1  0.66230000  0.31070000  0.12960000  1.0 -0.2492570302
C  C217  1  0.69870000  0.32720000  0.14080000  1.0 0.0605489564
C  C218  1  0.31540000  0.27040000  0.82110000  1.0 0.1213821931
C  C219  1  0.38690000  0.29300000  0.78230000  1.0 -0.1509124769
C  C220  1  0.43330000  0.27970000  0.78120000  1.0 0.0404143021
C  C221  1  0.45370000  0.25260000  0.79560000  1.0 0.0499330683
C  C222  1  0.42850000  0.23800000  0.81180000  1.0 -0.2399043213
C  C223  1  0.38240000  0.24990000  0.81230000  1.0 0.1696966486
C  C224  1  0.36190000  0.27720000  0.79770000  1.0 0.1394556068
C  C225  1  0.33840000  0.32330000  0.86160000  1.0 0.1213821931
C  C226  1  0.28350000  0.25970000  0.91430000  1.0 0.0605489564
C  C227  1  0.31120000  0.24810000  0.89860000  1.0 -0.2787471042
C  C228  1  0.32350000  0.28330000  0.88630000  1.0 0.1891887256
C  C229  1  0.30730000  0.32910000  0.88910000  1.0 0.1696966486
C  C230  1  0.27870000  0.34020000  0.90420000  1.0 -0.2210214141
C  C231  1  0.26760000  0.30500000  0.91720000  1.0 0.0330805768
C  C232  1  0.62680000  0.21030000  0.82720000  1.0 0.0499330683
C  C233  1  0.67290000  0.22400000  0.82470000  1.0 0.0499330683
C  C234  1  0.59970000  0.23000000  0.84160000  1.0 -0.2210214141
C  C235  1  0.69230000  0.25760000  0.83650000  1.0 -0.2399043213
C  C236  1  0.66430000  0.27720000  0.85030000  1.0 0.1589397469
C  C237  1  0.61970000  0.26390000  0.85280000  1.0 0.1516672418
C  C238  1  0.63800000  0.30890000  0.87540000  1.0 0.1309936284
C  C239  1  0.70300000  0.42030000  0.85650000  1.0 0.1309936284
C  C240  1  0.77540000  0.41560000  0.85380000  1.0 0.1516672418
C  C241  1  0.79310000  0.49200000  0.84280000  1.0 -0.2118928564
C  C242  1  0.83980000  0.48010000  0.84290000  1.0 0.0605489564
C  C243  1  0.85390000  0.43570000  0.84860000  1.0 0.0693901502
C  C244  1  0.76190000  0.45860000  0.84840000  1.0 0.1589397469
C  C245  1  0.82130000  0.40260000  0.85410000  1.0 -0.2399043213
C  C246  1  0.30550000  0.33680000  0.75300000  1.0 0.1394556068
C  C247  1  0.35160000  0.39280000  0.75030000  1.0 0.1589397469
C  C248  1  0.33080000  0.39530000  0.76780000  1.0 0.1589397469
C  C249  1  0.34020000  0.43040000  0.78070000  1.0 -0.2210214141
C  C250  1  0.37250000  0.46370000  0.77520000  1.0 0.0605489564
C  C251  1  0.39420000  0.46110000  0.75710000  1.0 0.0605489564
C  C252  1  0.38390000  0.42510000  0.74430000  1.0 -0.2210214141
C  C253  1  0.45910000  0.24810000  0.86840000  1.0 0.1394556068
C  C254  1  0.50020000  0.18660000  0.86510000  1.0 0.1309936284
C  C255  1  0.45830000  0.17980000  0.85690000  1.0 0.1589397469
C  C256  1  0.47880000  0.10270000  0.84890000  1.0 0.0693901502
C  C257  1  0.44610000  0.13820000  0.84860000  1.0 -0.2290953525
C  C258  1  0.52200000  0.10970000  0.85770000  1.0 0.0605489564
C  C259  1  0.53330000  0.15220000  0.86600000  1.0 -0.2118928564
C  C260  1  0.55090000  0.42960000  0.84180000  1.0 0.1309936284
C  C261  1  0.57860000  0.49250000  0.85390000  1.0 0.1589397469
C  C262  1  0.59370000  0.43680000  0.83460000  1.0 0.1696966486
C  C263  1  0.52600000  0.39010000  0.83790000  1.0 -0.2492570302
C  C264  1  0.54630000  0.35750000  0.82570000  1.0 0.0605489564
C  C265  1  0.59080000  0.36490000  0.81820000  1.0 0.0605489564
C  C266  1  0.61520000  0.40500000  0.82280000  1.0 -0.2399043213
C  C267  1  0.71550000  0.56190000  0.79340000  1.0 0.1589397469
C  C268  1  0.70660000  0.52630000  0.80570000  1.0 0.1309936284
C  C269  1  0.65980000  0.58030000  0.81140000  1.0 0.1087952209
C  C270  1  0.73130000  0.48540000  0.80510000  1.0 -0.1727980806
C  C271  1  0.76630000  0.48190000  0.79120000  1.0 0.0605489564
C  C272  1  0.77530000  0.51920000  0.77860000  1.0 0.0404143021
C  C273  1  0.74950000  0.55940000  0.77950000  1.0 -0.1596061599
C  C274  1  0.28330000  0.37860000  0.82690000  1.0 0.1309936284
C  C275  1  0.17440000  0.39160000  0.80710000  1.0 -0.1990825372
C  C276  1  0.13690000  0.41350000  0.81590000  1.0 0.0499330683
C  C277  1  0.14250000  0.43550000  0.83390000  1.0 0.0693901502
C  C278  1  0.18560000  0.43530000  0.84310000  1.0 -0.2290953525
C  C279  1  0.22180000  0.41410000  0.83370000  1.0 0.1696966486
C  C280  1  0.21670000  0.39320000  0.81640000  1.0 0.1589397469
C  C281  1  0.39670000  0.57420000  0.83950000  1.0 0.0605489564
C  C282  1  0.35100000  0.56050000  0.83560000  1.0 0.0499330683
C  C283  1  0.33470000  0.51730000  0.84150000  1.0 -0.2290953525
C  C284  1  0.36570000  0.48880000  0.85097000  1.0 0.1516672418
C  C285  1  0.40960000  0.50200000  0.85479000  1.0 0.1516672418
C  C286  1  0.42660000  0.54470000  0.84940000  1.0 -0.2399043213
C  C287  1  0.39770000  0.43700000  0.86770000  1.0 0.1516672418
C  C288  1  0.86520000  0.25620000  0.81960000  1.0 0.0693901502
C  C289  1  0.80080000  0.26280000  0.87730000  1.0 0.1516672418
C  C290  1  0.83710000  0.24980000  0.85140000  1.0 0.1516672418
C  C291  1  0.83470000  0.29360000  0.81640000  1.0 0.0605489564
C  C292  1  0.80560000  0.30860000  0.83120000  1.0 -0.2118928564
C  C293  1  0.80810000  0.28560000  0.84860000  1.0 0.1516672418
C  C294  1  0.86650000  0.23390000  0.83740000  1.0 -0.2290953525
C  C295  1  0.45600000  0.30790000  0.91410000  1.0 -0.2290953525
C  C296  1  0.52280000  0.36640000  0.88050000  1.0 0.1516672418
C  C297  1  0.41930000  0.32690000  0.92440000  1.0 0.0499330683
C  C298  1  0.48060000  0.33740000  0.90220000  1.0 0.1516672418
C  C299  1  0.43310000  0.40230000  0.91010000  1.0 -0.2492570302
C  C300  1  0.46950000  0.38240000  0.90020000  1.0 0.1516672418
C  C301  1  0.40790000  0.37380000  0.92250000  1.0 0.0605489564
C  C302  1  0.74070000  0.36570000  0.91350000  1.0 0.1589397469
C  C303  1  0.70780000  0.30080000  0.91040000  1.0 0.1087952209
C  C304  1  0.75850000  0.40920000  0.91040000  1.0 -0.2492570302
C  C305  1  0.72290000  0.35280000  0.93070000  1.0 0.1516672418
C  C306  1  0.72180000  0.38250000  0.94630000  1.0 -0.2290953525
C  C307  1  0.74090000  0.42640000  0.94390000  1.0 0.0605489564
C  C308  1  0.75900000  0.43970000  0.92590000  1.0 0.0605489564
C  C309  1  0.81120000  0.11610000  0.87190000  1.0 0.1589397469
C  C310  1  0.80040000  0.07280000  0.87803000  1.0 0.1589397469
C  C311  1  0.85990000  0.09540000  0.89280000  1.0 0.1213821931
C  C312  1  0.76120000  0.05000000  0.87190000  1.0 -0.2290953525
C  C313  1  0.78360000  0.14010000  0.85930000  1.0 -0.2399043213
C  C314  1  0.73270000  0.07310000  0.85880000  1.0 0.0499330683
C  C315  1  0.74370000  0.11790000  0.85250000  1.0 0.0605489564
C  C316  1  0.77340000  0.33550000  0.01620000  1.0 0.1516672418
C  C317  1  0.80930000  0.30700000  0.01990000  1.0 0.1516672418
C  C318  1  0.74950000  0.28000000  0.03350000  1.0 0.1394556068
C  C319  1  0.85210000  0.31330000  0.01140000  1.0 -0.2210214141
C  C320  1  0.85760000  0.35150000  0.99940000  1.0 0.0693901502
C  C321  1  0.82040000  0.38150000  0.99590000  1.0 0.0693901502
C  C322  1  0.77740000  0.37340000  0.00420000  1.0 -0.2210214141
C  C323  1  0.73870000  0.54160000  0.11640000  1.0 0.1516672418
C  C324  1  0.66666667  0.54040000  0.11210000  1.0 0.1394556068
C  C325  1  0.72840000  0.50720000  0.10400000  1.0 0.1516672418
C  C326  1  0.78370000  0.55290000  0.12100000  1.0 -0.2399043213
C  C327  1  0.81890000  0.52730000  0.11240000  1.0 0.0605489564
C  C328  1  0.80810000  0.49180000  0.09910000  1.0 0.0605489564
C  C329  1  0.76210000  0.48170000  0.09470000  1.0 -0.2118928564
C  C330  1  0.52240000  0.25210000  0.04950000  1.0 -0.1990825372
C  C331  1  0.56710000  0.26870000  0.04920000  1.0 0.1516672418
C  C332  1  0.58680000  0.28510000  0.03290000  1.0 0.1516672418
C  C333  1  0.56370000  0.28570000  0.01550000  1.0 -0.2290953525
C  C334  1  0.51880000  0.26790000  0.01520000  1.0 0.0693901502
C  C335  1  0.63020000  0.30120000  0.05640000  1.0 0.1087952209
C  C336  1  0.49840000  0.25110000  0.03200000  1.0 0.0605489564
C  C337  1  0.67160000  0.32140000  0.98250000  1.0 0.1309936284
C  C338  1  0.60680000  0.33900000  0.97070000  1.0 0.1589397469
C  C339  1  0.61170000  0.36100000  0.98780000  1.0 0.1516672418
C  C340  1  0.57780000  0.38980000  0.99500000  1.0 -0.2290953525
C  C341  1  0.53790000  0.39550000  0.98400000  1.0 0.0605489564
C  C342  1  0.53270000  0.37250000  0.96630000  1.0 0.0605489564
C  C343  1  0.56760000  0.34360000  0.95950000  1.0 -0.2290953525
C  C344  1  0.66770000  0.17650000  0.00370000  1.0 0.0605489564
C  C345  1  0.74170000  0.21860000  0.95070000  1.0 0.1309936284
C  C346  1  0.69640000  0.20330000  0.97360000  1.0 0.1394556068
C  C347  1  0.73560000  0.17880000  0.97610000  1.0 0.1516672418
C  C348  1  0.66130000  0.20330000  0.98730000  1.0 -0.2290953525
C  C349  1  0.70860000  0.15100000  0.00630000  1.0 0.0404143021
C  C350  1  0.74330000  0.15210000  0.99230000  1.0 -0.2492570302
C  C351  1  0.54030000  0.55930000  0.91280000  1.0 0.1516672418
C  C352  1  0.57700000  0.57920000  0.92240000  1.0 -0.2210214141
C  C353  1  0.61790000  0.55380000  0.92360000  1.0 0.0693901502
C  C354  1  0.62120000  0.51000000  0.91500000  1.0 0.0773412082
C  C355  1  0.54370000  0.51740000  0.90440000  1.0 0.1516672418
C  C356  1  0.58360000  0.49140000  0.90510000  1.0 -0.2399043213
C  C357  1  0.47860000  0.54630000  0.89740000  1.0 0.1394556068
C  C358  1  0.65760000  0.40840000  0.05510000  1.0 0.1309936284
C  C359  1  0.67060000  0.44790000  0.03030000  1.0 0.1589397469
C  C360  1  0.66780000  0.47660000  0.04570000  1.0 0.1784675605
C  C361  1  0.67130000  0.52410000  0.04380000  1.0 -0.2492570302
C  C362  1  0.67790000  0.54150000  0.02520000  1.0 0.0605489564
C  C363  1  0.68060000  0.51170000  0.00930000  1.0 0.0693901502
C  C364  1  0.67680000  0.46400000  0.01170000  1.0 -0.2290953525
C  C365  1  0.70410000  0.89940000  0.18320000  1.0 0.1891887256
C  C366  1  0.70450000  0.93240000  0.16840000  1.0 0.1891887256
C  C367  1  0.77450000  0.89630000  0.16850000  1.0 0.0898548387
C  C368  1  0.66440000  0.89390000  0.19470000  1.0 -0.2210214141
C  C369  1  0.62510000  0.92160000  0.19140000  1.0 0.0499330683
C  C370  1  0.62550000  0.95470000  0.17670000  1.0 0.0499330683
C  C371  1  0.66520000  0.96010000  0.16490000  1.0 -0.2210214141
C  C372  1  0.64470000  0.02740000  0.33960000  1.0 0.0693901502
C  C373  1  0.64900000  0.06670000  0.35140000  1.0 0.0605489564
C  C374  1  0.69000000  0.07530000  0.36140000  1.0 -0.2210214141
C  C375  1  0.72560000  0.04400000  0.35910000  1.0 0.1589397469
C  C376  1  0.72130000  0.00620000  0.34780000  1.0 0.1516672418
C  C377  1  0.68130000  0.99640000  0.33780000  1.0 -0.2290953525
C  C378  1  0.78780000  0.00580000  0.36010000  1.0 0.1394556068
C  C379  1  0.65160000  0.20190000  0.09680000  1.0 0.1394556068
C  C380  1  0.57610000  0.20850000  0.13550000  1.0 -0.2210214141
C  C381  1  0.60900000  0.20060000  0.12150000  1.0 0.1516672418
C  C382  1  0.63960000  0.16560000  0.12270000  1.0 0.1516672418
C  C383  1  0.63990000  0.13500000  0.13800000  1.0 -0.2210214141
C  C384  1  0.60710000  0.14180000  0.15250000  1.0 0.0605489564
C  C385  1  0.57530000  0.17850000  0.15130000  1.0 0.0693901502
C  C386  1  0.71280000  0.60430000  0.19400000  1.0 0.1589397469
C  C387  1  0.68130000  0.65150000  0.17500000  1.0 0.1309936284
C  C388  1  0.72150000  0.59080000  0.17570000  1.0 0.1589397469
C  C389  1  0.74440000  0.55010000  0.17140000  1.0 -0.2118928564
C  C390  1  0.75910000  0.52330000  0.18710000  1.0 0.0693901502
C  C391  1  0.75020000  0.53720000  0.20600000  1.0 0.0693901502
C  C392  1  0.72620000  0.57810000  0.20970000  1.0 -0.2210214141
C  C393  1  0.88590000  0.84320000  0.36524000  1.0 0.1516672418
C  C394  1  0.84170000  0.85810000  0.36700000  1.0 0.1516672418
C  C395  1  0.87380000  0.89500000  0.34450000  1.0 0.1087952209
C  C396  1  0.87300000  0.78610000  0.38908000  1.0 0.0499330683
C  C397  1  0.90310000  0.80680000  0.37600000  1.0 -0.2210214141
C  C398  1  0.81070000  0.83770000  0.37960000  1.0 -0.2492570302
C  C399  1  0.82720000  0.80130000  0.39080000  1.0 0.0605489564
C  C400  1  0.77040000  0.18460000  0.07110000  1.0 0.1213821931
C  C401  1  0.79300000  0.11310000  0.03230000  1.0 -0.1509124769
C  C402  1  0.77970000  0.06670000  0.03120000  1.0 0.0404143021
C  C403  1  0.75260000  0.04630000  0.04560000  1.0 0.0499330683
C  C404  1  0.73800000  0.07150000  0.06180000  1.0 -0.2399043213
C  C405  1  0.74990000  0.11760000  0.06230000  1.0 0.1696966486
C  C406  1  0.77720000  0.13810000  0.04770000  1.0 0.1394556068
C  C407  1  0.82330000  0.16160000  0.11160000  1.0 0.1213821931
C  C408  1  0.75970000  0.21650000  0.16430000  1.0 0.0605489564
C  C409  1  0.74810000  0.18880000  0.14860000  1.0 -0.2787471042
C  C410  1  0.78330000  0.17650000  0.13630000  1.0 0.1891887256
C  C411  1  0.82910000  0.19270000  0.13910000  1.0 0.1696966486
C  C412  1  0.84020000  0.22130000  0.15420000  1.0 -0.2210214141
C  C413  1  0.80500000  0.23240000  0.16720000  1.0 0.0330805768
C  C414  1  0.71030000  0.87320000  0.07720000  1.0 0.0499330683
C  C415  1  0.72400000  0.82710000  0.07470000  1.0 0.0499330683
C  C416  1  0.73000000  0.90030000  0.09160000  1.0 -0.2210214141
C  C417  1  0.75760000  0.80770000  0.08650000  1.0 -0.2399043213
C  C418  1  0.77720000  0.83570000  0.10030000  1.0 0.1589397469
C  C419  1  0.76390000  0.88030000  0.10280000  1.0 0.1516672418
C  C420  1  0.80890000  0.86200000  0.12540000  1.0 0.1213821931
C  C421  1  0.92030000  0.79700000  0.10650000  1.0 0.1309936284
C  C422  1  0.91560000  0.72460000  0.10380000  1.0 0.1516672418
C  C423  1  0.99200000  0.70690000  0.09280000  1.0 -0.2118928564
C  C424  1  0.98010000  0.66020000  0.09290000  1.0 0.0605489564
C  C425  1  0.93570000  0.64610000  0.09860000  1.0 0.0693901502
C  C426  1  0.95860000  0.73810000  0.09840000  1.0 0.1589397469
C  C427  1  0.90260000  0.67870000  0.10410000  1.0 -0.2399043213
C  C428  1  0.83680000  0.19450000  0.00300000  1.0 0.1394556068
C  C429  1  0.89280000  0.14840000  0.00030000  1.0 0.1589397469
C  C430  1  0.89530000  0.16920000  0.01780000  1.0 0.1589397469
C  C431  1  0.93040000  0.15980000  0.03070000  1.0 -0.2210214141
C  C432  1  0.96370000  0.12750000  0.02520000  1.0 0.0605489564
C  C433  1  0.96110000  0.10580000  0.00710000  1.0 0.0605489564
C  C434  1  0.92510000  0.11610000  0.99430000  1.0 -0.2210214141
C  C435  1  0.74810000  0.04090000  0.11840000  1.0 0.1394556068
C  C436  1  0.68660000  0.99980000  0.11510000  1.0 0.1309936284
C  C437  1  0.67980000  0.04170000  0.10690000  1.0 0.1589397469
C  C438  1  0.60270000  0.02120000  0.09890000  1.0 0.0693901502
C  C439  1  0.63820000  0.05390000  0.09860000  1.0 -0.2290953525
C  C440  1  0.60970000  0.97800000  0.10770000  1.0 0.0605489564
C  C441  1  0.65220000  0.96670000  0.11600000  1.0 -0.2118928564
C  C442  1  0.92960000  0.94910000  0.09180000  1.0 0.1309936284
C  C443  1  0.99250000  0.92140000  0.10390000  1.0 0.1516672418
C  C444  1  0.93680000  0.90630000  0.08460000  1.0 0.1696966486
C  C445  1  0.89010000  0.97400000  0.08790000  1.0 -0.2492570302
C  C446  1  0.85750000  0.95370000  0.07570000  1.0 0.0605489564
C  C447  1  0.86490000  0.90920000  0.06820000  1.0 0.0605489564
C  C448  1  0.90500000  0.88480000  0.07280000  1.0 -0.2399043213
C  C449  1  0.06190000  0.78450000  0.04340000  1.0 0.1589397469
C  C450  1  0.02630000  0.79340000  0.05570000  1.0 0.1309936284
C  C451  1  0.08030000  0.84020000  0.06140000  1.0 0.1087952209
C  C452  1  0.98540000  0.76870000  0.05510000  1.0 -0.1727980806
C  C453  1  0.98190000  0.73370000  0.04120000  1.0 0.0605489564
C  C454  1  0.01920000  0.72470000  0.02860000  1.0 0.0404143021
C  C455  1  0.05940000  0.75050000  0.02950000  1.0 -0.1596061599
C  C456  1  0.87860000  0.21670000  0.07690000  1.0 0.1309936284
C  C457  1  0.89160000  0.32560000  0.05710000  1.0 -0.1990825372
C  C458  1  0.91350000  0.36310000  0.06590000  1.0 0.0499330683
C  C459  1  0.93550000  0.35750000  0.08390000  1.0 0.0693901502
C  C460  1  0.93530000  0.31440000  0.09310000  1.0 -0.2290953525
C  C461  1  0.91410000  0.27820000  0.08370000  1.0 0.1696966486
C  C462  1  0.89320000  0.28330000  0.06640000  1.0 0.1589397469
C  C463  1  0.07420000  0.10330000  0.08950000  1.0 0.0605489564
C  C464  1  0.06050000  0.14900000  0.08560000  1.0 0.0499330683
C  C465  1  0.01730000  0.16530000  0.09150000  1.0 -0.2290953525
C  C466  1  0.98880000  0.13430000  0.10097000  1.0 0.1516672418
C  C467  1  0.00200000  0.09040000  0.10479000  1.0 0.1516672418
C  C468  1  0.04470000  0.07340000  0.09940000  1.0 -0.2399043213
C  C469  1  0.93700000  0.10230000  0.11770000  1.0 0.1516672418
C  C470  1  0.75620000  0.63480000  0.06960000  1.0 0.0693901502
C  C471  1  0.76280000  0.69920000  0.12730000  1.0 0.1516672418
C  C472  1  0.74980000  0.66290000  0.10140000  1.0 0.1516672418
C  C473  1  0.79360000  0.66530000  0.06640000  1.0 0.0605489564
C  C474  1  0.80860000  0.69440000  0.08120000  1.0 -0.2118928564
C  C475  1  0.78560000  0.69190000  0.09860000  1.0 0.1516672418
C  C476  1  0.73390000  0.63350000  0.08740000  1.0 -0.2290953525
C  C477  1  0.80790000  0.04400000  0.16410000  1.0 -0.2290953525
C  C478  1  0.86640000  0.97720000  0.13050000  1.0 0.1516672418
C  C479  1  0.82690000  0.08070000  0.17440000  1.0 0.0499330683
C  C480  1  0.83740000  0.01940000  0.15220000  1.0 0.1516672418
C  C481  1  0.90230000  0.06690000  0.16010000  1.0 -0.2492570302
C  C482  1  0.88240000  0.03050000  0.15020000  1.0 0.1516672418
C  C483  1  0.87380000  0.09210000  0.17250000  1.0 0.0605489564
C  C484  1  0.86570000  0.75930000  0.16350000  1.0 0.1589397469
C  C485  1  0.80080000  0.79220000  0.16040000  1.0 0.1087952209
C  C486  1  0.90920000  0.74150000  0.16040000  1.0 -0.2492570302
C  C487  1  0.85280000  0.77710000  0.18070000  1.0 0.1516672418
C  C488  1  0.88250000  0.77820000  0.19630000  1.0 -0.2290953525
C  C489  1  0.92640000  0.75910000  0.19390000  1.0 0.0605489564
C  C490  1  0.93970000  0.74100000  0.17590000  1.0 0.0605489564
C  C491  1  0.61610000  0.68880000  0.12190000  1.0 0.1589397469
C  C492  1  0.57280000  0.69960000  0.12803000  1.0 0.1589397469
C  C493  1  0.59540000  0.64010000  0.14280000  1.0 0.1213821931
C  C494  1  0.55000000  0.73880000  0.12190000  1.0 -0.2290953525
C  C495  1  0.64010000  0.71640000  0.10930000  1.0 -0.2399043213
C  C496  1  0.57310000  0.76730000  0.10880000  1.0 0.0499330683
C  C497  1  0.61790000  0.75630000  0.10250000  1.0 0.0605489564
C  C498  1  0.83550000  0.72660000  0.26620000  1.0 0.1516672418
C  C499  1  0.80700000  0.69070000  0.26990000  1.0 0.1516672418
C  C500  1  0.78000000  0.75050000  0.28350000  1.0 0.1394556068
C  C501  1  0.81330000  0.64790000  0.26140000  1.0 -0.2210214141
C  C502  1  0.85150000  0.64240000  0.24940000  1.0 0.0693901502
C  C503  1  0.88150000  0.67960000  0.24590000  1.0 0.0693901502
C  C504  1  0.87340000  0.72260000  0.25420000  1.0 -0.2210214141
C  C505  1  0.04160000  0.76130000  0.36640000  1.0 0.1516672418
C  C506  1  0.04040000  0.83340000  0.36210000  1.0 0.1309936284
C  C507  1  0.00720000  0.77160000  0.35400000  1.0 0.1516672418
C  C508  1  0.05290000  0.71630000  0.37100000  1.0 -0.2492570302
C  C509  1  0.02730000  0.68110000  0.36240000  1.0 0.0605489564
C  C510  1  0.99180000  0.69190000  0.34910000  1.0 0.0605489564
C  C511  1  0.98170000  0.73790000  0.34470000  1.0 -0.2118928564
C  C512  1  0.75210000  0.97760000  0.29950000  1.0 -0.1990825372
C  C513  1  0.76870000  0.93290000  0.29920000  1.0 0.1516672418
C  C514  1  0.78510000  0.91320000  0.28290000  1.0 0.1516672418
C  C515  1  0.78570000  0.93630000  0.26550000  1.0 -0.2290953525
C  C516  1  0.76790000  0.98120000  0.26520000  1.0 0.0693901502
C  C517  1  0.80120000  0.86980000  0.30640000  1.0 0.1087952209
C  C518  1  0.75110000  0.00160000  0.28200000  1.0 0.0605489564
C  C519  1  0.82140000  0.82840000  0.23250000  1.0 0.1309936284
C  C520  1  0.83900000  0.89320000  0.22070000  1.0 0.1589397469
C  C521  1  0.86100000  0.88830000  0.23780000  1.0 0.1516672418
C  C522  1  0.88980000  0.92220000  0.24500000  1.0 -0.2290953525
C  C523  1  0.89550000  0.96210000  0.23400000  1.0 0.0605489564
C  C524  1  0.87250000  0.96730000  0.21630000  1.0 0.0605489564
C  C525  1  0.84360000  0.93240000  0.20950000  1.0 -0.2290953525
C  C526  1  0.67650000  0.83230000  0.25370000  1.0 0.0605489564
C  C527  1  0.71860000  0.75830000  0.20070000  1.0 0.1309936284
C  C528  1  0.70330000  0.80360000  0.22360000  1.0 0.1394556068
C  C529  1  0.67880000  0.76440000  0.22610000  1.0 0.1516672418
C  C530  1  0.70330000  0.83870000  0.23730000  1.0 -0.2290953525
C  C531  1  0.65100000  0.79140000  0.25630000  1.0 0.0404143021
C  C532  1  0.65210000  0.75670000  0.24230000  1.0 -0.2492570302
C  C533  1  0.05930000  0.95970000  0.16280000  1.0 0.1589397469
C  C534  1  0.07920000  0.92300000  0.17240000  1.0 -0.2210214141
C  C535  1  0.05380000  0.88210000  0.17360000  1.0 0.0693901502
C  C536  1  0.01000000  0.87880000  0.16500000  1.0 0.0773412082
C  C537  1  0.01740000  0.95630000  0.15440000  1.0 0.1516672418
C  C538  1  0.99140000  0.91640000  0.15510000  1.0 -0.2399043213
C  C539  1  0.04630000  0.02140000  0.14740000  1.0 0.1394556068
C  C540  1  0.90840000  0.84240000  0.30510000  1.0 0.1309936284
C  C541  1  0.94790000  0.82940000  0.28030000  1.0 0.1589397469
C  C542  1  0.97660000  0.83220000  0.29570000  1.0 0.1784675605
C  C543  1  0.02410000  0.82870000  0.29380000  1.0 -0.2492570302
C  C544  1  0.04150000  0.82210000  0.27520000  1.0 0.0605489564
C  C545  1  0.01170000  0.81940000  0.25930000  1.0 0.0693901502
C  C546  1  0.96400000  0.82320000  0.26170000  1.0 -0.2290953525
C  C547  1  0.29590000  0.10060000  0.68320000  1.0 0.1891887256
C  C548  1  0.29550000  0.06760000  0.66840000  1.0 0.1891887256
C  C549  1  0.22550000  0.10370000  0.66850000  1.0 0.1004681606
C  C550  1  0.33560000  0.10610000  0.69470000  1.0 -0.2210214141
C  C551  1  0.37490000  0.07840000  0.69140000  1.0 0.0499330683
C  C552  1  0.37450000  0.04530000  0.67670000  1.0 0.0499330683
C  C553  1  0.33480000  0.03990000  0.66490000  1.0 -0.2210214141
C  C554  1  0.35530000  0.97260000  0.83960000  1.0 0.0693901502
C  C555  1  0.35100000  0.93330000  0.85140000  1.0 0.0605489564
C  C556  1  0.31000000  0.92470000  0.86140000  1.0 -0.2210214141
C  C557  1  0.27440000  0.95600000  0.85910000  1.0 0.1589397469
C  C558  1  0.27870000  0.99380000  0.84780000  1.0 0.1516672418
C  C559  1  0.31870000  0.00360000  0.83780000  1.0 -0.2290953525
C  C560  1  0.21220000  0.99420000  0.86010000  1.0 0.1394556068
C  C561  1  0.34840000  0.79810000  0.59680000  1.0 0.1394556068
C  C562  1  0.42390000  0.79150000  0.63550000  1.0 -0.2210214141
C  C563  1  0.39100000  0.79940000  0.62150000  1.0 0.1516672418
C  C564  1  0.36040000  0.83440000  0.62270000  1.0 0.1516672418
C  C565  1  0.36010000  0.86500000  0.63800000  1.0 -0.2210214141
C  C566  1  0.39290000  0.85820000  0.65250000  1.0 0.0605489564
C  C567  1  0.42470000  0.82150000  0.65130000  1.0 0.0693901502
C  C568  1  0.28720000  0.39570000  0.69400000  1.0 0.1589397469
C  C569  1  0.31870000  0.34850000  0.67500000  1.0 0.1309936284
C  C570  1  0.27850000  0.40920000  0.67570000  1.0 0.1589397469
C  C571  1  0.25560000  0.44990000  0.67140000  1.0 -0.2118928564
C  C572  1  0.24090000  0.47670000  0.68710000  1.0 0.0693901502
C  C573  1  0.24980000  0.46280000  0.70600000  1.0 0.0693901502
C  C574  1  0.27380000  0.42190000  0.70970000  1.0 -0.2210214141
C  C575  1  0.11410000  0.15680000  0.86524000  1.0 0.1516672418
C  C576  1  0.15830000  0.14190000  0.86700000  1.0 0.1516672418
C  C577  1  0.12620000  0.10500000  0.84450000  1.0 0.1087952209
C  C578  1  0.12700000  0.21390000  0.88908000  1.0 0.0499330683
C  C579  1  0.09690000  0.19320000  0.87600000  1.0 -0.2210214141
C  C580  1  0.18930000  0.16230000  0.87960000  1.0 -0.2492570302
C  C581  1  0.17280000  0.19870000  0.89080000  1.0 0.0605489564
C  C582  1  0.22960000  0.81540000  0.57110000  1.0 0.1213821931
C  C583  1  0.20700000  0.88690000  0.53230000  1.0 -0.1509124769
C  C584  1  0.22030000  0.93330000  0.53120000  1.0 0.0404143021
C  C585  1  0.24740000  0.95370000  0.54560000  1.0 0.0499330683
C  C586  1  0.26200000  0.92850000  0.56180000  1.0 -0.2399043213
C  C587  1  0.25010000  0.88240000  0.56230000  1.0 0.1696966486
C  C588  1  0.22280000  0.86190000  0.54770000  1.0 0.1394556068
C  C589  1  0.17670000  0.83840000  0.61160000  1.0 0.1213821931
C  C590  1  0.24030000  0.78350000  0.66430000  1.0 0.0605489564
C  C591  1  0.25190000  0.81120000  0.64860000  1.0 -0.2787471042
C  C592  1  0.21670000  0.82350000  0.63630000  1.0 0.1891887256
C  C593  1  0.17090000  0.80730000  0.63910000  1.0 0.1696966486
C  C594  1  0.15980000  0.77870000  0.65420000  1.0 -0.2210214141
C  C595  1  0.19500000  0.76760000  0.66720000  1.0 0.0330805768
C  C596  1  0.28970000  0.12680000  0.57720000  1.0 0.0499330683
C  C597  1  0.27600000  0.17290000  0.57470000  1.0 0.0499330683
C  C598  1  0.27000000  0.09970000  0.59160000  1.0 -0.2290953525
C  C599  1  0.24240000  0.19230000  0.58650000  1.0 -0.2399043213
C  C600  1  0.22280000  0.16430000  0.60030000  1.0 0.1589397469
C  C601  1  0.23610000  0.11970000  0.60280000  1.0 0.1516672418
C  C602  1  0.19110000  0.13800000  0.62540000  1.0 0.1309936284
C  C603  1  0.07970000  0.20300000  0.60650000  1.0 0.1309936284
C  C604  1  0.08440000  0.27540000  0.60380000  1.0 0.1516672418
C  C605  1  0.00800000  0.29310000  0.59280000  1.0 -0.2118928564
C  C606  1  0.01990000  0.33980000  0.59290000  1.0 0.0605489564
C  C607  1  0.06430000  0.35390000  0.59860000  1.0 0.0693901502
C  C608  1  0.04140000  0.26190000  0.59840000  1.0 0.1589397469
C  C609  1  0.09740000  0.32130000  0.60410000  1.0 -0.2399043213
C  C610  1  0.16320000  0.80550000  0.50300000  1.0 0.1394556068
C  C611  1  0.10720000  0.85160000  0.50030000  1.0 0.1589397469
C  C612  1  0.10470000  0.83080000  0.51780000  1.0 0.1589397469
C  C613  1  0.06960000  0.84020000  0.53070000  1.0 -0.2210214141
C  C614  1  0.03630000  0.87250000  0.52520000  1.0 0.0605489564
C  C615  1  0.03890000  0.89420000  0.50710000  1.0 0.0605489564
C  C616  1  0.07490000  0.88390000  0.49430000  1.0 -0.2210214141
C  C617  1  0.25190000  0.95910000  0.61840000  1.0 0.1394556068
C  C618  1  0.31340000  0.00020000  0.61510000  1.0 0.1309936284
C  C619  1  0.32020000  0.95830000  0.60690000  1.0 0.1589397469
C  C620  1  0.39730000  0.97880000  0.59890000  1.0 0.0693901502
C  C621  1  0.36180000  0.94610000  0.59860000  1.0 -0.2290953525
C  C622  1  0.39030000  0.02200000  0.60770000  1.0 0.0605489564
C  C623  1  0.34780000  0.03330000  0.61600000  1.0 -0.2118928564
C  C624  1  0.07040000  0.05090000  0.59180000  1.0 0.1309936284
C  C625  1  0.00750000  0.07860000  0.60390000  1.0 0.1589397469
C  C626  1  0.06320000  0.09370000  0.58460000  1.0 0.1696966486
C  C627  1  0.10990000  0.02600000  0.58790000  1.0 -0.2492570302
C  C628  1  0.14250000  0.04630000  0.57570000  1.0 0.0605489564
C  C629  1  0.13510000  0.09080000  0.56820000  1.0 0.0605489564
C  C630  1  0.09500000  0.11520000  0.57280000  1.0 -0.2399043213
C  C631  1  0.93810000  0.21550000  0.54340000  1.0 0.1589397469
C  C632  1  0.97370000  0.20660000  0.55570000  1.0 0.1309936284
C  C633  1  0.91970000  0.15980000  0.56140000  1.0 0.1087952209
C  C634  1  0.01460000  0.23130000  0.55510000  1.0 -0.1727980806
C  C635  1  0.01810000  0.26630000  0.54120000  1.0 0.0605489564
C  C636  1  0.98080000  0.27530000  0.52860000  1.0 0.0404143021
C  C637  1  0.94060000  0.24950000  0.52950000  1.0 -0.1596061599
C  C638  1  0.12140000  0.78330000  0.57690000  1.0 0.1309936284
C  C639  1  0.10840000  0.67440000  0.55710000  1.0 -0.1990825372
C  C640  1  0.08650000  0.63690000  0.56590000  1.0 0.0499330683
C  C641  1  0.06450000  0.64250000  0.58390000  1.0 0.0693901502
C  C642  1  0.06470000  0.68560000  0.59310000  1.0 -0.2290953525
C  C643  1  0.08590000  0.72180000  0.58370000  1.0 0.1696966486
C  C644  1  0.10680000  0.71670000  0.56640000  1.0 0.1589397469
C  C645  1  0.92580000  0.89670000  0.58950000  1.0 0.0605489564
C  C646  1  0.93950000  0.85100000  0.58560000  1.0 0.0499330683
C  C647  1  0.98270000  0.83470000  0.59150000  1.0 -0.2290953525
C  C648  1  0.01120000  0.86570000  0.60097000  1.0 0.1516672418
C  C649  1  0.99800000  0.90960000  0.60479000  1.0 0.1516672418
C  C650  1  0.95530000  0.92660000  0.59940000  1.0 -0.2399043213
C  C651  1  0.06300000  0.89770000  0.61770000  1.0 0.1516672418
C  C652  1  0.24380000  0.36520000  0.56960000  1.0 0.0693901502
C  C653  1  0.23720000  0.30080000  0.62730000  1.0 0.1516672418
C  C654  1  0.25020000  0.33710000  0.60140000  1.0 0.1516672418
C  C655  1  0.20640000  0.33470000  0.56640000  1.0 0.0605489564
C  C656  1  0.19140000  0.30560000  0.58120000  1.0 -0.2118928564
C  C657  1  0.21440000  0.30810000  0.59860000  1.0 0.1516672418
C  C658  1  0.26610000  0.36650000  0.58740000  1.0 -0.2290953525
C  C659  1  0.19210000  0.95600000  0.66410000  1.0 -0.2290953525
C  C660  1  0.13360000  0.02280000  0.63050000  1.0 0.1516672418
C  C661  1  0.17310000  0.91930000  0.67440000  1.0 0.0499330683
C  C662  1  0.16260000  0.98060000  0.65220000  1.0 0.1516672418
C  C663  1  0.09770000  0.93310000  0.66010000  1.0 -0.2492570302
C  C664  1  0.11760000  0.96950000  0.65020000  1.0 0.1516672418
C  C665  1  0.12620000  0.90790000  0.67250000  1.0 0.0605489564
C  C666  1  0.13430000  0.24070000  0.66350000  1.0 0.1589397469
C  C667  1  0.19920000  0.20780000  0.66040000  1.0 0.1087952209
C  C668  1  0.09080000  0.25850000  0.66040000  1.0 -0.2492570302
C  C669  1  0.14720000  0.22290000  0.68070000  1.0 0.1516672418
C  C670  1  0.11750000  0.22180000  0.69630000  1.0 -0.2290953525
C  C671  1  0.07360000  0.24090000  0.69390000  1.0 0.0605489564
C  C672  1  0.06030000  0.25900000  0.67590000  1.0 0.0605489564
C  C673  1  0.38390000  0.31120000  0.62190000  1.0 0.1589397469
C  C674  1  0.42720000  0.30040000  0.62803000  1.0 0.1589397469
C  C675  1  0.40460000  0.35990000  0.64280000  1.0 0.1213821931
C  C676  1  0.45000000  0.26120000  0.62190000  1.0 -0.2290953525
C  C677  1  0.35990000  0.28360000  0.60930000  1.0 -0.2399043213
C  C678  1  0.42690000  0.23270000  0.60880000  1.0 0.0499330683
C  C679  1  0.38210000  0.24370000  0.60250000  1.0 0.0605489564
C  C680  1  0.16450000  0.27340000  0.76620000  1.0 0.1516672418
C  C681  1  0.19300000  0.30930000  0.76990000  1.0 0.1516672418
C  C682  1  0.22000000  0.24950000  0.78350000  1.0 0.1394556068
C  C683  1  0.18670000  0.35210000  0.76140000  1.0 -0.2210214141
C  C684  1  0.14850000  0.35760000  0.74940000  1.0 0.0693901502
C  C685  1  0.11850000  0.32040000  0.74590000  1.0 0.0693901502
C  C686  1  0.12660000  0.27740000  0.75420000  1.0 -0.2210214141
C  C687  1  0.95840000  0.23870000  0.86640000  1.0 0.1516672418
C  C688  1  0.95960000  0.16660000  0.86210000  1.0 0.1394556068
C  C689  1  0.99280000  0.22840000  0.85400000  1.0 0.1516672418
C  C690  1  0.94710000  0.28370000  0.87100000  1.0 -0.2399043213
C  C691  1  0.97270000  0.31890000  0.86240000  1.0 0.0605489564
C  C692  1  0.00820000  0.30810000  0.84910000  1.0 0.0605489564
C  C693  1  0.01830000  0.26210000  0.84470000  1.0 -0.2118928564
C  C694  1  0.24790000  0.02240000  0.79950000  1.0 -0.1990825372
C  C695  1  0.23130000  0.06710000  0.79920000  1.0 0.1516672418
C  C696  1  0.21490000  0.08680000  0.78290000  1.0 0.1516672418
C  C697  1  0.21430000  0.06370000  0.76550000  1.0 -0.2290953525
C  C698  1  0.23210000  0.01880000  0.76520000  1.0 0.0693901502
C  C699  1  0.19880000  0.13020000  0.80640000  1.0 0.1213821931
C  C700  1  0.24890000  0.99840000  0.78200000  1.0 0.0605489564
C  C701  1  0.17860000  0.17160000  0.73250000  1.0 0.1309936284
C  C702  1  0.16100000  0.10680000  0.72070000  1.0 0.1589397469
C  C703  1  0.13900000  0.11170000  0.73780000  1.0 0.1516672418
C  C704  1  0.11020000  0.07780000  0.74500000  1.0 -0.2290953525
C  C705  1  0.10450000  0.03790000  0.73400000  1.0 0.0605489564
C  C706  1  0.12750000  0.03270000  0.71630000  1.0 0.0605489564
C  C707  1  0.15640000  0.06760000  0.70950000  1.0 -0.2290953525
C  C708  1  0.32350000  0.16770000  0.75370000  1.0 0.0605489564
C  C709  1  0.28140000  0.24170000  0.70070000  1.0 0.1309936284
C  C710  1  0.29670000  0.19640000  0.72360000  1.0 0.1394556068
C  C711  1  0.32120000  0.23560000  0.72610000  1.0 0.1516672418
C  C712  1  0.29670000  0.16130000  0.73730000  1.0 -0.2290953525
C  C713  1  0.34900000  0.20860000  0.75630000  1.0 0.0404143021
C  C714  1  0.34790000  0.24330000  0.74230000  1.0 -0.2492570302
C  C715  1  0.94070000  0.04030000  0.66280000  1.0 0.1516672418
C  C716  1  0.92080000  0.07700000  0.67240000  1.0 -0.2210214141
C  C717  1  0.94620000  0.11790000  0.67360000  1.0 0.0693901502
C  C718  1  0.99000000  0.12120000  0.66500000  1.0 0.0773412082
C  C719  1  0.98260000  0.04370000  0.65440000  1.0 0.1516672418
C  C720  1  0.00860000  0.08360000  0.65510000  1.0 -0.2399043213
C  C721  1  0.95370000  0.97860000  0.64740000  1.0 0.1394556068
C  C722  1  0.09160000  0.15760000  0.80510000  1.0 0.1309936284
C  C723  1  0.05210000  0.17060000  0.78030000  1.0 0.1589397469
C  C724  1  0.02340000  0.16780000  0.79570000  1.0 0.1784675605
C  C725  1  0.97590000  0.17130000  0.79380000  1.0 -0.2492570302
C  C726  1  0.95850000  0.17790000  0.77520000  1.0 0.0605489564
C  C727  1  0.98830000  0.18060000  0.75930000  1.0 0.0693901502
C  C728  1  0.03600000  0.17680000  0.76170000  1.0 -0.2290953525
C  C729  1  0.10060000  0.29590000  0.31680000  1.0 0.1891887256
C  C730  1  0.06760000  0.29550000  0.33160000  1.0 0.1891887256
C  C731  1  0.10370000  0.22550000  0.33150000  1.0 0.0898548387
C  C732  1  0.10610000  0.33560000  0.30530000  1.0 -0.2210214141
C  C733  1  0.07840000  0.37490000  0.30860000  1.0 0.0499330683
C  C734  1  0.04530000  0.37450000  0.32330000  1.0 0.0499330683
C  C735  1  0.03990000  0.33480000  0.33510000  1.0 -0.2210214141
C  C736  1  0.97260000  0.35530000  0.16040000  1.0 0.0693901502
C  C737  1  0.93330000  0.35100000  0.14860000  1.0 0.0605489564
C  C738  1  0.92470000  0.31000000  0.13860000  1.0 -0.2210214141
C  C739  1  0.95600000  0.27440000  0.14090000  1.0 0.1589397469
C  C740  1  0.99380000  0.27870000  0.15220000  1.0 0.1516672418
C  C741  1  0.00360000  0.31870000  0.16220000  1.0 -0.2290953525
C  C742  1  0.99420000  0.21220000  0.13990000  1.0 0.1394556068
C  C743  1  0.79810000  0.34840000  0.40320000  1.0 0.1394556068
C  C744  1  0.79150000  0.42390000  0.36450000  1.0 -0.2210214141
C  C745  1  0.79940000  0.39100000  0.37850000  1.0 0.1516672418
C  C746  1  0.83440000  0.36040000  0.37730000  1.0 0.1516672418
C  C747  1  0.86500000  0.36010000  0.36200000  1.0 -0.2210214141
C  C748  1  0.85820000  0.39290000  0.34750000  1.0 0.0605489564
C  C749  1  0.82150000  0.42470000  0.34870000  1.0 0.0693901502
C  C750  1  0.39570000  0.28720000  0.30600000  1.0 0.1589397469
C  C751  1  0.34850000  0.31870000  0.32500000  1.0 0.1309936284
C  C752  1  0.40920000  0.27850000  0.32430000  1.0 0.1589397469
C  C753  1  0.44990000  0.25560000  0.32860000  1.0 -0.2118928564
C  C754  1  0.47670000  0.24090000  0.31290000  1.0 0.0693901502
C  C755  1  0.46280000  0.24980000  0.29400000  1.0 0.0693901502
C  C756  1  0.42190000  0.27380000  0.29030000  1.0 -0.2210214141
C  C757  1  0.15680000  0.11410000  0.13476000  1.0 0.1516672418
C  C758  1  0.14190000  0.15830000  0.13300000  1.0 0.1516672418
C  C759  1  0.10500000  0.12620000  0.15550000  1.0 0.1087952209
C  C760  1  0.21390000  0.12700000  0.11092000  1.0 0.0499330683
C  C761  1  0.19320000  0.09690000  0.12400000  1.0 -0.2210214141
C  C762  1  0.16230000  0.18930000  0.12040000  1.0 -0.2492570302
C  C763  1  0.19870000  0.17280000  0.10920000  1.0 0.0605489564
C  C764  1  0.81540000  0.22960000  0.42890000  1.0 0.1213821931
C  C765  1  0.88690000  0.20700000  0.46770000  1.0 -0.1509124769
C  C766  1  0.93330000  0.22030000  0.46880000  1.0 0.0404143021
C  C767  1  0.95370000  0.24740000  0.45440000  1.0 0.0499330683
C  C768  1  0.92850000  0.26200000  0.43820000  1.0 -0.2399043213
C  C769  1  0.88240000  0.25010000  0.43770000  1.0 0.1696966486
C  C770  1  0.86190000  0.22280000  0.45230000  1.0 0.1394556068
C  C771  1  0.83840000  0.17670000  0.38840000  1.0 0.1213821931
C  C772  1  0.78350000  0.24030000  0.33570000  1.0 0.0605489564
C  C773  1  0.81120000  0.25190000  0.35140000  1.0 -0.2787471042
C  C774  1  0.82350000  0.21670000  0.36370000  1.0 0.1891887256
C  C775  1  0.80730000  0.17090000  0.36090000  1.0 0.1696966486
C  C776  1  0.77870000  0.15980000  0.34580000  1.0 -0.2210214141
C  C777  1  0.76760000  0.19500000  0.33280000  1.0 0.0330805768
C  C778  1  0.12680000  0.28970000  0.42280000  1.0 0.0499330683
C  C779  1  0.17290000  0.27600000  0.42530000  1.0 0.0499330683
C  C780  1  0.09970000  0.27000000  0.40840000  1.0 -0.2290953525
C  C781  1  0.19230000  0.24240000  0.41350000  1.0 -0.2399043213
C  C782  1  0.16430000  0.22280000  0.39970000  1.0 0.1589397469
C  C783  1  0.11970000  0.23610000  0.39720000  1.0 0.1516672418
C  C784  1  0.13800000  0.19110000  0.37460000  1.0 0.1213821931
C  C785  1  0.20300000  0.07970000  0.39350000  1.0 0.1309936284
C  C786  1  0.27540000  0.08440000  0.39620000  1.0 0.1516672418
C  C787  1  0.29310000  0.00800000  0.40720000  1.0 -0.2118928564
C  C788  1  0.33980000  0.01990000  0.40710000  1.0 0.0605489564
C  C789  1  0.35390000  0.06430000  0.40140000  1.0 0.0693901502
C  C790  1  0.26190000  0.04140000  0.40160000  1.0 0.1589397469
C  C791  1  0.32130000  0.09740000  0.39590000  1.0 -0.2399043213
C  C792  1  0.80550000  0.16320000  0.49700000  1.0 0.1394556068
C  C793  1  0.85160000  0.10720000  0.49970000  1.0 0.1589397469
C  C794  1  0.83080000  0.10470000  0.48220000  1.0 0.1589397469
C  C795  1  0.84020000  0.06960000  0.46930000  1.0 -0.2210214141
C  C796  1  0.87250000  0.03630000  0.47480000  1.0 0.0605489564
C  C797  1  0.89420000  0.03890000  0.49290000  1.0 0.0605489564
C  C798  1  0.88390000  0.07490000  0.50570000  1.0 -0.2210214141
C  C799  1  0.95910000  0.25190000  0.38160000  1.0 0.1394556068
C  C800  1  0.00020000  0.31340000  0.38490000  1.0 0.1309936284
C  C801  1  0.95830000  0.32020000  0.39310000  1.0 0.1589397469
C  C802  1  0.97880000  0.39730000  0.40110000  1.0 0.0693901502
C  C803  1  0.94610000  0.36180000  0.40140000  1.0 -0.2290953525
C  C804  1  0.02200000  0.39030000  0.39230000  1.0 0.0605489564
C  C805  1  0.03330000  0.34780000  0.38400000  1.0 -0.2118928564
C  C806  1  0.05090000  0.07040000  0.40820000  1.0 0.1309936284
C  C807  1  0.07860000  0.00750000  0.39610000  1.0 0.1516672418
C  C808  1  0.09370000  0.06320000  0.41540000  1.0 0.1696966486
C  C809  1  0.02600000  0.10990000  0.41210000  1.0 -0.2492570302
C  C810  1  0.04630000  0.14250000  0.42430000  1.0 0.0605489564
C  C811  1  0.09080000  0.13510000  0.43180000  1.0 0.0605489564
C  C812  1  0.11520000  0.09500000  0.42720000  1.0 -0.2399043213
C  C813  1  0.21550000  0.93810000  0.45660000  1.0 0.1589397469
C  C814  1  0.20660000  0.97370000  0.44430000  1.0 0.1309936284
C  C815  1  0.15980000  0.91970000  0.43860000  1.0 0.1087952209
C  C816  1  0.23130000  0.01460000  0.44490000  1.0 -0.1727980806
C  C817  1  0.26630000  0.01810000  0.45880000  1.0 0.0605489564
C  C818  1  0.27530000  0.98080000  0.47140000  1.0 0.0404143021
C  C819  1  0.24950000  0.94060000  0.47050000  1.0 -0.1596061599
C  C820  1  0.78330000  0.12140000  0.42310000  1.0 0.1309936284
C  C821  1  0.67440000  0.10840000  0.44290000  1.0 -0.1990825372
C  C822  1  0.63690000  0.08650000  0.43410000  1.0 0.0499330683
C  C823  1  0.64250000  0.06450000  0.41610000  1.0 0.0693901502
C  C824  1  0.68560000  0.06470000  0.40690000  1.0 -0.2290953525
C  C825  1  0.72180000  0.08590000  0.41630000  1.0 0.1696966486
C  C826  1  0.71670000  0.10680000  0.43360000  1.0 0.1589397469
C  C827  1  0.89670000  0.92580000  0.41050000  1.0 0.0605489564
C  C828  1  0.85100000  0.93950000  0.41440000  1.0 0.0499330683
C  C829  1  0.83470000  0.98270000  0.40850000  1.0 -0.2290953525
C  C830  1  0.86570000  0.01120000  0.39903000  1.0 0.1516672418
C  C831  1  0.90960000  0.99800000  0.39521000  1.0 0.1516672418
C  C832  1  0.92660000  0.95530000  0.40060000  1.0 -0.2399043213
C  C833  1  0.89770000  0.06300000  0.38230000  1.0 0.1516672418
C  C834  1  0.36520000  0.24380000  0.43040000  1.0 0.0693901502
C  C835  1  0.30080000  0.23720000  0.37270000  1.0 0.1516672418
C  C836  1  0.33710000  0.25020000  0.39860000  1.0 0.1516672418
C  C837  1  0.33470000  0.20640000  0.43360000  1.0 0.0605489564
C  C838  1  0.30560000  0.19140000  0.41880000  1.0 -0.2118928564
C  C839  1  0.30810000  0.21440000  0.40140000  1.0 0.1516672418
C  C840  1  0.36650000  0.26610000  0.41260000  1.0 -0.2290953525
C  C841  1  0.95600000  0.19210000  0.33590000  1.0 -0.2290953525
C  C842  1  0.02280000  0.13360000  0.36950000  1.0 0.1516672418
C  C843  1  0.91930000  0.17310000  0.32560000  1.0 0.0499330683
C  C844  1  0.98060000  0.16260000  0.34780000  1.0 0.1516672418
C  C845  1  0.93310000  0.09770000  0.33990000  1.0 -0.2492570302
C  C846  1  0.96950000  0.11760000  0.34980000  1.0 0.1516672418
C  C847  1  0.90790000  0.12620000  0.32750000  1.0 0.0605489564
C  C848  1  0.24070000  0.13430000  0.33650000  1.0 0.1589397469
C  C849  1  0.20780000  0.19920000  0.33960000  1.0 0.1087952209
C  C850  1  0.25850000  0.09080000  0.33960000  1.0 -0.2492570302
C  C851  1  0.22290000  0.14720000  0.31930000  1.0 0.1516672418
C  C852  1  0.22180000  0.11750000  0.30370000  1.0 -0.2290953525
C  C853  1  0.24090000  0.07360000  0.30610000  1.0 0.0605489564
C  C854  1  0.25900000  0.06030000  0.32410000  1.0 0.0605489564
C  C855  1  0.31120000  0.38390000  0.37810000  1.0 0.1589397469
C  C856  1  0.30040000  0.42720000  0.37197000  1.0 0.1589397469
C  C857  1  0.35990000  0.40460000  0.35720000  1.0 0.1213821931
C  C858  1  0.26120000  0.45000000  0.37810000  1.0 -0.2290953525
C  C859  1  0.28360000  0.35990000  0.39070000  1.0 -0.2399043213
C  C860  1  0.23270000  0.42690000  0.39120000  1.0 0.0499330683
C  C861  1  0.24370000  0.38210000  0.39750000  1.0 0.0605489564
C  C862  1  0.27340000  0.16450000  0.23380000  1.0 0.1516672418
C  C863  1  0.30930000  0.19300000  0.23010000  1.0 0.1516672418
C  C864  1  0.24950000  0.22000000  0.21650000  1.0 0.1394556068
C  C865  1  0.35210000  0.18670000  0.23860000  1.0 -0.2210214141
C  C866  1  0.35760000  0.14850000  0.25060000  1.0 0.0693901502
C  C867  1  0.32040000  0.11850000  0.25410000  1.0 0.0693901502
C  C868  1  0.27740000  0.12660000  0.24580000  1.0 -0.2210214141
C  C869  1  0.23870000  0.95840000  0.13360000  1.0 0.1516672418
C  C870  1  0.16660000  0.95960000  0.13790000  1.0 0.1309936284
C  C871  1  0.22840000  0.99280000  0.14600000  1.0 0.1516672418
C  C872  1  0.28370000  0.94710000  0.12900000  1.0 -0.2492570302
C  C873  1  0.31890000  0.97270000  0.13760000  1.0 0.0605489564
C  C874  1  0.30810000  0.00820000  0.15090000  1.0 0.0605489564
C  C875  1  0.26210000  0.01830000  0.15530000  1.0 -0.2118928564
C  C876  1  0.02240000  0.24790000  0.20050000  1.0 -0.1990825372
C  C877  1  0.06710000  0.23130000  0.20080000  1.0 0.1516672418
C  C878  1  0.08680000  0.21490000  0.21710000  1.0 0.1516672418
C  C879  1  0.06370000  0.21430000  0.23450000  1.0 -0.2290953525
C  C880  1  0.01880000  0.23210000  0.23480000  1.0 0.0693901502
C  C881  1  0.13020000  0.19880000  0.19360000  1.0 0.1087952209
C  C882  1  0.99840000  0.24890000  0.21800000  1.0 0.0605489564
C  C883  1  0.17160000  0.17860000  0.26750000  1.0 0.1309936284
C  C884  1  0.10680000  0.16100000  0.27930000  1.0 0.1589397469
C  C885  1  0.11170000  0.13900000  0.26220000  1.0 0.1516672418
C  C886  1  0.07780000  0.11020000  0.25500000  1.0 -0.2290953525
C  C887  1  0.03790000  0.10450000  0.26600000  1.0 0.0605489564
C  C888  1  0.03270000  0.12750000  0.28370000  1.0 0.0605489564
C  C889  1  0.06760000  0.15640000  0.29050000  1.0 -0.2290953525
C  C890  1  0.16770000  0.32350000  0.24630000  1.0 0.0605489564
C  C891  1  0.24170000  0.28140000  0.29930000  1.0 0.1309936284
C  C892  1  0.19640000  0.29670000  0.27640000  1.0 0.1394556068
C  C893  1  0.23560000  0.32120000  0.27390000  1.0 0.1516672418
C  C894  1  0.16130000  0.29670000  0.26270000  1.0 -0.2290953525
C  C895  1  0.20860000  0.34900000  0.24370000  1.0 0.0404143021
C  C896  1  0.24330000  0.34790000  0.25770000  1.0 -0.2492570302
C  C897  1  0.04030000  0.94070000  0.33720000  1.0 0.1589397469
C  C898  1  0.07700000  0.92080000  0.32760000  1.0 -0.2210214141
C  C899  1  0.11790000  0.94620000  0.32640000  1.0 0.0693901502
C  C900  1  0.12120000  0.99000000  0.33500000  1.0 0.0773412082
C  C901  1  0.04370000  0.98260000  0.34560000  1.0 0.1516672418
C  C902  1  0.08360000  0.00860000  0.34490000  1.0 -0.2399043213
C  C903  1  0.97860000  0.95370000  0.35260000  1.0 0.1394556068
C  C904  1  0.15760000  0.09160000  0.19490000  1.0 0.1309936284
C  C905  1  0.17060000  0.05210000  0.21970000  1.0 0.1589397469
C  C906  1  0.16780000  0.02340000  0.20430000  1.0 0.1784675605
C  C907  1  0.17130000  0.97590000  0.20620000  1.0 -0.2492570302
C  C908  1  0.17790000  0.95850000  0.22480000  1.0 0.0605489564
C  C909  1  0.18060000  0.98830000  0.24070000  1.0 0.0693901502
C  C910  1  0.17680000  0.03600000  0.23830000  1.0 -0.2290953525
C  C911  1  0.89940000  0.70410000  0.81680000  1.0 0.1891887256
C  C912  1  0.93240000  0.70450000  0.83160000  1.0 0.1891887256
C  C913  1  0.89630000  0.77450000  0.83150000  1.0 0.1004681606
C  C914  1  0.89390000  0.66440000  0.80530000  1.0 -0.2210214141
C  C915  1  0.92160000  0.62510000  0.80860000  1.0 0.0499330683
C  C916  1  0.95470000  0.62550000  0.82330000  1.0 0.0499330683
C  C917  1  0.96010000  0.66520000  0.83510000  1.0 -0.2210214141
C  C918  1  0.02740000  0.64470000  0.66040000  1.0 0.0693901502
C  C919  1  0.06670000  0.64900000  0.64860000  1.0 0.0605489564
C  C920  1  0.07530000  0.69000000  0.63860000  1.0 -0.2210214141
C  C921  1  0.04400000  0.72560000  0.64090000  1.0 0.1589397469
C  C922  1  0.00620000  0.72130000  0.65220000  1.0 0.1516672418
C  C923  1  0.99640000  0.68130000  0.66220000  1.0 -0.2290953525
C  C924  1  0.00580000  0.78780000  0.63990000  1.0 0.1394556068
C  C925  1  0.20190000  0.65160000  0.90320000  1.0 0.1394556068
C  C926  1  0.20850000  0.57610000  0.86450000  1.0 -0.2210214141
C  C927  1  0.20060000  0.60900000  0.87850000  1.0 0.1516672418
C  C928  1  0.16560000  0.63960000  0.87730000  1.0 0.1516672418
C  C929  1  0.13500000  0.63990000  0.86200000  1.0 -0.2210214141
C  C930  1  0.14180000  0.60710000  0.84750000  1.0 0.0605489564
C  C931  1  0.17850000  0.57530000  0.84870000  1.0 0.0693901502
C  C932  1  0.60430000  0.71280000  0.80600000  1.0 0.1589397469
C  C933  1  0.65150000  0.68130000  0.82500000  1.0 0.1309936284
C  C934  1  0.59080000  0.72150000  0.82430000  1.0 0.1589397469
C  C935  1  0.55010000  0.74440000  0.82860000  1.0 -0.2118928564
C  C936  1  0.52330000  0.75910000  0.81290000  1.0 0.0693901502
C  C937  1  0.53720000  0.75020000  0.79400000  1.0 0.0693901502
C  C938  1  0.57810000  0.72620000  0.79030000  1.0 -0.2210214141
C  C939  1  0.84320000  0.88590000  0.63476000  1.0 0.1516672418
C  C940  1  0.85810000  0.84170000  0.63300000  1.0 0.1516672418
C  C941  1  0.89500000  0.87380000  0.65550000  1.0 0.1087952209
C  C942  1  0.78610000  0.87300000  0.61092000  1.0 0.0499330683
C  C943  1  0.80680000  0.90310000  0.62400000  1.0 -0.2210214141
C  C944  1  0.83770000  0.81070000  0.62040000  1.0 -0.2492570302
C  C945  1  0.80130000  0.82720000  0.60920000  1.0 0.0605489564
C  C946  1  0.18460000  0.77040000  0.92890000  1.0 0.1213821931
C  C947  1  0.11310000  0.79300000  0.96770000  1.0 -0.1509124769
C  C948  1  0.06670000  0.77970000  0.96880000  1.0 0.0404143021
C  C949  1  0.04630000  0.75260000  0.95440000  1.0 0.0499330683
C  C950  1  0.07150000  0.73800000  0.93820000  1.0 -0.2399043213
C  C951  1  0.11760000  0.74990000  0.93770000  1.0 0.1696966486
C  C952  1  0.13810000  0.77720000  0.95230000  1.0 0.1394556068
C  C953  1  0.16160000  0.82330000  0.88840000  1.0 0.1213821931
C  C954  1  0.21650000  0.75970000  0.83570000  1.0 0.0605489564
C  C955  1  0.18880000  0.74810000  0.85140000  1.0 -0.2787471042
C  C956  1  0.17650000  0.78330000  0.86370000  1.0 0.1891887256
C  C957  1  0.19270000  0.82910000  0.86090000  1.0 0.1696966486
C  C958  1  0.22130000  0.84020000  0.84580000  1.0 -0.2210214141
C  C959  1  0.23240000  0.80500000  0.83280000  1.0 0.0330805768
C  C960  1  0.87320000  0.71030000  0.92280000  1.0 0.0499330683
C  C961  1  0.82710000  0.72400000  0.92530000  1.0 0.0499330683
C  C962  1  0.90030000  0.73000000  0.90840000  1.0 -0.2210214141
C  C963  1  0.80770000  0.75760000  0.91350000  1.0 -0.2399043213
C  C964  1  0.83570000  0.77720000  0.89970000  1.0 0.1589397469
C  C965  1  0.88030000  0.76390000  0.89720000  1.0 0.1516672418
C  C966  1  0.86200000  0.80890000  0.87460000  1.0 0.1213821931
C  C967  1  0.79700000  0.92030000  0.89350000  1.0 0.1309936284
C  C968  1  0.72460000  0.91560000  0.89620000  1.0 0.1516672418
C  C969  1  0.70690000  0.99200000  0.90720000  1.0 -0.2118928564
C  C970  1  0.66020000  0.98010000  0.90710000  1.0 0.0605489564
C  C971  1  0.64610000  0.93570000  0.90140000  1.0 0.0693901502
C  C972  1  0.73810000  0.95860000  0.90160000  1.0 0.1589397469
C  C973  1  0.67870000  0.90260000  0.89590000  1.0 -0.2399043213
C  C974  1  0.19450000  0.83680000  0.99700000  1.0 0.1394556068
C  C975  1  0.14840000  0.89280000  0.99970000  1.0 0.1589397469
C  C976  1  0.16920000  0.89530000  0.98220000  1.0 0.1589397469
C  C977  1  0.15980000  0.93040000  0.96930000  1.0 -0.2210214141
C  C978  1  0.12750000  0.96370000  0.97480000  1.0 0.0605489564
C  C979  1  0.10580000  0.96110000  0.99290000  1.0 0.0605489564
C  C980  1  0.11610000  0.92510000  0.00570000  1.0 -0.2210214141
C  C981  1  0.04090000  0.74810000  0.88160000  1.0 0.1394556068
C  C982  1  0.99980000  0.68660000  0.88490000  1.0 0.1309936284
C  C983  1  0.04170000  0.67980000  0.89310000  1.0 0.1589397469
C  C984  1  0.02120000  0.60270000  0.90110000  1.0 0.0693901502
C  C985  1  0.05390000  0.63820000  0.90140000  1.0 -0.2290953525
C  C986  1  0.97800000  0.60970000  0.89230000  1.0 0.0605489564
C  C987  1  0.96670000  0.65220000  0.88400000  1.0 -0.2118928564
C  C988  1  0.94910000  0.92960000  0.90820000  1.0 0.1309936284
C  C989  1  0.92140000  0.99250000  0.89610000  1.0 0.1589397469
C  C990  1  0.90630000  0.93680000  0.91540000  1.0 0.1589397469
C  C991  1  0.97400000  0.89010000  0.91210000  1.0 -0.2492570302
C  C992  1  0.95370000  0.85750000  0.92430000  1.0 0.0605489564
C  C993  1  0.90920000  0.86490000  0.93180000  1.0 0.0605489564
C  C994  1  0.88480000  0.90500000  0.92720000  1.0 -0.2399043213
C  C995  1  0.78450000  0.06190000  0.95660000  1.0 0.1589397469
C  C996  1  0.79340000  0.02630000  0.94430000  1.0 0.1309936284
C  C997  1  0.84020000  0.08030000  0.93860000  1.0 0.1087952209
C  C998  1  0.76870000  0.98540000  0.94490000  1.0 -0.1727980806
C  C999  1  0.73370000  0.98190000  0.95880000  1.0 0.0605489564
C  C1000  1  0.72470000  0.01920000  0.97140000  1.0 0.0404143021
C  C1001  1  0.75050000  0.05940000  0.97050000  1.0 -0.1596061599
C  C1002  1  0.21670000  0.87860000  0.92310000  1.0 0.1309936284
C  C1003  1  0.32560000  0.89160000  0.94290000  1.0 -0.1990825372
C  C1004  1  0.36310000  0.91350000  0.93410000  1.0 0.0499330683
C  C1005  1  0.35750000  0.93550000  0.91610000  1.0 0.0693901502
C  C1006  1  0.31440000  0.93530000  0.90690000  1.0 -0.2290953525
C  C1007  1  0.27820000  0.91410000  0.91630000  1.0 0.1696966486
C  C1008  1  0.28330000  0.89320000  0.93360000  1.0 0.1589397469
C  C1009  1  0.10330000  0.07420000  0.91050000  1.0 0.0605489564
C  C1010  1  0.14900000  0.06050000  0.91440000  1.0 0.0499330683
C  C1011  1  0.16530000  0.01730000  0.90850000  1.0 -0.2290953525
C  C1012  1  0.13430000  0.98880000  0.89903000  1.0 0.1516672418
C  C1013  1  0.09040000  0.00200000  0.89521000  1.0 0.1516672418
C  C1014  1  0.07340000  0.04470000  0.90060000  1.0 -0.2399043213
C  C1015  1  0.10230000  0.93700000  0.88230000  1.0 0.1516672418
C  C1016  1  0.63480000  0.75620000  0.93040000  1.0 0.0693901502
C  C1017  1  0.69920000  0.76280000  0.87270000  1.0 0.1516672418
C  C1018  1  0.66290000  0.74980000  0.89860000  1.0 0.1516672418
C  C1019  1  0.66530000  0.79360000  0.93360000  1.0 0.0605489564
C  C1020  1  0.69440000  0.80860000  0.91880000  1.0 -0.2118928564
C  C1021  1  0.69190000  0.78560000  0.90140000  1.0 0.1516672418
C  C1022  1  0.63350000  0.73390000  0.91260000  1.0 -0.2290953525
C  C1023  1  0.04400000  0.80790000  0.83590000  1.0 -0.2290953525
C  C1024  1  0.97720000  0.86640000  0.86950000  1.0 0.1516672418
C  C1025  1  0.08070000  0.82690000  0.82560000  1.0 0.0499330683
C  C1026  1  0.01940000  0.83740000  0.84780000  1.0 0.1516672418
C  C1027  1  0.06690000  0.90230000  0.83990000  1.0 -0.2492570302
C  C1028  1  0.03050000  0.88240000  0.84980000  1.0 0.1516672418
C  C1029  1  0.09210000  0.87380000  0.82750000  1.0 0.0605489564
C  C1030  1  0.75930000  0.86570000  0.83650000  1.0 0.1589397469
C  C1031  1  0.79220000  0.80080000  0.83960000  1.0 0.1087952209
C  C1032  1  0.74150000  0.90920000  0.83960000  1.0 -0.2492570302
C  C1033  1  0.77710000  0.85280000  0.81930000  1.0 0.1516672418
C  C1034  1  0.77820000  0.88250000  0.80370000  1.0 -0.2290953525
C  C1035  1  0.75910000  0.92640000  0.80610000  1.0 0.0605489564
C  C1036  1  0.74100000  0.93970000  0.82410000  1.0 0.0605489564
C  C1037  1  0.68880000  0.61610000  0.87810000  1.0 0.1589397469
C  C1038  1  0.69960000  0.57280000  0.87197000  1.0 0.1589397469
C  C1039  1  0.64010000  0.59540000  0.85720000  1.0 0.1213821931
C  C1040  1  0.73880000  0.55000000  0.87810000  1.0 -0.2290953525
C  C1041  1  0.71640000  0.64010000  0.89070000  1.0 -0.2399043213
C  C1042  1  0.76730000  0.57310000  0.89120000  1.0 0.0499330683
C  C1043  1  0.75630000  0.61790000  0.89750000  1.0 0.0605489564
C  C1044  1  0.72660000  0.83550000  0.73380000  1.0 0.1516672418
C  C1045  1  0.69070000  0.80700000  0.73010000  1.0 0.1516672418
C  C1046  1  0.75050000  0.78000000  0.71650000  1.0 0.1394556068
C  C1047  1  0.64790000  0.81330000  0.73860000  1.0 -0.2210214141
C  C1048  1  0.64240000  0.85150000  0.75060000  1.0 0.0693901502
C  C1049  1  0.67960000  0.88150000  0.75410000  1.0 0.0693901502
C  C1050  1  0.72260000  0.87340000  0.74580000  1.0 -0.2210214141
C  C1051  1  0.76130000  0.04160000  0.63360000  1.0 0.1516672418
C  C1052  1  0.83340000  0.04040000  0.63790000  1.0 0.1394556068
C  C1053  1  0.77160000  0.00720000  0.64600000  1.0 0.1516672418
C  C1054  1  0.71630000  0.05290000  0.62900000  1.0 -0.2399043213
C  C1055  1  0.68110000  0.02730000  0.63760000  1.0 0.0605489564
C  C1056  1  0.69190000  0.99180000  0.65090000  1.0 0.0605489564
C  C1057  1  0.73790000  0.98170000  0.65530000  1.0 -0.2118928564
C  C1058  1  0.97760000  0.75210000  0.70050000  1.0 -0.1990825372
C  C1059  1  0.93290000  0.76870000  0.70080000  1.0 0.1516672418
C  C1060  1  0.91320000  0.78510000  0.71710000  1.0 0.1589397469
C  C1061  1  0.93630000  0.78570000  0.73450000  1.0 -0.2290953525
C  C1062  1  0.98120000  0.76790000  0.73480000  1.0 0.0693901502
C  C1063  1  0.86980000  0.80120000  0.69360000  1.0 0.1087952209
C  C1064  1  0.00160000  0.75110000  0.71800000  1.0 0.0605489564
C  C1065  1  0.82840000  0.82140000  0.76750000  1.0 0.1309936284
C  C1066  1  0.89320000  0.83900000  0.77930000  1.0 0.1589397469
C  C1067  1  0.88830000  0.86100000  0.76220000  1.0 0.1516672418
C  C1068  1  0.92220000  0.88980000  0.75500000  1.0 -0.2290953525
C  C1069  1  0.96210000  0.89550000  0.76600000  1.0 0.0605489564
C  C1070  1  0.96730000  0.87250000  0.78370000  1.0 0.0605489564
C  C1071  1  0.93240000  0.84360000  0.79050000  1.0 -0.2290953525
C  C1072  1  0.83230000  0.67650000  0.74630000  1.0 0.0605489564
C  C1073  1  0.75830000  0.71860000  0.79930000  1.0 0.1309936284
C  C1074  1  0.80360000  0.70330000  0.77640000  1.0 0.1394556068
C  C1075  1  0.76440000  0.67880000  0.77390000  1.0 0.1516672418
C  C1076  1  0.83870000  0.70330000  0.76270000  1.0 -0.2290953525
C  C1077  1  0.79140000  0.65100000  0.74370000  1.0 0.0404143021
C  C1078  1  0.75670000  0.65210000  0.75770000  1.0 -0.2492570302
C  C1079  1  0.95970000  0.05930000  0.83720000  1.0 0.1516672418
C  C1080  1  0.92300000  0.07920000  0.82760000  1.0 -0.2210214141
C  C1081  1  0.88210000  0.05380000  0.82640000  1.0 0.0693901502
C  C1082  1  0.87880000  0.01000000  0.83500000  1.0 0.0773412082
C  C1083  1  0.95630000  0.01740000  0.84560000  1.0 0.1516672418
C  C1084  1  0.91640000  0.99140000  0.84490000  1.0 -0.2399043213
C  C1085  1  0.02140000  0.04630000  0.85260000  1.0 0.1394556068
C  C1086  1  0.84240000  0.90840000  0.69490000  1.0 0.1309936284
C  C1087  1  0.82940000  0.94790000  0.71970000  1.0 0.1589397469
C  C1088  1  0.83220000  0.97660000  0.70430000  1.0 0.1784675605
C  C1089  1  0.82870000  0.02410000  0.70620000  1.0 -0.2492570302
C  C1090  1  0.82210000  0.04150000  0.72480000  1.0 0.0605489564
C  C1091  1  0.81940000  0.01170000  0.74070000  1.0 0.0693901502
C  C1092  1  0.82320000  0.96400000  0.73830000  1.0 -0.2290953525
C  C1093  1  0.79590000  0.39940000  0.56680000  1.0 0.1891887256
C  C1094  1  0.79550000  0.43240000  0.58160000  1.0 0.1891887256
C  C1095  1  0.72550000  0.39630000  0.58150000  1.0 0.1004681606
C  C1096  1  0.83560000  0.39390000  0.55530000  1.0 -0.2210214141
C  C1097  1  0.87490000  0.42160000  0.55860000  1.0 0.0499330683
C  C1098  1  0.87450000  0.45470000  0.57330000  1.0 0.0499330683
C  C1099  1  0.83480000  0.46010000  0.58510000  1.0 -0.2210214141
C  C1100  1  0.85530000  0.52740000  0.41040000  1.0 0.0693901502
C  C1101  1  0.85100000  0.56670000  0.39860000  1.0 0.0605489564
C  C1102  1  0.81000000  0.57530000  0.38860000  1.0 -0.2210214141
C  C1103  1  0.77440000  0.54400000  0.39090000  1.0 0.1589397469
C  C1104  1  0.77870000  0.50620000  0.40220000  1.0 0.1516672418
C  C1105  1  0.81870000  0.49640000  0.41220000  1.0 -0.2290953525
C  C1106  1  0.71220000  0.50580000  0.38990000  1.0 0.1394556068
C  C1107  1  0.84840000  0.70190000  0.65320000  1.0 0.1394556068
C  C1108  1  0.92390000  0.70850000  0.61450000  1.0 -0.2210214141
C  C1109  1  0.89100000  0.70060000  0.62850000  1.0 0.1516672418
C  C1110  1  0.86040000  0.66560000  0.62730000  1.0 0.1516672418
C  C1111  1  0.86010000  0.63500000  0.61200000  1.0 -0.2210214141
C  C1112  1  0.89290000  0.64180000  0.59750000  1.0 0.0605489564
C  C1113  1  0.92470000  0.67850000  0.59870000  1.0 0.0693901502
C  C1114  1  0.78720000  0.10430000  0.55600000  1.0 0.1516672418
C  C1115  1  0.81870000  0.15150000  0.57500000  1.0 0.1309936284
C  C1116  1  0.77850000  0.09080000  0.57430000  1.0 0.1589397469
C  C1117  1  0.75560000  0.05010000  0.57860000  1.0 -0.2118928564
C  C1118  1  0.74090000  0.02330000  0.56290000  1.0 0.0693901502
C  C1119  1  0.74980000  0.03720000  0.54400000  1.0 0.0693901502
C  C1120  1  0.77380000  0.07810000  0.54030000  1.0 -0.2210214141
C  C1121  1  0.61410000  0.34320000  0.38476000  1.0 0.1516672418
C  C1122  1  0.65830000  0.35810000  0.38300000  1.0 0.1516672418
C  C1123  1  0.62620000  0.39500000  0.40550000  1.0 0.1087952209
C  C1124  1  0.62700000  0.28610000  0.36092000  1.0 0.0499330683
C  C1125  1  0.59690000  0.30680000  0.37400000  1.0 -0.2210214141
C  C1126  1  0.68930000  0.33770000  0.37040000  1.0 -0.2492570302
C  C1127  1  0.67280000  0.30130000  0.35920000  1.0 0.0605489564
C  C1128  1  0.72960000  0.68460000  0.67890000  1.0 0.1213821931
C  C1129  1  0.70700000  0.61310000  0.71770000  1.0 -0.1509124769
C  C1130  1  0.72030000  0.56670000  0.71880000  1.0 0.0404143021
C  C1131  1  0.74740000  0.54630000  0.70440000  1.0 0.0499330683
C  C1132  1  0.76200000  0.57150000  0.68820000  1.0 -0.2399043213
C  C1133  1  0.75010000  0.61760000  0.68770000  1.0 0.1696966486
C  C1134  1  0.72280000  0.63810000  0.70230000  1.0 0.1394556068
C  C1135  1  0.67670000  0.66160000  0.63840000  1.0 0.1213821931
C  C1136  1  0.74030000  0.71650000  0.58570000  1.0 0.0605489564
C  C1137  1  0.75190000  0.68880000  0.60140000  1.0 -0.2787471042
C  C1138  1  0.71670000  0.67650000  0.61370000  1.0 0.1891887256
C  C1139  1  0.67090000  0.69270000  0.61090000  1.0 0.1696966486
C  C1140  1  0.65980000  0.72130000  0.59580000  1.0 -0.2210214141
C  C1141  1  0.69500000  0.73240000  0.58280000  1.0 0.0330805768
C  C1142  1  0.78970000  0.37320000  0.67280000  1.0 0.0499330683
C  C1143  1  0.77600000  0.32710000  0.67530000  1.0 0.0499330683
C  C1144  1  0.77000000  0.40030000  0.65840000  1.0 -0.2210214141
C  C1145  1  0.74240000  0.30770000  0.66350000  1.0 -0.2399043213
C  C1146  1  0.72280000  0.33570000  0.64970000  1.0 0.1589397469
C  C1147  1  0.73610000  0.38030000  0.64720000  1.0 0.1516672418
C  C1148  1  0.69110000  0.36200000  0.62460000  1.0 0.1213821931
C  C1149  1  0.57970000  0.29700000  0.64350000  1.0 0.1309936284
C  C1150  1  0.58440000  0.22460000  0.64620000  1.0 0.1516672418
C  C1151  1  0.50800000  0.20690000  0.65720000  1.0 -0.2118928564
C  C1152  1  0.51990000  0.16020000  0.65710000  1.0 0.0605489564
C  C1153  1  0.56430000  0.14610000  0.65140000  1.0 0.0693901502
C  C1154  1  0.54140000  0.23810000  0.65160000  1.0 0.1589397469
C  C1155  1  0.59740000  0.17870000  0.64590000  1.0 -0.2399043213
C  C1156  1  0.66320000  0.69450000  0.74700000  1.0 0.1394556068
C  C1157  1  0.60720000  0.64840000  0.74970000  1.0 0.1589397469
C  C1158  1  0.60470000  0.66920000  0.73220000  1.0 0.1589397469
C  C1159  1  0.56960000  0.65980000  0.71930000  1.0 -0.2210214141
C  C1160  1  0.53630000  0.62750000  0.72480000  1.0 0.0605489564
C  C1161  1  0.53890000  0.60580000  0.74290000  1.0 0.0605489564
C  C1162  1  0.57490000  0.61610000  0.75570000  1.0 -0.2210214141
C  C1163  1  0.75190000  0.54090000  0.63160000  1.0 0.1394556068
C  C1164  1  0.81340000  0.49980000  0.63490000  1.0 0.1309936284
C  C1165  1  0.82020000  0.54170000  0.64310000  1.0 0.1589397469
C  C1166  1  0.89730000  0.52120000  0.65110000  1.0 0.0693901502
C  C1167  1  0.86180000  0.55390000  0.65140000  1.0 -0.2290953525
C  C1168  1  0.89030000  0.47800000  0.64230000  1.0 0.0605489564
C  C1169  1  0.84780000  0.46670000  0.63400000  1.0 -0.2118928564
C  C1170  1  0.57040000  0.44910000  0.65820000  1.0 0.1309936284
C  C1171  1  0.50750000  0.42140000  0.64610000  1.0 0.1589397469
C  C1172  1  0.56320000  0.40630000  0.66540000  1.0 0.1696966486
C  C1173  1  0.60990000  0.47400000  0.66210000  1.0 -0.2492570302
C  C1174  1  0.64250000  0.45370000  0.67430000  1.0 0.0605489564
C  C1175  1  0.63510000  0.40920000  0.68180000  1.0 0.0605489564
C  C1176  1  0.59500000  0.38480000  0.67720000  1.0 -0.2399043213
C  C1177  1  0.43810000  0.28450000  0.70660000  1.0 0.1589397469
C  C1178  1  0.47370000  0.29340000  0.69430000  1.0 0.1309936284
C  C1179  1  0.41970000  0.34020000  0.68860000  1.0 0.1087952209
C  C1180  1  0.51460000  0.26870000  0.69490000  1.0 -0.1727980806
C  C1181  1  0.51810000  0.23370000  0.70880000  1.0 0.0605489564
C  C1182  1  0.48080000  0.22470000  0.72140000  1.0 0.0404143021
C  C1183  1  0.44060000  0.25050000  0.72050000  1.0 -0.1596061599
C  C1184  1  0.62140000  0.71670000  0.67310000  1.0 0.1309936284
C  C1185  1  0.60840000  0.82560000  0.69290000  1.0 -0.1990825372
C  C1186  1  0.58650000  0.86310000  0.68410000  1.0 0.0499330683
C  C1187  1  0.56450000  0.85750000  0.66610000  1.0 0.0693901502
C  C1188  1  0.56470000  0.81440000  0.65690000  1.0 -0.2290953525
C  C1189  1  0.58590000  0.77820000  0.66630000  1.0 0.1696966486
C  C1190  1  0.60680000  0.78330000  0.68360000  1.0 0.1589397469
C  C1191  1  0.42580000  0.60330000  0.66050000  1.0 0.0605489564
C  C1192  1  0.43950000  0.64900000  0.66440000  1.0 0.0499330683
C  C1193  1  0.48270000  0.66530000  0.65850000  1.0 -0.2290953525
C  C1194  1  0.51120000  0.63430000  0.64903000  1.0 0.1516672418
C  C1195  1  0.49800000  0.59040000  0.64521000  1.0 0.1516672418
C  C1196  1  0.45530000  0.57340000  0.65060000  1.0 -0.2399043213
C  C1197  1  0.56300000  0.60230000  0.63230000  1.0 0.1516672418
C  C1198  1  0.74380000  0.13480000  0.68040000  1.0 0.0693901502
C  C1199  1  0.73720000  0.19920000  0.62270000  1.0 0.1516672418
C  C1200  1  0.75020000  0.16290000  0.64860000  1.0 0.1516672418
C  C1201  1  0.70640000  0.16530000  0.68360000  1.0 0.0605489564
C  C1202  1  0.69140000  0.19440000  0.66880000  1.0 -0.2118928564
C  C1203  1  0.71440000  0.19190000  0.65140000  1.0 0.1516672418
C  C1204  1  0.76610000  0.13350000  0.66260000  1.0 -0.2290953525
C  C1205  1  0.69210000  0.54400000  0.58590000  1.0 -0.2290953525
C  C1206  1  0.63360000  0.47720000  0.61950000  1.0 0.1516672418
C  C1207  1  0.67310000  0.58070000  0.57560000  1.0 0.0499330683
C  C1208  1  0.66260000  0.51940000  0.59780000  1.0 0.1516672418
C  C1209  1  0.59770000  0.56690000  0.58990000  1.0 -0.2492570302
C  C1210  1  0.61760000  0.53050000  0.59980000  1.0 0.1516672418
C  C1211  1  0.62620000  0.59210000  0.57750000  1.0 0.0605489564
C  C1212  1  0.63430000  0.25930000  0.58650000  1.0 0.1589397469
C  C1213  1  0.69920000  0.29220000  0.58960000  1.0 0.1087952209
C  C1214  1  0.59080000  0.24150000  0.58960000  1.0 -0.2492570302
C  C1215  1  0.64720000  0.27710000  0.56930000  1.0 0.1516672418
C  C1216  1  0.61750000  0.27820000  0.55370000  1.0 -0.2290953525
C  C1217  1  0.57360000  0.25910000  0.55610000  1.0 0.0605489564
C  C1218  1  0.56030000  0.24100000  0.57410000  1.0 0.0605489564
C  C1219  1  0.88390000  0.18880000  0.62810000  1.0 0.1589397469
C  C1220  1  0.92720000  0.19960000  0.62197000  1.0 0.1589397469
C  C1221  1  0.90460000  0.14010000  0.60720000  1.0 0.1213821931
C  C1222  1  0.95000000  0.23880000  0.62810000  1.0 -0.2290953525
C  C1223  1  0.85990000  0.21640000  0.64070000  1.0 -0.2399043213
C  C1224  1  0.92690000  0.26730000  0.64120000  1.0 0.0499330683
C  C1225  1  0.88210000  0.25630000  0.64750000  1.0 0.0605489564
C  C1226  1  0.66450000  0.22660000  0.48380000  1.0 0.1516672418
C  C1227  1  0.69300000  0.19070000  0.48010000  1.0 0.1516672418
C  C1228  1  0.72000000  0.25050000  0.46650000  1.0 0.1394556068
C  C1229  1  0.68670000  0.14790000  0.48860000  1.0 -0.2210214141
C  C1230  1  0.64850000  0.14240000  0.50060000  1.0 0.0693901502
C  C1231  1  0.61850000  0.17960000  0.50410000  1.0 0.0693901502
C  C1232  1  0.62660000  0.22260000  0.49580000  1.0 -0.2210214141
C  C1233  1  0.45840000  0.26130000  0.38360000  1.0 0.1516672418
C  C1234  1  0.45960000  0.33340000  0.38790000  1.0 0.1309936284
C  C1235  1  0.49280000  0.27160000  0.39600000  1.0 0.1516672418
C  C1236  1  0.44710000  0.21630000  0.37900000  1.0 -0.2492570302
C  C1237  1  0.47270000  0.18110000  0.38760000  1.0 0.0605489564
C  C1238  1  0.50820000  0.19190000  0.40090000  1.0 0.0605489564
C  C1239  1  0.51830000  0.23790000  0.40530000  1.0 -0.2118928564
C  C1240  1  0.74790000  0.47760000  0.45050000  1.0 -0.1990825372
C  C1241  1  0.73130000  0.43290000  0.45080000  1.0 0.1516672418
C  C1242  1  0.71490000  0.41320000  0.46710000  1.0 0.1516672418
C  C1243  1  0.71430000  0.43630000  0.48450000  1.0 -0.2290953525
C  C1244  1  0.73210000  0.48120000  0.48480000  1.0 0.0693901502
C  C1245  1  0.69880000  0.36980000  0.44360000  1.0 0.1087952209
C  C1246  1  0.74890000  0.50160000  0.46800000  1.0 0.0605489564
C  C1247  1  0.67860000  0.32840000  0.51750000  1.0 0.1309936284
C  C1248  1  0.66100000  0.39320000  0.52930000  1.0 0.1589397469
C  C1249  1  0.63900000  0.38830000  0.51220000  1.0 0.1516672418
C  C1250  1  0.61020000  0.42220000  0.50500000  1.0 -0.2290953525
C  C1251  1  0.60450000  0.46210000  0.51600000  1.0 0.0605489564
C  C1252  1  0.62750000  0.46730000  0.53370000  1.0 0.0605489564
C  C1253  1  0.65640000  0.43240000  0.54050000  1.0 -0.2290953525
C  C1254  1  0.82350000  0.33230000  0.49630000  1.0 0.0605489564
C  C1255  1  0.78140000  0.25830000  0.54930000  1.0 0.1309936284
C  C1256  1  0.79670000  0.30360000  0.52640000  1.0 0.1394556068
C  C1257  1  0.82120000  0.26440000  0.52390000  1.0 0.1516672418
C  C1258  1  0.79670000  0.33870000  0.51270000  1.0 -0.2290953525
C  C1259  1  0.84900000  0.29140000  0.49370000  1.0 0.0404143021
C  C1260  1  0.84790000  0.25670000  0.50770000  1.0 -0.2492570302
C  C1261  1  0.44070000  0.45970000  0.58720000  1.0 0.1516672418
C  C1262  1  0.42080000  0.42300000  0.57760000  1.0 -0.2210214141
C  C1263  1  0.44620000  0.38210000  0.57640000  1.0 0.0693901502
C  C1264  1  0.49000000  0.37880000  0.58500000  1.0 0.0773412082
C  C1265  1  0.48260000  0.45630000  0.59560000  1.0 0.1516672418
C  C1266  1  0.50860000  0.41640000  0.59490000  1.0 -0.2399043213
C  C1267  1  0.45370000  0.52140000  0.60260000  1.0 0.1394556068
C  C1268  1  0.59160000  0.34240000  0.44490000  1.0 0.1309936284
C  C1269  1  0.55210000  0.32940000  0.46970000  1.0 0.1589397469
C  C1270  1  0.52340000  0.33220000  0.45430000  1.0 0.1784675605
C  C1271  1  0.47590000  0.32870000  0.45620000  1.0 -0.2492570302
C  C1272  1  0.45850000  0.32210000  0.47480000  1.0 0.0605489564
C  C1273  1  0.48830000  0.31940000  0.49070000  1.0 0.0693901502
C  C1274  1  0.53600000  0.32320000  0.48830000  1.0 -0.2290953525
C  C1275  1  0.20410000  0.60060000  0.06680000  1.0 0.1891887256
C  C1276  1  0.20450000  0.56760000  0.08160000  1.0 0.1891887256
C  C1277  1  0.27450000  0.60370000  0.08150000  1.0 0.0898548387
C  C1278  1  0.16440000  0.60610000  0.05530000  1.0 -0.2210214141
C  C1279  1  0.12510000  0.57840000  0.05860000  1.0 0.0499330683
C  C1280  1  0.12550000  0.54530000  0.07330000  1.0 0.0499330683
C  C1281  1  0.16520000  0.53990000  0.08510000  1.0 -0.2210214141
C  C1282  1  0.14470000  0.47260000  0.91040000  1.0 0.0693901502
C  C1283  1  0.14900000  0.43330000  0.89860000  1.0 0.0605489564
C  C1284  1  0.19000000  0.42470000  0.88860000  1.0 -0.2210214141
C  C1285  1  0.22560000  0.45600000  0.89090000  1.0 0.1589397469
C  C1286  1  0.22130000  0.49380000  0.90220000  1.0 0.1516672418
C  C1287  1  0.18130000  0.50360000  0.91220000  1.0 -0.2290953525
C  C1288  1  0.28780000  0.49420000  0.88990000  1.0 0.1394556068
C  C1289  1  0.15160000  0.29810000  0.15320000  1.0 0.1394556068
C  C1290  1  0.07610000  0.29150000  0.11450000  1.0 -0.2210214141
C  C1291  1  0.10900000  0.29940000  0.12850000  1.0 0.1516672418
C  C1292  1  0.13960000  0.33440000  0.12730000  1.0 0.1516672418
C  C1293  1  0.13990000  0.36500000  0.11200000  1.0 -0.2210214141
C  C1294  1  0.10710000  0.35820000  0.09750000  1.0 0.0605489564
C  C1295  1  0.07530000  0.32150000  0.09870000  1.0 0.0693901502
C  C1296  1  0.21280000  0.89570000  0.05600000  1.0 0.1589397469
C  C1297  1  0.18130000  0.84850000  0.07500000  1.0 0.1309936284
C  C1298  1  0.22150000  0.90920000  0.07430000  1.0 0.1589397469
C  C1299  1  0.24440000  0.94990000  0.07860000  1.0 -0.2210214141
C  C1300  1  0.25910000  0.97670000  0.06290000  1.0 0.0693901502
C  C1301  1  0.25020000  0.96280000  0.04400000  1.0 0.0693901502
C  C1302  1  0.22620000  0.92190000  0.04030000  1.0 -0.2210214141
C  C1303  1  0.38590000  0.65680000  0.88476000  1.0 0.1516672418
C  C1304  1  0.34170000  0.64190000  0.88300000  1.0 0.1516672418
C  C1305  1  0.37380000  0.60500000  0.90550000  1.0 0.1087952209
C  C1306  1  0.37300000  0.71390000  0.86092000  1.0 0.0499330683
C  C1307  1  0.40310000  0.69320000  0.87400000  1.0 -0.2210214141
C  C1308  1  0.31070000  0.66230000  0.87040000  1.0 -0.2492570302
C  C1309  1  0.32720000  0.69870000  0.85920000  1.0 0.0605489564
C  C1310  1  0.27040000  0.31540000  0.17890000  1.0 0.1213821931
C  C1311  1  0.29300000  0.38690000  0.21770000  1.0 -0.1509124769
C  C1312  1  0.27970000  0.43330000  0.21880000  1.0 0.0404143021
C  C1313  1  0.25260000  0.45370000  0.20440000  1.0 0.0499330683
C  C1314  1  0.23800000  0.42850000  0.18820000  1.0 -0.2399043213
C  C1315  1  0.24990000  0.38240000  0.18770000  1.0 0.1696966486
C  C1316  1  0.27720000  0.36190000  0.20230000  1.0 0.1394556068
C  C1317  1  0.32330000  0.33840000  0.13840000  1.0 0.1213821931
C  C1318  1  0.25970000  0.28350000  0.08570000  1.0 0.0605489564
C  C1319  1  0.24810000  0.31120000  0.10140000  1.0 -0.2787471042
C  C1320  1  0.28330000  0.32350000  0.11370000  1.0 0.1891887256
C  C1321  1  0.32910000  0.30730000  0.11090000  1.0 0.1696966486
C  C1322  1  0.34020000  0.27870000  0.09580000  1.0 -0.2210214141
C  C1323  1  0.30500000  0.26760000  0.08280000  1.0 0.0330805768
C  C1324  1  0.21030000  0.62680000  0.17280000  1.0 0.0499330683
C  C1325  1  0.22400000  0.67290000  0.17530000  1.0 0.0499330683
C  C1326  1  0.23000000  0.59970000  0.15840000  1.0 -0.2290953525
C  C1327  1  0.25760000  0.69230000  0.16350000  1.0 -0.2399043213
C  C1328  1  0.27720000  0.66430000  0.14970000  1.0 0.1589397469
C  C1329  1  0.26390000  0.61970000  0.14720000  1.0 0.1516672418
C  C1330  1  0.30890000  0.63800000  0.12460000  1.0 0.1213821931
C  C1331  1  0.42030000  0.70300000  0.14350000  1.0 0.1309936284
C  C1332  1  0.41560000  0.77540000  0.14620000  1.0 0.1516672418
C  C1333  1  0.49200000  0.79310000  0.15720000  1.0 -0.2118928564
C  C1334  1  0.48010000  0.83980000  0.15710000  1.0 0.0605489564
C  C1335  1  0.43570000  0.85390000  0.15140000  1.0 0.0693901502
C  C1336  1  0.45860000  0.76190000  0.15160000  1.0 0.1589397469
C  C1337  1  0.40260000  0.82130000  0.14590000  1.0 -0.2399043213
C  C1338  1  0.33680000  0.30550000  0.24700000  1.0 0.1394556068
C  C1339  1  0.39280000  0.35160000  0.24970000  1.0 0.1589397469
C  C1340  1  0.39530000  0.33080000  0.23220000  1.0 0.1589397469
C  C1341  1  0.43040000  0.34020000  0.21930000  1.0 -0.2210214141
C  C1342  1  0.46370000  0.37250000  0.22480000  1.0 0.0605489564
C  C1343  1  0.46110000  0.39420000  0.24290000  1.0 0.0605489564
C  C1344  1  0.42510000  0.38390000  0.25570000  1.0 -0.2210214141
C  C1345  1  0.24810000  0.45910000  0.13160000  1.0 0.1394556068
C  C1346  1  0.18660000  0.50020000  0.13490000  1.0 0.1309936284
C  C1347  1  0.17980000  0.45830000  0.14310000  1.0 0.1589397469
C  C1348  1  0.10270000  0.47880000  0.15110000  1.0 0.0693901502
C  C1349  1  0.13820000  0.44610000  0.15140000  1.0 -0.2290953525
C  C1350  1  0.10970000  0.52200000  0.14230000  1.0 0.0605489564
C  C1351  1  0.15220000  0.53330000  0.13400000  1.0 -0.2118928564
C  C1352  1  0.42960000  0.55090000  0.15820000  1.0 0.1309936284
C  C1353  1  0.49250000  0.57860000  0.14610000  1.0 0.1516672418
C  C1354  1  0.43680000  0.59370000  0.16540000  1.0 0.1696966486
C  C1355  1  0.39010000  0.52600000  0.16210000  1.0 -0.2492570302
C  C1356  1  0.35750000  0.54630000  0.17430000  1.0 0.0605489564
C  C1357  1  0.36490000  0.59080000  0.18180000  1.0 0.0605489564
C  C1358  1  0.40500000  0.61520000  0.17720000  1.0 -0.2399043213
C  C1359  1  0.56190000  0.71550000  0.20660000  1.0 0.1589397469
C  C1360  1  0.52630000  0.70660000  0.19430000  1.0 0.1309936284
C  C1361  1  0.58030000  0.65980000  0.18860000  1.0 0.1087952209
C  C1362  1  0.48540000  0.73130000  0.19490000  1.0 -0.1727980806
C  C1363  1  0.48190000  0.76630000  0.20880000  1.0 0.0605489564
C  C1364  1  0.51920000  0.77530000  0.22140000  1.0 0.0404143021
C  C1365  1  0.55940000  0.74950000  0.22050000  1.0 -0.1596061599
C  C1366  1  0.37860000  0.28330000  0.17310000  1.0 0.1309936284
C  C1367  1  0.39160000  0.17440000  0.19290000  1.0 -0.1990825372
C  C1368  1  0.41350000  0.13690000  0.18410000  1.0 0.0499330683
C  C1369  1  0.43550000  0.14250000  0.16610000  1.0 0.0693901502
C  C1370  1  0.43530000  0.18560000  0.15690000  1.0 -0.2290953525
C  C1371  1  0.41410000  0.22180000  0.16630000  1.0 0.1696966486
C  C1372  1  0.39320000  0.21670000  0.18360000  1.0 0.1589397469
C  C1373  1  0.57420000  0.39670000  0.16050000  1.0 0.0605489564
C  C1374  1  0.56050000  0.35100000  0.16440000  1.0 0.0499330683
C  C1375  1  0.51730000  0.33470000  0.15850000  1.0 -0.2290953525
C  C1376  1  0.48880000  0.36570000  0.14903000  1.0 0.1516672418
C  C1377  1  0.50200000  0.40960000  0.14521000  1.0 0.1516672418
C  C1378  1  0.54470000  0.42660000  0.15060000  1.0 -0.2399043213
C  C1379  1  0.43700000  0.39770000  0.13230000  1.0 0.1516672418
C  C1380  1  0.25620000  0.86520000  0.18040000  1.0 0.0693901502
C  C1381  1  0.26280000  0.80080000  0.12270000  1.0 0.1516672418
C  C1382  1  0.24980000  0.83710000  0.14860000  1.0 0.1516672418
C  C1383  1  0.29360000  0.83470000  0.18360000  1.0 0.0605489564
C  C1384  1  0.30860000  0.80560000  0.16880000  1.0 -0.2118928564
C  C1385  1  0.28560000  0.80810000  0.15140000  1.0 0.1516672418
C  C1386  1  0.23390000  0.86650000  0.16260000  1.0 -0.2290953525
C  C1387  1  0.30790000  0.45600000  0.08590000  1.0 -0.2290953525
C  C1388  1  0.36640000  0.52280000  0.11950000  1.0 0.1516672418
C  C1389  1  0.32690000  0.41930000  0.07560000  1.0 0.0499330683
C  C1390  1  0.33740000  0.48060000  0.09780000  1.0 0.1516672418
C  C1391  1  0.40230000  0.43310000  0.08990000  1.0 -0.2492570302
C  C1392  1  0.38240000  0.46950000  0.09980000  1.0 0.1516672418
C  C1393  1  0.37380000  0.40790000  0.07750000  1.0 0.0605489564
C  C1394  1  0.36570000  0.74070000  0.08650000  1.0 0.1589397469
C  C1395  1  0.30080000  0.70780000  0.08960000  1.0 0.1087952209
C  C1396  1  0.40920000  0.75850000  0.08960000  1.0 -0.2492570302
C  C1397  1  0.35280000  0.72290000  0.06930000  1.0 0.1516672418
C  C1398  1  0.38250000  0.72180000  0.05370000  1.0 -0.2290953525
C  C1399  1  0.42640000  0.74090000  0.05610000  1.0 0.0605489564
C  C1400  1  0.43970000  0.75900000  0.07410000  1.0 0.0605489564
C  C1401  1  0.11610000  0.81120000  0.12810000  1.0 0.1589397469
C  C1402  1  0.07280000  0.80040000  0.12197000  1.0 0.1589397469
C  C1403  1  0.09540000  0.85990000  0.10720000  1.0 0.1213821931
C  C1404  1  0.05000000  0.76120000  0.12810000  1.0 -0.2290953525
C  C1405  1  0.14010000  0.78360000  0.14070000  1.0 -0.2399043213
C  C1406  1  0.07310000  0.73270000  0.14120000  1.0 0.0499330683
C  C1407  1  0.11790000  0.74370000  0.14750000  1.0 0.0605489564
C  C1408  1  0.33550000  0.77340000  0.98380000  1.0 0.1516672418
C  C1409  1  0.30700000  0.80930000  0.98010000  1.0 0.1516672418
C  C1410  1  0.28000000  0.74950000  0.96650000  1.0 0.1394556068
C  C1411  1  0.31330000  0.85210000  0.98860000  1.0 -0.2210214141
C  C1412  1  0.35150000  0.85760000  0.00060000  1.0 0.0693901502
C  C1413  1  0.38150000  0.82040000  0.00410000  1.0 0.0693901502
C  C1414  1  0.37340000  0.77740000  0.99580000  1.0 -0.2210214141
C  C1415  1  0.54160000  0.73870000  0.88360000  1.0 0.1516672418
C  C1416  1  0.54040000  0.66666667  0.88790000  1.0 0.1394556068
C  C1417  1  0.50720000  0.72840000  0.89600000  1.0 0.1516672418
C  C1418  1  0.55290000  0.78370000  0.87900000  1.0 -0.2399043213
C  C1419  1  0.52730000  0.81890000  0.88760000  1.0 0.0605489564
C  C1420  1  0.49180000  0.80810000  0.90090000  1.0 0.0605489564
C  C1421  1  0.48170000  0.76210000  0.90530000  1.0 -0.2118928564
C  C1422  1  0.25210000  0.52240000  0.95050000  1.0 -0.1990825372
C  C1423  1  0.26870000  0.56710000  0.95080000  1.0 0.1516672418
C  C1424  1  0.28510000  0.58680000  0.96710000  1.0 0.1589397469
C  C1425  1  0.28570000  0.56370000  0.98450000  1.0 -0.2290953525
C  C1426  1  0.26790000  0.51880000  0.98480000  1.0 0.0693901502
C  C1427  1  0.30120000  0.63020000  0.94360000  1.0 0.1087952209
C  C1428  1  0.25110000  0.49840000  0.96800000  1.0 0.0605489564
C  C1429  1  0.32140000  0.67160000  0.01750000  1.0 0.1309936284
C  C1430  1  0.33900000  0.60680000  0.02930000  1.0 0.1589397469
C  C1431  1  0.36100000  0.61170000  0.01220000  1.0 0.1516672418
C  C1432  1  0.38980000  0.57780000  0.00500000  1.0 -0.2290953525
C  C1433  1  0.39550000  0.53790000  0.01600000  1.0 0.0605489564
C  C1434  1  0.37250000  0.53270000  0.03370000  1.0 0.0605489564
C  C1435  1  0.34360000  0.56760000  0.04050000  1.0 -0.2290953525
C  C1436  1  0.17650000  0.66770000  0.99630000  1.0 0.0605489564
C  C1437  1  0.21860000  0.74170000  0.04930000  1.0 0.1309936284
C  C1438  1  0.20330000  0.69640000  0.02640000  1.0 0.1394556068
C  C1439  1  0.17880000  0.73560000  0.02390000  1.0 0.1516672418
C  C1440  1  0.20330000  0.66130000  0.01270000  1.0 -0.2290953525
C  C1441  1  0.15100000  0.70860000  0.99370000  1.0 0.0404143021
C  C1442  1  0.15210000  0.74330000  0.00770000  1.0 -0.2492570302
C  C1443  1  0.55930000  0.54030000  0.08720000  1.0 0.1516672418
C  C1444  1  0.57920000  0.57700000  0.07760000  1.0 -0.2210214141
C  C1445  1  0.55380000  0.61790000  0.07640000  1.0 0.0693901502
C  C1446  1  0.51000000  0.62120000  0.08500000  1.0 0.0773412082
C  C1447  1  0.51740000  0.54370000  0.09560000  1.0 0.1516672418
C  C1448  1  0.49140000  0.58360000  0.09490000  1.0 -0.2399043213
C  C1449  1  0.54630000  0.47860000  0.10260000  1.0 0.1394556068
C  C1450  1  0.40840000  0.65760000  0.94490000  1.0 0.1309936284
C  C1451  1  0.44790000  0.67060000  0.96970000  1.0 0.1589397469
C  C1452  1  0.47660000  0.66780000  0.95430000  1.0 0.1784675605
C  C1453  1  0.52410000  0.67130000  0.95620000  1.0 -0.2492570302
C  C1454  1  0.54150000  0.67790000  0.97480000  1.0 0.0605489564
C  C1455  1  0.51170000  0.68060000  0.99070000  1.0 0.0693901502
C  C1456  1  0.46400000  0.67680000  0.98830000  1.0 -0.2290953525
C  C1457  1  0.41580000  0.91760000  0.45390000  0.25 -0.1509124769
C  C1458  1  0.48470000  0.91710000  0.42310000  0.25 -0.1596061599
C  C1459  1  0.60050000  0.89120000  0.60320000  0.25 -0.1990825372
C  C1460  1  0.51840000  0.90030000  0.57880000  0.25 -0.0570505068
C  C1461  1  0.60940000  0.89400000  0.41980000  0.25 -0.2399043213
C  C1462  1  0.68540000  0.96030000  0.41730000  0.25 -0.2492570302
C  C1463  1  0.97820000  0.71490000  0.43350000  0.25 -0.1869304612
C  C1464  1  0.00770000  0.73320000  0.47280000  0.25 -0.2290953525
C  C1465  1  0.24630000  0.61000000  0.65170000  0.25 -0.2210214141
C  C1466  1  0.27800000  0.70530000  0.65520000  0.25 -0.0263411992
C  C1467  1  0.49570000  0.76160000  0.29390000  0.25 -0.0570505068
C  C1468  1  0.53740000  0.70540000  0.26400000  0.25 -0.2290953525
C  C1469  1  0.73000000  0.77710000  0.42880000  0.25 -0.0163501773
C  C1470  1  0.76220000  0.68370000  0.43450000  0.25 -0.2210214141
C  C1471  1  0.39420000  0.82630000  0.31390000  0.25 -0.2680234301
C  C1472  1  0.29780000  0.79780000  0.30880000  0.25 0.0126246261
C  C1473  1  0.12390000  0.48460000  0.33680000  0.25 -0.2399043213
C  C1474  1  0.09490000  0.57670000  0.34880000  0.25 -0.0497313868
C  C1475  1  0.61540000  0.49680000  0.28890000  0.25 -0.2290953525
C  C1476  1  0.57060000  0.50230000  0.25130000  0.25 0.0605489564
C  C1477  1  0.53230000  0.94380000  0.33990000  0.25 -0.0755374321
C  C1478  1  0.44270000  0.92940000  0.35800000  0.25 -0.2492570302
C  C1479  1  0.47960000  0.68640000  0.32040000  0.25 -0.2118928564
C  C1480  1  0.38720000  0.67080000  0.30510000  0.25 -0.2680234301
C  C1481  1  0.20510000  0.56210000  0.28980000  0.25 -0.179743489
C  C1482  1  0.18630000  0.48480000  0.26370000  0.25 -0.1400924885
C  C1483  1  0.91000000  0.58610000  0.30600000  0.25 -0.088593254
C  C1484  1  0.89850000  0.54070000  0.34350000  0.25 -0.1596061599
C  C1485  1  0.68150000  0.40700000  0.32490000  0.25 -0.2399043213
C  C1486  1  0.58610000  0.37870000  0.33280000  0.25 -0.2399043213
C  C1487  1  0.10280000  0.76000000  0.30340000  0.25 -0.1727980806
C  C1488  1  0.16660000  0.68250000  0.29680000  0.25 -0.1990825372
C  C1489  1  0.60890000  0.70340000  0.43800000  0.25 -0.1990825372
C  C1490  1  0.63230000  0.60600000  0.43390000  0.25 -0.2680234301
C  C1491  1  0.25780000  0.53980000  0.46070000  0.25 -0.1137598642
C  C1492  1  0.22070000  0.51200000  0.42360000  0.25 -0.0163501773
C  C1493  1  0.31090000  0.95040000  0.35130000  0.25 -0.0497313868
C  C1494  1  0.28810000  0.85760000  0.33830000  0.25 -0.1400924885
C  C1495  1  0.09580000  0.63920000  0.48990000  0.25 -0.2399043213
C  C1496  1  0.17310000  0.57650000  0.48300000  0.25 -0.2210214141
C  C1497  1  0.13060000  0.46240000  0.61720000  0.25 -0.0425503315
C  C1498  1  0.15320000  0.53560000  0.58950000  0.25 -0.2210214141
C  C1499  1  0.50830000  0.73350000  0.49630000  0.25 -0.2210214141
C  C1500  1  0.55070000  0.76830000  0.53130000  0.25 -0.1400924885
C  C1501  1  0.50100000  0.57280000  0.49100000  0.25 -0.0570505068
C  C1502  1  0.51130000  0.62090000  0.45450000  0.25 -0.2399043213
C  C1503  1  0.36970000  0.82550000  0.51910000  0.25 -0.3297555991
C  C1504  1  0.28490000  0.87810000  0.52430000  0.25 -0.1194280107
C  C1505  1  0.34040000  0.42650000  0.43420000  0.25 -0.2591276654
C  C1506  1  0.33400000  0.51780000  0.41660000  0.25 -0.2399043213
C  C1507  1  0.31770000  0.40650000  0.52210000  0.25 0.0126246261
C  C1508  1  0.31200000  0.46850000  0.48910000  0.25 -0.1596061599
C  C1509  1  0.58420000  0.08240000  0.95390000  0.25 -0.1400924885
C  C1510  1  0.51530000  0.08290000  0.92310000  0.25 -0.1509124769
C  C1511  1  0.39950000  0.10880000  0.10320000  0.25 -0.1990825372
C  C1512  1  0.48160000  0.09970000  0.07880000  0.25 -0.0570505068
C  C1513  1  0.39060000  0.10600000  0.91980000  0.25 -0.2399043213
C  C1514  1  0.31460000  0.03970000  0.91730000  0.25 -0.2492570302
C  C1515  1  0.02180000  0.28510000  0.93350000  0.25 -0.1869304612
C  C1516  1  0.99230000  0.26680000  0.97280000  0.25 -0.2290953525
C  C1517  1  0.75370000  0.39000000  0.15170000  0.25 -0.2118928564
C  C1518  1  0.72200000  0.29470000  0.15520000  0.25 -0.0263411992
C  C1519  1  0.50430000  0.23840000  0.79390000  0.25 -0.0570505068
C  C1520  1  0.46260000  0.29460000  0.76400000  0.25 -0.2210214141
C  C1521  1  0.27000000  0.22290000  0.92880000  0.25 -0.0145125669
C  C1522  1  0.23780000  0.31630000  0.93450000  0.25 -0.2210214141
C  C1523  1  0.60580000  0.17370000  0.81390000  0.25 -0.2680234301
C  C1524  1  0.70220000  0.20220000  0.80880000  0.25 0.0126246261
C  C1525  1  0.87610000  0.51540000  0.83680000  0.25 -0.2399043213
C  C1526  1  0.90510000  0.42330000  0.84880000  0.25 -0.0425503315
C  C1527  1  0.38460000  0.50320000  0.78890000  0.25 -0.2290953525
C  C1528  1  0.42940000  0.49770000  0.75130000  0.25 0.0605489564
C  C1529  1  0.46770000  0.05620000  0.83990000  0.25 -0.0755374321
C  C1530  1  0.55730000  0.07060000  0.85800000  0.25 -0.2492570302
C  C1531  1  0.52040000  0.31360000  0.82040000  0.25 -0.1990825372
C  C1532  1  0.61280000  0.32920000  0.80510000  0.25 -0.2680234301
C  C1533  1  0.79490000  0.43790000  0.78980000  0.25 -0.179743489
C  C1534  1  0.81370000  0.51520000  0.76370000  0.25 -0.1400924885
C  C1535  1  0.09000000  0.41390000  0.80600000  0.25 -0.088593254
C  C1536  1  0.10150000  0.45930000  0.84350000  0.25 -0.1596061599
C  C1537  1  0.31850000  0.59300000  0.82490000  0.25 -0.2290953525
C  C1538  1  0.41390000  0.62130000  0.83280000  0.25 -0.2399043213
C  C1539  1  0.89720000  0.24000000  0.80340000  0.25 -0.1727980806
C  C1540  1  0.83340000  0.31750000  0.79680000  0.25 -0.1990825372
C  C1541  1  0.39110000  0.29660000  0.93800000  0.25 -0.1990825372
C  C1542  1  0.36770000  0.39400000  0.93390000  0.25 -0.2680234301
C  C1543  1  0.74220000  0.46020000  0.96070000  0.25 -0.1137598642
C  C1544  1  0.77930000  0.48800000  0.92360000  0.25 -0.0145125669
C  C1545  1  0.68910000  0.04960000  0.85130000  0.25 -0.0497313868
C  C1546  1  0.71190000  0.14240000  0.83830000  0.25 -0.1328807166
C  C1547  1  0.90420000  0.36080000  0.98990000  0.25 -0.2399043213
C  C1548  1  0.82690000  0.42350000  0.98300000  0.25 -0.2210214141
C  C1549  1  0.86940000  0.53760000  0.11720000  0.25 -0.0425503315
C  C1550  1  0.84680000  0.46440000  0.08950000  0.25 -0.2210214141
C  C1551  1  0.49170000  0.26650000  0.99630000  0.25 -0.2210214141
C  C1552  1  0.44930000  0.23170000  0.03130000  0.25 -0.1328807166
C  C1553  1  0.49900000  0.42720000  0.99100000  0.25 -0.0570505068
C  C1554  1  0.48870000  0.37910000  0.95450000  0.25 -0.2399043213
C  C1555  1  0.63030000  0.17450000  0.01910000  0.25 -0.3297555991
C  C1556  1  0.71510000  0.12190000  0.02430000  0.25 -0.1194280107
C  C1557  1  0.65960000  0.57350000  0.93420000  0.25 -0.2591276654
C  C1558  1  0.66600000  0.48220000  0.91660000  0.25 -0.2399043213
C  C1559  1  0.68230000  0.59350000  0.02210000  0.25 0.0126246261
C  C1560  1  0.68800000  0.53150000  0.98910000  0.25 -0.1596061599
C  C1561  1  0.58240000  0.91580000  0.20390000  0.25 -0.1509124769
C  C1562  1  0.58290000  0.98470000  0.17310000  0.25 -0.1596061599
C  C1563  1  0.60880000  0.10050000  0.35320000  0.25 -0.1990825372
C  C1564  1  0.59970000  0.01840000  0.32880000  0.25 -0.0570505068
C  C1565  1  0.60600000  0.10940000  0.16980000  0.25 -0.2399043213
C  C1566  1  0.53970000  0.18540000  0.16730000  0.25 -0.2492570302
C  C1567  1  0.78510000  0.47820000  0.18350000  0.25 -0.1869304612
C  C1568  1  0.76680000  0.50770000  0.22280000  0.25 -0.2290953525
C  C1569  1  0.89000000  0.74630000  0.40170000  0.25 -0.2210214141
C  C1570  1  0.79470000  0.77800000  0.40520000  0.25 -0.0263411992
C  C1571  1  0.73840000  0.99570000  0.04390000  0.25 -0.0570505068
C  C1572  1  0.79460000  0.03740000  0.01400000  0.25 -0.2210214141
C  C1573  1  0.72290000  0.23000000  0.17880000  0.25 -0.0163501773
C  C1574  1  0.81630000  0.26220000  0.18450000  0.25 -0.2210214141
C  C1575  1  0.67370000  0.89420000  0.06390000  0.25 -0.2680234301
C  C1576  1  0.70220000  0.79780000  0.05880000  0.25 0.0126246261
C  C1577  1  0.01540000  0.62390000  0.08680000  0.25 -0.2399043213
C  C1578  1  0.92330000  0.59490000  0.09880000  0.25 -0.0497313868
C  C1579  1  0.00320000  0.11540000  0.03890000  0.25 -0.2399043213
C  C1580  1  0.99770000  0.07060000  0.00130000  0.25 0.0605489564
C  C1581  1  0.55620000  0.03230000  0.08990000  0.25 -0.0755374321
C  C1582  1  0.57060000  0.94270000  0.10800000  0.25 -0.2492570302
C  C1583  1  0.81360000  0.97960000  0.07040000  0.25 -0.2118928564
C  C1584  1  0.82920000  0.88720000  0.05510000  0.25 -0.2680234301
C  C1585  1  0.93790000  0.70510000  0.03980000  0.25 -0.179743489
C  C1586  1  0.01520000  0.68630000  0.01370000  0.25 -0.1400924885
C  C1587  1  0.91390000  0.41000000  0.05600000  0.25 -0.088593254
C  C1588  1  0.95930000  0.39850000  0.09350000  0.25 -0.1596061599
C  C1589  1  0.09300000  0.18150000  0.07490000  0.25 -0.2290953525
C  C1590  1  0.12130000  0.08610000  0.08280000  0.25 -0.2399043213
C  C1591  1  0.74000000  0.60280000  0.05340000  0.25 -0.1727980806
C  C1592  1  0.81750000  0.66666667  0.04680000  0.25 -0.1990825372
C  C1593  1  0.79660000  0.10890000  0.18800000  0.25 -0.1990825372
C  C1594  1  0.89400000  0.13230000  0.18390000  0.25 -0.2680234301
C  C1595  1  0.96020000  0.75780000  0.21070000  0.25 -0.1137598642
C  C1596  1  0.98800000  0.72070000  0.17360000  0.25 -0.0163501773
C  C1597  1  0.54960000  0.81090000  0.10130000  0.25 -0.0497313868
C  C1598  1  0.64240000  0.78810000  0.08830000  0.25 -0.1328807166
C  C1599  1  0.86080000  0.59580000  0.23990000  0.25 -0.2399043213
C  C1600  1  0.92350000  0.67310000  0.23300000  0.25 -0.2210214141
C  C1601  1  0.03760000  0.63060000  0.36720000  0.25 -0.0425503315
C  C1602  1  0.96440000  0.65320000  0.33950000  0.25 -0.2210214141
C  C1603  1  0.76650000  0.00830000  0.24630000  0.25 -0.2210214141
C  C1604  1  0.73170000  0.05070000  0.28130000  0.25 -0.1328807166
C  C1605  1  0.92720000  0.00100000  0.24100000  0.25 -0.0570505068
C  C1606  1  0.87910000  0.01130000  0.20450000  0.25 -0.2399043213
C  C1607  1  0.67450000  0.86970000  0.26910000  0.25 -0.3297555991
C  C1608  1  0.62190000  0.78490000  0.27430000  0.25 -0.1194280107
C  C1609  1  0.07350000  0.84040000  0.18420000  0.25 -0.2591276654
C  C1610  1  0.98220000  0.83400000  0.16660000  0.25 -0.2399043213
C  C1611  1  0.09350000  0.81770000  0.27210000  0.25 0.0126246261
C  C1612  1  0.03150000  0.81200000  0.23910000  0.25 -0.1596061599
C  C1613  1  0.41760000  0.08420000  0.70390000  0.25 -0.1400924885
C  C1614  1  0.41710000  0.01530000  0.67310000  0.25 -0.1509124769
C  C1615  1  0.39120000  0.89950000  0.85320000  0.25 -0.1990825372
C  C1616  1  0.40030000  0.98160000  0.82880000  0.25 -0.0570505068
C  C1617  1  0.39400000  0.89060000  0.66980000  0.25 -0.2399043213
C  C1618  1  0.46030000  0.81460000  0.66730000  0.25 -0.2492570302
C  C1619  1  0.21490000  0.52180000  0.68350000  0.25 -0.1869304612
C  C1620  1  0.23320000  0.49230000  0.72280000  0.25 -0.2290953525
C  C1621  1  0.11000000  0.25370000  0.90170000  0.25 -0.2118928564
C  C1622  1  0.20530000  0.22200000  0.90520000  0.25 -0.0263411992
C  C1623  1  0.26160000  0.00430000  0.54390000  0.25 -0.0570505068
C  C1624  1  0.20540000  0.96260000  0.51400000  0.25 -0.2290953525
C  C1625  1  0.27710000  0.77000000  0.67880000  0.25 -0.0163501773
C  C1626  1  0.18370000  0.73780000  0.68450000  0.25 -0.2210214141
C  C1627  1  0.32630000  0.10580000  0.56390000  0.25 -0.2680234301
C  C1628  1  0.29780000  0.20220000  0.55880000  0.25 0.0126246261
C  C1629  1  0.98460000  0.37610000  0.58680000  0.25 -0.2399043213
C  C1630  1  0.07670000  0.40510000  0.59880000  0.25 -0.0497313868
C  C1631  1  0.99680000  0.88460000  0.53890000  0.25 -0.2290953525
C  C1632  1  0.00230000  0.92940000  0.50130000  0.25 0.0605489564
C  C1633  1  0.44380000  0.96770000  0.58990000  0.25 -0.0755374321
C  C1634  1  0.42940000  0.05730000  0.60800000  0.25 -0.2492570302
C  C1635  1  0.18640000  0.02040000  0.57040000  0.25 -0.1990825372
C  C1636  1  0.17080000  0.11280000  0.55510000  0.25 -0.2680234301
C  C1637  1  0.06210000  0.29490000  0.53980000  0.25 -0.179743489
C  C1638  1  0.98480000  0.31370000  0.51370000  0.25 -0.1400924885
C  C1639  1  0.08610000  0.59000000  0.55600000  0.25 -0.088593254
C  C1640  1  0.04070000  0.60150000  0.59350000  0.25 -0.1596061599
C  C1641  1  0.90700000  0.81850000  0.57490000  0.25 -0.2399043213
C  C1642  1  0.87870000  0.91390000  0.58280000  0.25 -0.2399043213
C  C1643  1  0.26000000  0.39720000  0.55340000  0.25 -0.1727980806
C  C1644  1  0.18250000  0.33340000  0.54680000  0.25 -0.1990825372
C  C1645  1  0.20340000  0.89110000  0.68800000  0.25 -0.1990825372
C  C1646  1  0.10600000  0.86770000  0.68390000  0.25 -0.2680234301
C  C1647  1  0.03980000  0.24220000  0.71070000  0.25 -0.1137598642
C  C1648  1  0.01200000  0.27930000  0.67360000  0.25 -0.0145125669
C  C1649  1  0.45040000  0.18910000  0.60130000  0.25 -0.0497313868
C  C1650  1  0.35760000  0.21190000  0.58830000  0.25 -0.1328807166
C  C1651  1  0.13920000  0.40420000  0.73990000  0.25 -0.2399043213
C  C1652  1  0.07650000  0.32690000  0.73300000  0.25 -0.2210214141
C  C1653  1  0.96240000  0.36940000  0.86720000  0.25 -0.0425503315
C  C1654  1  0.03560000  0.34680000  0.83950000  0.25 -0.2210214141
C  C1655  1  0.23350000  0.99170000  0.74630000  0.25 -0.2210214141
C  C1656  1  0.26830000  0.94930000  0.78130000  0.25 -0.1400924885
C  C1657  1  0.07280000  0.99900000  0.74100000  0.25 -0.0570505068
C  C1658  1  0.12090000  0.98870000  0.70450000  0.25 -0.2399043213
C  C1659  1  0.32550000  0.13030000  0.76910000  0.25 -0.3297555991
C  C1660  1  0.37810000  0.21510000  0.77430000  0.25 -0.1194280107
C  C1661  1  0.92650000  0.15960000  0.68420000  0.25 -0.2591276654
C  C1662  1  0.01780000  0.16600000  0.66666667  0.25 -0.2399043213
C  C1663  1  0.90650000  0.18230000  0.77210000  0.25 0.0153517387
C  C1664  1  0.96850000  0.18800000  0.73910000  0.25 -0.1596061599
C  C1665  1  0.08420000  0.41760000  0.29610000  0.25 -0.1400924885
C  C1666  1  0.01530000  0.41710000  0.32690000  0.25 -0.1509124769
C  C1667  1  0.89950000  0.39120000  0.14680000  0.25 -0.1990825372
C  C1668  1  0.98160000  0.40030000  0.17120000  0.25 -0.0570505068
C  C1669  1  0.89060000  0.39400000  0.33020000  0.25 -0.2399043213
C  C1670  1  0.81460000  0.46030000  0.33270000  0.25 -0.2492570302
C  C1671  1  0.52180000  0.21490000  0.31650000  0.25 -0.1869304612
C  C1672  1  0.49230000  0.23320000  0.27720000  0.25 -0.2290953525
C  C1673  1  0.25370000  0.11000000  0.09830000  0.25 -0.2118928564
C  C1674  1  0.22200000  0.20530000  0.09480000  0.25 -0.0263411992
C  C1675  1  0.00430000  0.26160000  0.45610000  0.25 -0.0570505068
C  C1676  1  0.96260000  0.20540000  0.48600000  0.25 -0.2210214141
C  C1677  1  0.77000000  0.27710000  0.32120000  0.25 -0.0163501773
C  C1678  1  0.73780000  0.18370000  0.31550000  0.25 -0.2210214141
C  C1679  1  0.10580000  0.32630000  0.43610000  0.25 -0.2680234301
C  C1680  1  0.20220000  0.29780000  0.44120000  0.25 0.0126246261
C  C1681  1  0.37610000  0.98460000  0.41320000  0.25 -0.2399043213
C  C1682  1  0.40510000  0.07670000  0.40120000  0.25 -0.0497313868
C  C1683  1  0.88460000  0.99680000  0.46110000  0.25 -0.2290953525
C  C1684  1  0.92940000  0.00230000  0.49870000  0.25 0.0605489564
C  C1685  1  0.96770000  0.44380000  0.41010000  0.25 -0.0755374321
C  C1686  1  0.05730000  0.42940000  0.39200000  0.25 -0.2492570302
C  C1687  1  0.02040000  0.18640000  0.42960000  0.25 -0.1990825372
C  C1688  1  0.11280000  0.17080000  0.44490000  0.25 -0.2680234301
C  C1689  1  0.29490000  0.06210000  0.46020000  0.25 -0.179743489
C  C1690  1  0.31370000  0.98480000  0.48630000  0.25 -0.1400924885
C  C1691  1  0.59000000  0.08610000  0.44400000  0.25 -0.088593254
C  C1692  1  0.60150000  0.04070000  0.40650000  0.25 -0.1596061599
C  C1693  1  0.81850000  0.90700000  0.42510000  0.25 -0.2290953525
C  C1694  1  0.91390000  0.87870000  0.41720000  0.25 -0.2399043213
C  C1695  1  0.39720000  0.26000000  0.44660000  0.25 -0.1727980806
C  C1696  1  0.33340000  0.18250000  0.45320000  0.25 -0.1990825372
C  C1697  1  0.89110000  0.20340000  0.31200000  0.25 -0.1990825372
C  C1698  1  0.86770000  0.10600000  0.31610000  0.25 -0.2680234301
C  C1699  1  0.24220000  0.03980000  0.28930000  0.25 -0.1137598642
C  C1700  1  0.27930000  0.01200000  0.32640000  0.25 -0.0163501773
C  C1701  1  0.18910000  0.45040000  0.39870000  0.25 -0.0497313868
C  C1702  1  0.21190000  0.35760000  0.41170000  0.25 -0.1328807166
C  C1703  1  0.40420000  0.13920000  0.26010000  0.25 -0.2492570302
C  C1704  1  0.32690000  0.07650000  0.26700000  0.25 -0.2210214141
C  C1705  1  0.36940000  0.96240000  0.13280000  0.25 -0.0425503315
C  C1706  1  0.34680000  0.03560000  0.16050000  0.25 -0.2210214141
C  C1707  1  0.99170000  0.23350000  0.25370000  0.25 -0.2210214141
C  C1708  1  0.94930000  0.26830000  0.21870000  0.25 -0.1328807166
C  C1709  1  0.99900000  0.07280000  0.25900000  0.25 -0.0497313868
C  C1710  1  0.98870000  0.12090000  0.29550000  0.25 -0.2399043213
C  C1711  1  0.13030000  0.32550000  0.23090000  0.25 -0.3297555991
C  C1712  1  0.21510000  0.37810000  0.22570000  0.25 -0.1194280107
C  C1713  1  0.15960000  0.92650000  0.31580000  0.25 -0.2591276654
C  C1714  1  0.16600000  0.01780000  0.33340000  0.25 -0.2399043213
C  C1715  1  0.18230000  0.90650000  0.22790000  0.25 0.0126246261
C  C1716  1  0.18800000  0.96850000  0.26090000  0.25 -0.1596061599
C  C1717  1  0.91580000  0.58240000  0.79610000  0.25 -0.1400924885
C  C1718  1  0.98470000  0.58290000  0.82690000  0.25 -0.1596061599
C  C1719  1  0.10050000  0.60880000  0.64680000  0.25 -0.1990825372
C  C1720  1  0.01840000  0.59970000  0.67120000  0.25 -0.0570505068
C  C1721  1  0.10940000  0.60600000  0.83020000  0.25 -0.2399043213
C  C1722  1  0.18540000  0.53970000  0.83270000  0.25 -0.2492570302
C  C1723  1  0.47820000  0.78510000  0.81650000  0.25 -0.1869304612
C  C1724  1  0.50770000  0.76680000  0.77720000  0.25 -0.2290953525
C  C1725  1  0.74630000  0.89000000  0.59830000  0.25 -0.2210214141
C  C1726  1  0.77800000  0.79470000  0.59480000  0.25 -0.0163501773
C  C1727  1  0.99570000  0.73840000  0.95610000  0.25 -0.0570505068
C  C1728  1  0.03740000  0.79460000  0.98600000  0.25 -0.2290953525
C  C1729  1  0.23000000  0.72290000  0.82120000  0.25 -0.0163501773
C  C1730  1  0.26220000  0.81630000  0.81550000  0.25 -0.2210214141
C  C1731  1  0.89420000  0.67370000  0.93610000  0.25 -0.2680234301
C  C1732  1  0.79780000  0.70220000  0.94120000  0.25 0.0126246261
C  C1733  1  0.62390000  0.01540000  0.91320000  0.25 -0.2399043213
C  C1734  1  0.59490000  0.92330000  0.90120000  0.25 -0.0425503315
C  C1735  1  0.11540000  0.00320000  0.96110000  0.25 -0.2290953525
C  C1736  1  0.07060000  0.99770000  0.99870000  0.25 0.0605489564
C  C1737  1  0.03230000  0.55620000  0.91010000  0.25 -0.0755374321
C  C1738  1  0.94270000  0.57060000  0.89200000  0.25 -0.2492570302
C  C1739  1  0.97960000  0.81360000  0.92960000  0.25 -0.1990825372
C  C1740  1  0.88720000  0.82920000  0.94490000  0.25 -0.2680234301
C  C1741  1  0.70510000  0.93790000  0.96020000  0.25 -0.179743489
C  C1742  1  0.68630000  0.01520000  0.98630000  0.25 -0.1400924885
C  C1743  1  0.41000000  0.91390000  0.94400000  0.25 -0.088593254
C  C1744  1  0.39850000  0.95930000  0.90650000  0.25 -0.1596061599
C  C1745  1  0.18150000  0.09300000  0.92510000  0.25 -0.2290953525
C  C1746  1  0.08610000  0.12130000  0.91720000  0.25 -0.2399043213
C  C1747  1  0.60280000  0.74000000  0.94660000  0.25 -0.1727980806
C  C1748  1  0.66666667  0.81750000  0.95320000  0.25 -0.1990825372
C  C1749  1  0.10890000  0.79660000  0.81200000  0.25 -0.1990825372
C  C1750  1  0.13230000  0.89400000  0.81610000  0.25 -0.2680234301
C  C1751  1  0.75780000  0.96020000  0.78930000  0.25 -0.1137598642
C  C1752  1  0.72070000  0.98800000  0.82640000  0.25 -0.0163501773
C  C1753  1  0.81090000  0.54960000  0.89870000  0.25 -0.0497313868
C  C1754  1  0.78810000  0.64240000  0.91170000  0.25 -0.1328807166
C  C1755  1  0.59580000  0.86080000  0.76010000  0.25 -0.2399043213
C  C1756  1  0.67310000  0.92350000  0.76700000  0.25 -0.2210214141
C  C1757  1  0.63060000  0.03760000  0.63280000  0.25 -0.0425503315
C  C1758  1  0.65320000  0.96440000  0.66050000  0.25 -0.2210214141
C  C1759  1  0.00830000  0.76650000  0.75370000  0.25 -0.2210214141
C  C1760  1  0.05070000  0.73170000  0.71870000  0.25 -0.1400924885
C  C1761  1  0.00100000  0.92720000  0.75900000  0.25 -0.0570505068
C  C1762  1  0.01130000  0.87910000  0.79550000  0.25 -0.2399043213
C  C1763  1  0.86970000  0.67450000  0.73090000  0.25 -0.3297555991
C  C1764  1  0.78490000  0.62190000  0.72570000  0.25 -0.1194280107
C  C1765  1  0.84040000  0.07350000  0.81580000  0.25 -0.2591276654
C  C1766  1  0.83400000  0.98220000  0.83340000  0.25 -0.2399043213
C  C1767  1  0.81770000  0.09350000  0.72790000  0.25 0.0153517387
C  C1768  1  0.81200000  0.03150000  0.76090000  0.25 -0.1596061599
C  C1769  1  0.91760000  0.41580000  0.54610000  0.25 -0.1400924885
C  C1770  1  0.91710000  0.48470000  0.57690000  0.25 -0.1509124769
C  C1771  1  0.89120000  0.60050000  0.39680000  0.25 -0.1990825372
C  C1772  1  0.90030000  0.51840000  0.42120000  0.25 -0.0570505068
C  C1773  1  0.89400000  0.60940000  0.58020000  0.25 -0.2399043213
C  C1774  1  0.96030000  0.68540000  0.58270000  0.25 -0.2492570302
C  C1775  1  0.71490000  0.97820000  0.56650000  0.25 -0.179743489
C  C1776  1  0.73320000  0.00770000  0.52720000  0.25 -0.2290953525
C  C1777  1  0.61000000  0.24630000  0.34830000  0.25 -0.2118928564
C  C1778  1  0.70530000  0.27800000  0.34480000  0.25 -0.0263411992
C  C1779  1  0.76160000  0.49570000  0.70610000  0.25 -0.0570505068
C  C1780  1  0.70540000  0.53740000  0.73600000  0.25 -0.2210214141
C  C1781  1  0.77710000  0.73000000  0.57120000  0.25 -0.0163501773
C  C1782  1  0.68370000  0.76220000  0.56550000  0.25 -0.2210214141
C  C1783  1  0.82630000  0.39420000  0.68610000  0.25 -0.2680234301
C  C1784  1  0.79780000  0.29780000  0.69120000  0.25 0.0126246261
C  C1785  1  0.48460000  0.12390000  0.66320000  0.25 -0.2399043213
C  C1786  1  0.57670000  0.09490000  0.65120000  0.25 -0.0497313868
C  C1787  1  0.49680000  0.61540000  0.71110000  0.25 -0.2290953525
C  C1788  1  0.50230000  0.57060000  0.74870000  0.25 0.0605489564
C  C1789  1  0.94380000  0.53230000  0.66010000  0.25 -0.0755374321
C  C1790  1  0.92940000  0.44270000  0.64200000  0.25 -0.2492570302
C  C1791  1  0.68640000  0.47960000  0.67960000  0.25 -0.1990825372
C  C1792  1  0.67080000  0.38720000  0.69490000  0.25 -0.2680234301
C  C1793  1  0.56210000  0.20510000  0.71020000  0.25 -0.179743489
C  C1794  1  0.48480000  0.18630000  0.73630000  0.25 -0.1400924885
C  C1795  1  0.58610000  0.91000000  0.69400000  0.25 -0.088593254
C  C1796  1  0.54070000  0.89850000  0.65650000  0.25 -0.1596061599
C  C1797  1  0.40700000  0.68150000  0.67510000  0.25 -0.2290953525
C  C1798  1  0.37870000  0.58610000  0.66720000  0.25 -0.2492570302
C  C1799  1  0.76000000  0.10280000  0.69660000  0.25 -0.1727980806
C  C1800  1  0.68250000  0.16660000  0.70320000  0.25 -0.1990825372
C  C1801  1  0.70340000  0.60890000  0.56200000  0.25 -0.1990825372
C  C1802  1  0.60600000  0.63230000  0.56610000  0.25 -0.2680234301
C  C1803  1  0.53980000  0.25780000  0.53930000  0.25 -0.1137598642
C  C1804  1  0.51200000  0.22070000  0.57640000  0.25 -0.0163501773
C  C1805  1  0.95040000  0.31090000  0.64870000  0.25 -0.0497313868
C  C1806  1  0.85760000  0.28810000  0.66170000  0.25 -0.1328807166
C  C1807  1  0.63920000  0.09580000  0.51010000  0.25 -0.2399043213
C  C1808  1  0.57650000  0.17310000  0.51700000  0.25 -0.2210214141
C  C1809  1  0.46240000  0.13060000  0.38280000  0.25 -0.0425503315
C  C1810  1  0.53560000  0.15320000  0.41050000  0.25 -0.2210214141
C  C1811  1  0.73350000  0.50830000  0.50370000  0.25 -0.2210214141
C  C1812  1  0.76830000  0.55070000  0.46870000  0.25 -0.1328807166
C  C1813  1  0.57280000  0.50100000  0.50900000  0.25 -0.0570505068
C  C1814  1  0.62090000  0.51130000  0.54550000  0.25 -0.2399043213
C  C1815  1  0.82550000  0.36970000  0.48090000  0.25 -0.3297555991
C  C1816  1  0.87810000  0.28490000  0.47570000  0.25 -0.1194280107
C  C1817  1  0.42650000  0.34040000  0.56580000  0.25 -0.2591276654
C  C1818  1  0.51780000  0.33400000  0.58340000  0.25 -0.2399043213
C  C1819  1  0.40650000  0.31770000  0.47790000  0.25 0.0126246261
C  C1820  1  0.46850000  0.31200000  0.51090000  0.25 -0.1596061599
C  C1821  1  0.08240000  0.58420000  0.04610000  0.25 -0.1509124769
C  C1822  1  0.08290000  0.51530000  0.07690000  0.25 -0.1596061599
C  C1823  1  0.10880000  0.39950000  0.89680000  0.25 -0.1990825372
C  C1824  1  0.09970000  0.48160000  0.92120000  0.25 -0.0570505068
C  C1825  1  0.10600000  0.39060000  0.08020000  0.25 -0.2399043213
C  C1826  1  0.03970000  0.31460000  0.08270000  0.25 -0.2492570302
C  C1827  1  0.28510000  0.02180000  0.06650000  0.25 -0.1869304612
C  C1828  1  0.26680000  0.99230000  0.02720000  0.25 -0.2290953525
C  C1829  1  0.39000000  0.75370000  0.84830000  0.25 -0.2118928564
C  C1830  1  0.29470000  0.72200000  0.84480000  0.25 -0.0263411992
C  C1831  1  0.23840000  0.50430000  0.20610000  0.25 -0.0570505068
C  C1832  1  0.29460000  0.46260000  0.23600000  0.25 -0.2290953525
C  C1833  1  0.22290000  0.27000000  0.07120000  0.25 -0.0163501773
C  C1834  1  0.31630000  0.23780000  0.06550000  0.25 -0.2210214141
C  C1835  1  0.17370000  0.60580000  0.18610000  0.25 -0.2680234301
C  C1836  1  0.20220000  0.70220000  0.19120000  0.25 0.0126246261
C  C1837  1  0.51540000  0.87610000  0.16320000  0.25 -0.2399043213
C  C1838  1  0.42330000  0.90510000  0.15120000  0.25 -0.0497313868
C  C1839  1  0.50320000  0.38460000  0.21110000  0.25 -0.2290953525
C  C1840  1  0.49770000  0.42940000  0.24870000  0.25 0.0605489564
C  C1841  1  0.05620000  0.46770000  0.16010000  0.25 -0.0755374321
C  C1842  1  0.07060000  0.55730000  0.14200000  0.25 -0.2492570302
C  C1843  1  0.31360000  0.52040000  0.17960000  0.25 -0.2118928564
C  C1844  1  0.32920000  0.61280000  0.19490000  0.25 -0.2680234301
C  C1845  1  0.43790000  0.79490000  0.21020000  0.25 -0.179743489
C  C1846  1  0.51520000  0.81370000  0.23630000  0.25 -0.1400924885
C  C1847  1  0.41390000  0.09000000  0.19400000  0.25 -0.088593254
C  C1848  1  0.45930000  0.10150000  0.15650000  0.25 -0.1596061599
C  C1849  1  0.59300000  0.31850000  0.17510000  0.25 -0.2290953525
C  C1850  1  0.62130000  0.41390000  0.16720000  0.25 -0.2399043213
C  C1851  1  0.24000000  0.89720000  0.19660000  0.25 -0.179743489
C  C1852  1  0.31750000  0.83340000  0.20320000  0.25 -0.1990825372
C  C1853  1  0.29660000  0.39110000  0.06200000  0.25 -0.1990825372
C  C1854  1  0.39400000  0.36770000  0.06610000  0.25 -0.2680234301
C  C1855  1  0.46020000  0.74220000  0.03930000  0.25 -0.1137598642
C  C1856  1  0.48800000  0.77930000  0.07640000  0.25 -0.0163501773
C  C1857  1  0.04960000  0.68910000  0.14870000  0.25 -0.0497313868
C  C1858  1  0.14240000  0.71190000  0.16170000  0.25 -0.1328807166
C  C1859  1  0.36080000  0.90420000  0.01010000  0.25 -0.2399043213
C  C1860  1  0.42350000  0.82690000  0.01700000  0.25 -0.2210214141
C  C1861  1  0.53760000  0.86940000  0.88280000  0.25 -0.0425503315
C  C1862  1  0.46440000  0.84680000  0.91050000  0.25 -0.2210214141
C  C1863  1  0.26650000  0.49170000  0.00370000  0.25 -0.2210214141
C  C1864  1  0.23170000  0.44930000  0.96870000  0.25 -0.1400924885
C  C1865  1  0.42720000  0.49900000  0.00900000  0.25 -0.0570505068
C  C1866  1  0.37910000  0.48870000  0.04550000  0.25 -0.2399043213
C  C1867  1  0.17450000  0.63030000  0.98090000  0.25 -0.3297555991
C  C1868  1  0.12190000  0.71510000  0.97570000  0.25 -0.1194280107
C  C1869  1  0.57350000  0.65960000  0.06580000  0.25 -0.2591276654
C  C1870  1  0.48220000  0.66600000  0.08340000  0.25 -0.2399043213
C  C1871  1  0.59350000  0.68230000  0.97790000  0.25 0.0126246261
C  C1872  1  0.53150000  0.68800000  0.01090000  0.25 -0.1596061599
Br  Br1  1  0.41440000  0.92760000  0.45680000  0.25 0.0693901502
Br  Br2  1  0.49170000  0.92680000  0.42220000  0.25 0.0693901502
Br  Br3  1  0.60850000  0.90100000  0.60340000  0.25 0.0773412082
Br  Br4  1  0.51630000  0.91070000  0.57620000  0.25 0.0693901502
Br  Br5  1  0.60180000  0.89430000  0.42390000  0.25 0.0898548387
Br  Br6  1  0.68700000  0.96850000  0.42100000  0.25 0.0898548387
Br  Br7  1  0.96780000  0.70880000  0.43270000  0.25 0.0693901502
Br  Br8  1  0.00070000  0.72930000  0.47670000  0.25 0.0773412082
Br  Br9  1  0.23720000  0.60610000  0.65460000  0.25 0.0605489564
Br  Br10  1  0.27260000  0.71290000  0.65850000  0.25 0.1309936284
Br  Br11  1  0.48390000  0.76500000  0.29350000  0.25 0.0693901502
Br  Br12  1  0.53060000  0.70210000  0.26010000  0.25 0.0898548387
Br  Br13  1  0.76920000  0.68100000  0.43860000  0.25 0.0898548387
Br  Br14  1  0.73320000  0.78580000  0.43230000  0.25 0.1213821931
Br  Br15  1  0.39890000  0.83480000  0.31090000  0.25 0.0693901502
Br  Br16  1  0.29080000  0.80300000  0.30500000  0.25 0.1087952209
Br  Br17  1  0.11550000  0.47650000  0.33540000  0.25 0.0605489564
Br  Br18  1  0.08330000  0.57950000  0.34890000  0.25 0.1087952209
Br  Br19  1  0.61250000  0.48770000  0.29200000  0.25 0.0773412082
Br  Br20  1  0.56250000  0.49390000  0.24990000  0.25 0.0330805768
Br  Br21  1  0.53490000  0.95500000  0.33770000  0.25 0.0898548387
Br  Br22  1  0.43450000  0.93860000  0.35820000  0.25 0.0693901502
Br  Br23  1  0.48570000  0.69650000  0.31920000  0.25 0.1087952209
Br  Br24  1  0.38210000  0.67920000  0.30190000  0.25 0.1004681606
Br  Br25  1  0.19840000  0.57230000  0.28950000  0.25 0.0898548387
Br  Br26  1  0.17730000  0.48580000  0.26010000  0.25 0.0693901502
Br  Br27  1  0.90760000  0.53600000  0.34700000  0.25 0.0898548387
Br  Br28  1  0.92110000  0.58880000  0.30330000  0.25 0.1213821931
Br  Br29  1  0.58210000  0.36760000  0.33120000  0.25 0.1004681606
Br  Br30  1  0.68900000  0.39860000  0.32230000  0.25 0.0898548387
Br  Br31  1  0.16820000  0.67480000  0.29250000  0.25 0.1004681606
Br  Br32  1  0.09560000  0.76350000  0.29980000  0.25 0.1087952209
Br  Br33  1  0.64170000  0.60140000  0.43660000  0.25 0.0898548387
Br  Br34  1  0.61640000  0.71140000  0.44070000  0.25 0.1213821931
Br  Br35  1  0.21590000  0.50080000  0.42300000  0.25 0.1087952209
Br  Br36  1  0.25990000  0.53100000  0.46450000  0.25 0.0898548387
Br  Br37  1  0.29560000  0.85190000  0.33500000  0.25 0.1213821931
Br  Br38  1  0.32110000  0.95590000  0.34950000  0.25 0.0898548387
Br  Br39  1  0.08480000  0.63680000  0.48770000  0.25 0.1004681606
Br  Br40  1  0.17160000  0.56650000  0.47990000  0.25 0.1004681606
Br  Br41  1  0.14510000  0.54190000  0.58600000  0.25 0.1004681606
Br  Br42  1  0.11890000  0.46010000  0.61830000  0.25 0.1309936284
Br  Br43  1  0.56350000  0.76960000  0.53150000  0.25 0.1004681606
Br  Br44  1  0.51460000  0.73390000  0.49190000  0.25 0.1004681606
Br  Br45  1  0.50990000  0.56550000  0.49270000  0.25 0.0605489564
Br  Br46  1  0.52100000  0.61950000  0.45180000  0.25 0.0605489564
Br  Br47  1  0.37860000  0.82590000  0.52270000  0.25 0.1004681606
Br  Br48  1  0.28340000  0.88480000  0.52860000  0.25 0.2607150673
Br  Br49  1  0.33030000  0.42170000  0.43680000  0.25 0.0605489564
Br  Br50  1  0.32340000  0.52430000  0.41700000  0.25 0.0605489564
Br  Br51  1  0.31670000  0.39420000  0.52140000  0.25 0.0898548387
Br  Br52  1  0.31020000  0.46380000  0.48440000  0.25 0.0693901502
Br  Br53  1  0.58560000  0.07240000  0.95680000  0.25 0.0693901502
Br  Br54  1  0.50830000  0.07320000  0.92220000  0.25 0.0693901502
Br  Br55  1  0.39150000  0.09900000  0.10340000  0.25 0.0773412082
Br  Br56  1  0.48370000  0.08930000  0.07620000  0.25 0.0773412082
Br  Br57  1  0.39820000  0.10570000  0.92390000  0.25 0.0898548387
Br  Br58  1  0.31300000  0.03150000  0.92100000  0.25 0.0898548387
Br  Br59  1  0.03220000  0.29120000  0.93270000  0.25 0.0693901502
Br  Br60  1  0.99930000  0.27070000  0.97670000  0.25 0.0693901502
Br  Br61  1  0.76280000  0.39390000  0.15460000  0.25 0.0605489564
Br  Br62  1  0.72740000  0.28710000  0.15850000  0.25 0.1309936284
Br  Br63  1  0.51610000  0.23500000  0.79350000  0.25 0.0693901502
Br  Br64  1  0.46940000  0.29790000  0.76010000  0.25 0.0898548387
Br  Br65  1  0.23080000  0.31900000  0.93860000  0.25 0.0898548387
Br  Br66  1  0.26680000  0.21420000  0.93230000  0.25 0.1087952209
Br  Br67  1  0.60110000  0.16520000  0.81090000  0.25 0.0693901502
Br  Br68  1  0.70920000  0.19700000  0.80500000  0.25 0.1087952209
Br  Br69  1  0.88450000  0.52350000  0.83540000  0.25 0.0605489564
Br  Br70  1  0.91670000  0.42050000  0.84890000  0.25 0.1087952209
Br  Br71  1  0.38750000  0.51230000  0.79200000  0.25 0.0773412082
Br  Br72  1  0.43750000  0.50610000  0.74990000  0.25 0.0330805768
Br  Br73  1  0.46510000  0.04500000  0.83770000  0.25 0.0898548387
Br  Br74  1  0.56550000  0.06140000  0.85820000  0.25 0.0693901502
Br  Br75  1  0.51430000  0.30350000  0.81920000  0.25 0.1004681606
Br  Br76  1  0.61790000  0.32080000  0.80190000  0.25 0.1004681606
Br  Br77  1  0.80160000  0.42770000  0.78950000  0.25 0.0898548387
Br  Br78  1  0.82270000  0.51420000  0.76010000  0.25 0.0693901502
Br  Br79  1  0.09240000  0.46400000  0.84700000  0.25 0.0898548387
Br  Br80  1  0.07890000  0.41120000  0.80330000  0.25 0.1213821931
Br  Br81  1  0.41790000  0.63240000  0.83120000  0.25 0.1004681606
Br  Br82  1  0.31100000  0.60140000  0.82230000  0.25 0.0898548387
Br  Br83  1  0.83180000  0.32520000  0.79250000  0.25 0.1004681606
Br  Br84  1  0.90440000  0.23650000  0.79980000  0.25 0.1004681606
Br  Br85  1  0.35830000  0.39860000  0.93660000  0.25 0.0898548387
Br  Br86  1  0.38360000  0.28860000  0.94070000  0.25 0.1213821931
Br  Br87  1  0.78410000  0.49920000  0.92300000  0.25 0.1087952209
Br  Br88  1  0.74010000  0.46900000  0.96450000  0.25 0.0898548387
Br  Br89  1  0.70440000  0.14810000  0.83500000  0.25 0.1087952209
Br  Br90  1  0.67890000  0.04410000  0.84950000  0.25 0.0898548387
Br  Br91  1  0.91520000  0.36320000  0.98770000  0.25 0.1004681606
Br  Br92  1  0.82840000  0.43350000  0.97990000  0.25 0.1004681606
Br  Br93  1  0.85490000  0.45810000  0.08600000  0.25 0.1004681606
Br  Br94  1  0.88110000  0.53990000  0.11830000  0.25 0.1309936284
Br  Br95  1  0.43650000  0.23040000  0.03150000  0.25 0.1004681606
Br  Br96  1  0.48540000  0.26610000  0.99190000  0.25 0.1004681606
Br  Br97  1  0.49010000  0.43450000  0.99270000  0.25 0.0605489564
Br  Br98  1  0.47900000  0.38050000  0.95180000  0.25 0.0605489564
Br  Br99  1  0.62140000  0.17410000  0.02270000  0.25 0.1004681606
Br  Br100  1  0.71660000  0.11520000  0.02860000  0.25 0.2607150673
Br  Br101  1  0.66970000  0.57830000  0.93680000  0.25 0.0605489564
Br  Br102  1  0.67660000  0.47570000  0.91700000  0.25 0.0605489564
Br  Br103  1  0.68330000  0.60580000  0.02140000  0.25 0.0898548387
Br  Br104  1  0.68980000  0.53620000  0.98440000  0.25 0.0693901502
Br  Br105  1  0.57240000  0.91440000  0.20680000  0.25 0.0693901502
Br  Br106  1  0.57320000  0.99170000  0.17220000  0.25 0.0693901502
Br  Br107  1  0.59900000  0.10850000  0.35340000  0.25 0.0773412082
Br  Br108  1  0.58930000  0.01630000  0.32620000  0.25 0.0693901502
Br  Br109  1  0.60570000  0.10180000  0.17390000  0.25 0.0898548387
Br  Br110  1  0.53150000  0.18700000  0.17100000  0.25 0.0898548387
Br  Br111  1  0.79120000  0.46780000  0.18270000  0.25 0.0693901502
Br  Br112  1  0.77070000  0.50070000  0.22670000  0.25 0.0693901502
Br  Br113  1  0.89390000  0.73720000  0.40460000  0.25 0.0605489564
Br  Br114  1  0.78710000  0.77260000  0.40850000  0.25 0.1309936284
Br  Br115  1  0.73500000  0.98390000  0.04350000  0.25 0.0693901502
Br  Br116  1  0.79790000  0.03060000  0.01010000  0.25 0.0898548387
Br  Br117  1  0.81900000  0.26920000  0.18860000  0.25 0.0898548387
Br  Br118  1  0.71420000  0.23320000  0.18230000  0.25 0.1213821931
Br  Br119  1  0.66520000  0.89890000  0.06090000  0.25 0.0693901502
Br  Br120  1  0.69700000  0.79080000  0.05500000  0.25 0.1087952209
Br  Br121  1  0.02350000  0.61550000  0.08540000  0.25 0.0605489564
Br  Br122  1  0.92050000  0.58330000  0.09890000  0.25 0.1087952209
Br  Br123  1  0.01230000  0.11250000  0.04200000  0.25 0.0773412082
Br  Br124  1  0.00610000  0.06250000  0.99990000  0.25 0.0330805768
Br  Br125  1  0.54500000  0.03490000  0.08770000  0.25 0.0898548387
Br  Br126  1  0.56140000  0.93450000  0.10820000  0.25 0.0693901502
Br  Br127  1  0.80350000  0.98570000  0.06920000  0.25 0.1087952209
Br  Br128  1  0.82080000  0.88210000  0.05190000  0.25 0.1004681606
Br  Br129  1  0.92770000  0.69840000  0.03950000  0.25 0.0898548387
Br  Br130  1  0.01420000  0.67730000  0.01010000  0.25 0.0693901502
Br  Br131  1  0.96400000  0.40760000  0.09700000  0.25 0.0898548387
Br  Br132  1  0.91120000  0.42110000  0.05330000  0.25 0.1213821931
Br  Br133  1  0.13240000  0.08210000  0.08120000  0.25 0.1004681606
Br  Br134  1  0.10140000  0.18900000  0.07230000  0.25 0.0898548387
Br  Br135  1  0.82520000  0.66820000  0.04250000  0.25 0.1004681606
Br  Br136  1  0.73650000  0.59560000  0.04980000  0.25 0.1004681606
Br  Br137  1  0.89860000  0.14170000  0.18660000  0.25 0.0898548387
Br  Br138  1  0.78860000  0.11640000  0.19070000  0.25 0.1309936284
Br  Br139  1  0.99920000  0.71590000  0.17300000  0.25 0.1087952209
Br  Br140  1  0.96900000  0.75990000  0.21450000  0.25 0.0898548387
Br  Br141  1  0.64810000  0.79560000  0.08500000  0.25 0.1213821931
Br  Br142  1  0.54410000  0.82110000  0.09950000  0.25 0.1004681606
Br  Br143  1  0.86320000  0.58480000  0.23770000  0.25 0.1004681606
Br  Br144  1  0.93350000  0.67160000  0.22990000  0.25 0.1087952209
Br  Br145  1  0.95810000  0.64510000  0.33600000  0.25 0.1004681606
Br  Br146  1  0.03990000  0.61890000  0.36830000  0.25 0.1309936284
Br  Br147  1  0.73040000  0.06350000  0.28150000  0.25 0.1004681606
Br  Br148  1  0.76610000  0.01460000  0.24190000  0.25 0.1004681606
Br  Br149  1  0.93450000  0.00990000  0.24270000  0.25 0.0605489564
Br  Br150  1  0.88050000  0.02100000  0.20180000  0.25 0.0605489564
Br  Br151  1  0.67410000  0.87860000  0.27270000  0.25 0.1004681606
Br  Br152  1  0.61520000  0.78340000  0.27860000  0.25 0.2607150673
Br  Br153  1  0.07830000  0.83030000  0.18680000  0.25 0.0605489564
Br  Br154  1  0.97570000  0.82340000  0.16700000  0.25 0.0605489564
Br  Br155  1  0.10580000  0.81670000  0.27140000  0.25 0.0898548387
Br  Br156  1  0.03620000  0.81020000  0.23440000  0.25 0.0693901502
Br  Br157  1  0.42760000  0.08560000  0.70680000  0.25 0.0693901502
Br  Br158  1  0.42680000  0.00830000  0.67220000  0.25 0.0693901502
Br  Br159  1  0.40100000  0.89150000  0.85340000  0.25 0.0773412082
Br  Br160  1  0.41070000  0.98370000  0.82620000  0.25 0.0693901502
Br  Br161  1  0.39430000  0.89820000  0.67390000  0.25 0.0898548387
Br  Br162  1  0.46850000  0.81300000  0.67100000  0.25 0.0898548387
Br  Br163  1  0.20880000  0.53220000  0.68270000  0.25 0.0693901502
Br  Br164  1  0.22930000  0.49930000  0.72670000  0.25 0.0693901502
Br  Br165  1  0.10610000  0.26280000  0.90460000  0.25 0.0605489564
Br  Br166  1  0.21290000  0.22740000  0.90850000  0.25 0.1213821931
Br  Br167  1  0.26500000  0.01610000  0.54350000  0.25 0.0693901502
Br  Br168  1  0.20210000  0.96940000  0.51010000  0.25 0.0898548387
Br  Br169  1  0.18100000  0.73080000  0.68860000  0.25 0.0898548387
Br  Br170  1  0.28580000  0.76680000  0.68230000  0.25 0.1213821931
Br  Br171  1  0.33480000  0.10110000  0.56090000  0.25 0.0693901502
Br  Br172  1  0.30300000  0.20920000  0.55500000  0.25 0.1087952209
Br  Br173  1  0.97650000  0.38450000  0.58540000  0.25 0.0605489564
Br  Br174  1  0.07950000  0.41670000  0.59890000  0.25 0.1087952209
Br  Br175  1  0.98770000  0.88750000  0.54200000  0.25 0.0773412082
Br  Br176  1  0.99390000  0.93750000  0.49990000  0.25 0.0330805768
Br  Br177  1  0.45500000  0.96510000  0.58770000  0.25 0.0898548387
Br  Br178  1  0.43860000  0.06550000  0.60820000  0.25 0.0693901502
Br  Br179  1  0.19650000  0.01430000  0.56920000  0.25 0.1087952209
Br  Br180  1  0.17920000  0.11790000  0.55190000  0.25 0.1004681606
Br  Br181  1  0.07230000  0.30160000  0.53950000  0.25 0.0898548387
Br  Br182  1  0.98580000  0.32270000  0.51010000  0.25 0.0693901502
Br  Br183  1  0.03600000  0.59240000  0.59700000  0.25 0.0898548387
Br  Br184  1  0.08880000  0.57890000  0.55330000  0.25 0.1213821931
Br  Br185  1  0.86760000  0.91790000  0.58120000  0.25 0.1004681606
Br  Br186  1  0.89860000  0.81100000  0.57230000  0.25 0.0898548387
Br  Br187  1  0.17480000  0.33180000  0.54250000  0.25 0.1004681606
Br  Br188  1  0.26350000  0.40440000  0.54980000  0.25 0.1004681606
Br  Br189  1  0.10140000  0.85830000  0.68660000  0.25 0.0898548387
Br  Br190  1  0.21140000  0.88360000  0.69070000  0.25 0.1213821931
Br  Br191  1  0.00080000  0.28410000  0.67300000  0.25 0.1087952209
Br  Br192  1  0.03100000  0.24010000  0.71450000  0.25 0.0898548387
Br  Br193  1  0.35190000  0.20440000  0.58500000  0.25 0.1087952209
Br  Br194  1  0.45590000  0.17890000  0.59950000  0.25 0.0898548387
Br  Br195  1  0.13680000  0.41520000  0.73770000  0.25 0.1004681606
Br  Br196  1  0.06650000  0.32840000  0.72990000  0.25 0.1004681606
Br  Br197  1  0.04190000  0.35490000  0.83600000  0.25 0.1004681606
Br  Br198  1  0.96010000  0.38110000  0.86830000  0.25 0.1213821931
Br  Br199  1  0.26960000  0.93650000  0.78150000  0.25 0.1087952209
Br  Br200  1  0.23390000  0.98540000  0.74190000  0.25 0.1004681606
Br  Br201  1  0.06550000  0.99010000  0.74270000  0.25 0.0605489564
Br  Br202  1  0.11950000  0.97900000  0.70180000  0.25 0.0605489564
Br  Br203  1  0.32590000  0.12140000  0.77270000  0.25 0.1004681606
Br  Br204  1  0.38480000  0.21660000  0.77860000  0.25 0.2607150673
Br  Br205  1  0.92170000  0.16970000  0.68680000  0.25 0.0605489564
Br  Br206  1  0.02430000  0.17660000  0.66700000  0.25 0.0605489564
Br  Br207  1  0.89420000  0.18330000  0.77140000  0.25 0.0898548387
Br  Br208  1  0.96380000  0.18980000  0.73440000  0.25 0.0693901502
Br  Br209  1  0.08560000  0.42760000  0.29320000  0.25 0.0693901502
Br  Br210  1  0.00830000  0.42680000  0.32780000  0.25 0.0693901502
Br  Br211  1  0.89150000  0.40100000  0.14660000  0.25 0.0773412082
Br  Br212  1  0.98370000  0.41070000  0.17380000  0.25 0.0693901502
Br  Br213  1  0.89820000  0.39430000  0.32610000  0.25 0.0898548387
Br  Br214  1  0.81300000  0.46850000  0.32900000  0.25 0.0898548387
Br  Br215  1  0.53220000  0.20880000  0.31730000  0.25 0.0693901502
Br  Br216  1  0.49930000  0.22930000  0.27330000  0.25 0.0693901502
Br  Br217  1  0.26280000  0.10610000  0.09540000  0.25 0.0605489564
Br  Br218  1  0.22740000  0.21290000  0.09150000  0.25 0.1309936284
Br  Br219  1  0.01610000  0.26500000  0.45650000  0.25 0.0693901502
Br  Br220  1  0.96940000  0.20210000  0.48990000  0.25 0.0898548387
Br  Br221  1  0.73080000  0.18100000  0.31140000  0.25 0.0898548387
Br  Br222  1  0.76680000  0.28580000  0.31770000  0.25 0.1213821931
Br  Br223  1  0.10110000  0.33480000  0.43910000  0.25 0.0693901502
Br  Br224  1  0.20920000  0.30300000  0.44500000  0.25 0.1087952209
Br  Br225  1  0.38450000  0.97650000  0.41460000  0.25 0.0605489564
Br  Br226  1  0.41670000  0.07950000  0.40110000  0.25 0.1087952209
Br  Br227  1  0.88750000  0.98770000  0.45800000  0.25 0.0773412082
Br  Br228  1  0.93750000  0.99390000  0.50010000  0.25 0.0330805768
Br  Br229  1  0.96510000  0.45500000  0.41230000  0.25 0.0898548387
Br  Br230  1  0.06550000  0.43860000  0.39180000  0.25 0.0693901502
Br  Br231  1  0.01430000  0.19650000  0.43080000  0.25 0.1087952209
Br  Br232  1  0.11790000  0.17920000  0.44810000  0.25 0.1004681606
Br  Br233  1  0.30160000  0.07230000  0.46050000  0.25 0.0898548387
Br  Br234  1  0.32270000  0.98580000  0.48990000  0.25 0.0693901502
Br  Br235  1  0.59240000  0.03600000  0.40300000  0.25 0.0898548387
Br  Br236  1  0.57890000  0.08880000  0.44670000  0.25 0.1213821931
Br  Br237  1  0.91790000  0.86760000  0.41880000  0.25 0.1004681606
Br  Br238  1  0.81100000  0.89860000  0.42770000  0.25 0.0898548387
Br  Br239  1  0.33180000  0.17480000  0.45750000  0.25 0.1004681606
Br  Br240  1  0.40440000  0.26350000  0.45020000  0.25 0.1004681606
Br  Br241  1  0.85830000  0.10140000  0.31340000  0.25 0.0898548387
Br  Br242  1  0.88360000  0.21140000  0.30930000  0.25 0.1213821931
Br  Br243  1  0.28410000  0.00080000  0.32700000  0.25 0.1087952209
Br  Br244  1  0.24010000  0.03100000  0.28550000  0.25 0.0898548387
Br  Br245  1  0.20440000  0.35190000  0.41500000  0.25 0.1213821931
Br  Br246  1  0.17890000  0.45590000  0.40050000  0.25 0.0898548387
Br  Br247  1  0.41520000  0.13680000  0.26230000  0.25 0.1004681606
Br  Br248  1  0.32840000  0.06650000  0.27010000  0.25 0.1004681606
Br  Br249  1  0.35490000  0.04190000  0.16400000  0.25 0.1004681606
Br  Br250  1  0.38110000  0.96010000  0.13170000  0.25 0.1309936284
Br  Br251  1  0.93650000  0.26960000  0.21850000  0.25 0.1004681606
Br  Br252  1  0.98540000  0.23390000  0.25810000  0.25 0.1004681606
Br  Br253  1  0.99010000  0.06550000  0.25730000  0.25 0.0605489564
Br  Br254  1  0.97900000  0.11950000  0.29820000  0.25 0.0605489564
Br  Br255  1  0.12140000  0.32590000  0.22730000  0.25 0.1004681606
Br  Br256  1  0.21660000  0.38480000  0.22140000  0.25 0.2607150673
Br  Br257  1  0.16970000  0.92170000  0.31320000  0.25 0.0605489564
Br  Br258  1  0.17660000  0.02430000  0.33300000  0.25 0.0605489564
Br  Br259  1  0.18330000  0.89420000  0.22860000  0.25 0.0898548387
Br  Br260  1  0.18980000  0.96380000  0.26560000  0.25 0.0693901502
Br  Br261  1  0.91440000  0.57240000  0.79320000  0.25 0.0693901502
Br  Br262  1  0.99170000  0.57320000  0.82780000  0.25 0.0693901502
Br  Br263  1  0.10850000  0.59900000  0.64660000  0.25 0.0773412082
Br  Br264  1  0.01630000  0.58930000  0.67380000  0.25 0.0773412082
Br  Br265  1  0.10180000  0.60570000  0.82610000  0.25 0.0898548387
Br  Br266  1  0.18700000  0.53150000  0.82900000  0.25 0.0898548387
Br  Br267  1  0.46780000  0.79120000  0.81730000  0.25 0.0693901502
Br  Br268  1  0.50070000  0.77070000  0.77330000  0.25 0.0693901502
Br  Br269  1  0.73720000  0.89390000  0.59540000  0.25 0.0605489564
Br  Br270  1  0.77260000  0.78710000  0.59150000  0.25 0.1309936284
Br  Br271  1  0.98390000  0.73500000  0.95650000  0.25 0.0693901502
Br  Br272  1  0.03060000  0.79790000  0.98990000  0.25 0.0898548387
Br  Br273  1  0.26920000  0.81900000  0.81140000  0.25 0.0898548387
Br  Br274  1  0.23320000  0.71420000  0.81770000  0.25 0.1213821931
Br  Br275  1  0.89890000  0.66520000  0.93910000  0.25 0.0693901502
Br  Br276  1  0.79080000  0.69700000  0.94500000  0.25 0.1087952209
Br  Br277  1  0.61550000  0.02350000  0.91460000  0.25 0.0605489564
Br  Br278  1  0.58330000  0.92050000  0.90110000  0.25 0.1087952209
Br  Br279  1  0.11250000  0.01230000  0.95800000  0.25 0.0773412082
Br  Br280  1  0.06250000  0.00610000  0.00010000  0.25 0.0330805768
Br  Br281  1  0.03490000  0.54500000  0.91230000  0.25 0.0898548387
Br  Br282  1  0.93450000  0.56140000  0.89180000  0.25 0.0693901502
Br  Br283  1  0.98570000  0.80350000  0.93080000  0.25 0.1087952209
Br  Br284  1  0.88210000  0.82080000  0.94810000  0.25 0.1004681606
Br  Br285  1  0.69840000  0.92770000  0.96050000  0.25 0.0898548387
Br  Br286  1  0.67730000  0.01420000  0.98990000  0.25 0.0693901502
Br  Br287  1  0.40760000  0.96400000  0.90300000  0.25 0.0898548387
Br  Br288  1  0.42110000  0.91120000  0.94670000  0.25 0.1087952209
Br  Br289  1  0.08210000  0.13240000  0.91880000  0.25 0.0898548387
Br  Br290  1  0.18900000  0.10140000  0.92770000  0.25 0.0898548387
Br  Br291  1  0.66820000  0.82520000  0.95750000  0.25 0.1004681606
Br  Br292  1  0.59560000  0.73650000  0.95020000  0.25 0.1004681606
Br  Br293  1  0.14170000  0.89860000  0.81340000  0.25 0.0898548387
Br  Br294  1  0.11640000  0.78860000  0.80930000  0.25 0.1213821931
Br  Br295  1  0.71590000  0.99920000  0.82700000  0.25 0.1087952209
Br  Br296  1  0.75990000  0.96900000  0.78550000  0.25 0.0898548387
Br  Br297  1  0.79560000  0.64810000  0.91500000  0.25 0.1087952209
Br  Br298  1  0.82110000  0.54410000  0.90050000  0.25 0.0898548387
Br  Br299  1  0.58480000  0.86320000  0.76230000  0.25 0.1004681606
Br  Br300  1  0.67160000  0.93350000  0.77010000  0.25 0.1004681606
Br  Br301  1  0.64510000  0.95810000  0.66400000  0.25 0.1004681606
Br  Br302  1  0.61890000  0.03990000  0.63170000  0.25 0.1309936284
Br  Br303  1  0.06350000  0.73040000  0.71850000  0.25 0.1004681606
Br  Br304  1  0.01460000  0.76610000  0.75810000  0.25 0.1004681606
Br  Br305  1  0.00990000  0.93450000  0.75730000  0.25 0.0605489564
Br  Br306  1  0.02100000  0.88050000  0.79820000  0.25 0.0605489564
Br  Br307  1  0.87860000  0.67410000  0.72730000  0.25 0.1004681606
Br  Br308  1  0.78340000  0.61520000  0.72140000  0.25 0.2607150673
Br  Br309  1  0.83030000  0.07830000  0.81320000  0.25 0.0605489564
Br  Br310  1  0.82340000  0.97570000  0.83300000  0.25 0.0605489564
Br  Br311  1  0.81670000  0.10580000  0.72860000  0.25 0.0898548387
Br  Br312  1  0.81020000  0.03620000  0.76560000  0.25 0.0693901502
Br  Br313  1  0.92760000  0.41440000  0.54320000  0.25 0.0693901502
Br  Br314  1  0.92680000  0.49170000  0.57780000  0.25 0.0693901502
Br  Br315  1  0.90100000  0.60850000  0.39660000  0.25 0.0773412082
Br  Br316  1  0.91070000  0.51630000  0.42380000  0.25 0.0693901502
Br  Br317  1  0.89430000  0.60180000  0.57610000  0.25 0.0898548387
Br  Br318  1  0.96850000  0.68700000  0.57900000  0.25 0.0898548387
Br  Br319  1  0.70880000  0.96780000  0.56730000  0.25 0.0693901502
Br  Br320  1  0.72930000  0.00070000  0.52330000  0.25 0.0693901502
Br  Br321  1  0.60610000  0.23720000  0.34540000  0.25 0.0605489564
Br  Br322  1  0.71290000  0.27260000  0.34150000  0.25 0.1309936284
Br  Br323  1  0.76500000  0.48390000  0.70650000  0.25 0.0693901502
Br  Br324  1  0.70210000  0.53060000  0.73990000  0.25 0.0898548387
Br  Br325  1  0.68100000  0.76920000  0.56140000  0.25 0.0898548387
Br  Br326  1  0.78580000  0.73320000  0.56770000  0.25 0.1213821931
Br  Br327  1  0.83480000  0.39890000  0.68910000  0.25 0.0693901502
Br  Br328  1  0.80300000  0.29080000  0.69500000  0.25 0.1087952209
Br  Br329  1  0.47650000  0.11550000  0.66460000  0.25 0.0605489564
Br  Br330  1  0.57950000  0.08330000  0.65110000  0.25 0.1087952209
Br  Br331  1  0.48770000  0.61250000  0.70800000  0.25 0.0773412082
Br  Br332  1  0.49390000  0.56250000  0.75010000  0.25 0.0330805768
Br  Br333  1  0.95500000  0.53490000  0.66230000  0.25 0.0898548387
Br  Br334  1  0.93860000  0.43450000  0.64180000  0.25 0.0693901502
Br  Br335  1  0.69650000  0.48570000  0.68080000  0.25 0.1087952209
Br  Br336  1  0.67920000  0.38210000  0.69810000  0.25 0.1004681606
Br  Br337  1  0.57230000  0.19840000  0.71050000  0.25 0.0898548387
Br  Br338  1  0.48580000  0.17730000  0.73990000  0.25 0.0693901502
Br  Br339  1  0.53600000  0.90760000  0.65300000  0.25 0.0898548387
Br  Br340  1  0.58880000  0.92110000  0.69670000  0.25 0.1213821931
Br  Br341  1  0.36760000  0.58210000  0.66880000  0.25 0.1004681606
Br  Br342  1  0.39860000  0.68900000  0.67770000  0.25 0.0898548387
Br  Br343  1  0.67480000  0.16820000  0.70750000  0.25 0.1004681606
Br  Br344  1  0.76350000  0.09560000  0.70020000  0.25 0.1004681606
Br  Br345  1  0.60140000  0.64170000  0.56340000  0.25 0.0898548387
Br  Br346  1  0.71140000  0.61640000  0.55930000  0.25 0.1213821931
Br  Br347  1  0.50080000  0.21590000  0.57700000  0.25 0.1087952209
Br  Br348  1  0.53100000  0.25990000  0.53550000  0.25 0.0898548387
Br  Br349  1  0.85190000  0.29560000  0.66500000  0.25 0.1087952209
Br  Br350  1  0.95590000  0.32110000  0.65050000  0.25 0.0898548387
Br  Br351  1  0.63680000  0.08480000  0.51230000  0.25 0.1004681606
Br  Br352  1  0.56650000  0.17160000  0.52010000  0.25 0.1004681606
Br  Br353  1  0.54190000  0.14510000  0.41400000  0.25 0.1004681606
Br  Br354  1  0.46010000  0.11890000  0.38170000  0.25 0.1309936284
Br  Br355  1  0.76960000  0.56350000  0.46850000  0.25 0.1004681606
Br  Br356  1  0.73390000  0.51460000  0.50810000  0.25 0.1004681606
Br  Br357  1  0.56550000  0.50990000  0.50730000  0.25 0.0605489564
Br  Br358  1  0.61950000  0.52100000  0.54820000  0.25 0.0605489564
Br  Br359  1  0.82590000  0.37860000  0.47730000  0.25 0.1004681606
Br  Br360  1  0.88480000  0.28340000  0.47140000  0.25 0.2607150673
Br  Br361  1  0.42170000  0.33030000  0.56320000  0.25 0.0605489564
Br  Br362  1  0.52430000  0.32340000  0.58300000  0.25 0.0605489564
Br  Br363  1  0.39420000  0.31670000  0.47860000  0.25 0.0898548387
Br  Br364  1  0.46380000  0.31020000  0.51560000  0.25 0.0693901502
Br  Br365  1  0.07240000  0.58560000  0.04320000  0.25 0.0693901502
Br  Br366  1  0.07320000  0.50830000  0.07780000  0.25 0.0693901502
Br  Br367  1  0.09900000  0.39150000  0.89660000  0.25 0.0773412082
Br  Br368  1  0.08930000  0.48370000  0.92380000  0.25 0.0693901502
Br  Br369  1  0.10570000  0.39820000  0.07610000  0.25 0.0898548387
Br  Br370  1  0.03150000  0.31300000  0.07900000  0.25 0.0898548387
Br  Br371  1  0.29120000  0.03220000  0.06730000  0.25 0.0693901502
Br  Br372  1  0.27070000  0.99930000  0.02330000  0.25 0.0773412082
Br  Br373  1  0.39390000  0.76280000  0.84540000  0.25 0.0605489564
Br  Br374  1  0.28710000  0.72740000  0.84150000  0.25 0.1309936284
Br  Br375  1  0.23500000  0.51610000  0.20650000  0.25 0.0693901502
Br  Br376  1  0.29790000  0.46940000  0.23990000  0.25 0.0898548387
Br  Br377  1  0.31900000  0.23080000  0.06140000  0.25 0.0898548387
Br  Br378  1  0.21420000  0.26680000  0.06770000  0.25 0.1213821931
Br  Br379  1  0.16520000  0.60110000  0.18910000  0.25 0.0693901502
Br  Br380  1  0.19700000  0.70920000  0.19500000  0.25 0.1087952209
Br  Br381  1  0.52350000  0.88450000  0.16460000  0.25 0.0693901502
Br  Br382  1  0.42050000  0.91670000  0.15110000  0.25 0.1087952209
Br  Br383  1  0.51230000  0.38750000  0.20800000  0.25 0.0773412082
Br  Br384  1  0.50610000  0.43750000  0.25010000  0.25 0.0330805768
Br  Br385  1  0.04500000  0.46510000  0.16230000  0.25 0.0898548387
Br  Br386  1  0.06140000  0.56550000  0.14180000  0.25 0.0693901502
Br  Br387  1  0.30350000  0.51430000  0.18080000  0.25 0.1087952209
Br  Br388  1  0.32080000  0.61790000  0.19810000  0.25 0.1004681606
Br  Br389  1  0.42770000  0.80160000  0.21050000  0.25 0.0898548387
Br  Br390  1  0.51420000  0.82270000  0.23990000  0.25 0.0693901502
Br  Br391  1  0.46400000  0.09240000  0.15300000  0.25 0.0898548387
Br  Br392  1  0.41120000  0.07890000  0.19670000  0.25 0.1213821931
Br  Br393  1  0.63240000  0.41790000  0.16880000  0.25 0.1004681606
Br  Br394  1  0.60140000  0.31100000  0.17770000  0.25 0.0898548387
Br  Br395  1  0.32520000  0.83180000  0.20750000  0.25 0.1004681606
Br  Br396  1  0.23650000  0.90440000  0.20020000  0.25 0.1087952209
Br  Br397  1  0.39860000  0.35830000  0.06340000  0.25 0.0898548387
Br  Br398  1  0.28860000  0.38360000  0.05930000  0.25 0.1213821931
Br  Br399  1  0.49920000  0.78410000  0.07700000  0.25 0.1087952209
Br  Br400  1  0.46900000  0.74010000  0.03550000  0.25 0.0898548387
Br  Br401  1  0.14810000  0.70440000  0.16500000  0.25 0.1213821931
Br  Br402  1  0.04410000  0.67890000  0.15050000  0.25 0.1004681606
Br  Br403  1  0.36320000  0.91520000  0.01230000  0.25 0.1004681606
Br  Br404  1  0.43350000  0.82840000  0.02010000  0.25 0.1087952209
Br  Br405  1  0.45810000  0.85490000  0.91400000  0.25 0.1004681606
Br  Br406  1  0.53990000  0.88110000  0.88170000  0.25 0.1309936284
Br  Br407  1  0.23040000  0.43650000  0.96850000  0.25 0.1004681606
Br  Br408  1  0.26610000  0.48540000  0.00810000  0.25 0.1004681606
Br  Br409  1  0.43450000  0.49010000  0.00730000  0.25 0.0605489564
Br  Br410  1  0.38050000  0.47900000  0.04820000  0.25 0.0605489564
Br  Br411  1  0.17410000  0.62140000  0.97730000  0.25 0.1004681606
Br  Br412  1  0.11520000  0.71660000  0.97140000  0.25 0.2607150673
Br  Br413  1  0.57830000  0.66970000  0.06320000  0.25 0.0605489564
Br  Br414  1  0.47570000  0.67660000  0.08300000  0.25 0.0605489564
Br  Br415  1  0.60580000  0.68330000  0.97860000  0.25 0.0898548387
Br  Br416  1  0.53620000  0.68980000  0.01560000  0.25 0.0693901502
N  N1  1  0.43060000  0.75200000  0.40930000  1.0 -0.3516259467
N  N2  1  0.37700000  0.75270000  0.43330000  1.0 -0.3644981497
N  N3  1  0.54450000  0.73260000  0.61700000  1.0 -0.3210030741
N  N4  1  0.48170000  0.73970000  0.59820000  1.0 -0.3210030741
N  N5  1  0.72400000  0.88400000  0.35530000  1.0 -0.3210030741
N  N6  1  0.66590000  0.83320000  0.35740000  1.0 -0.3210030741
N  N7  1  0.12040000  0.79800000  0.41350000  1.0 -0.336158686
N  N8  1  0.14230000  0.81300000  0.44390000  1.0 -0.3297555991
N  N9  1  0.39120000  0.66650000  0.60410000  1.0 -0.3297555991
N  N10  1  0.36590000  0.59340000  0.60100000  1.0 -0.3297555991
N  N11  1  0.67990000  0.71010000  0.30360000  1.0 -0.3210030741
N  N12  1  0.64720000  0.75420000  0.32690000  1.0 -0.3297555991
N  N13  1  0.68320000  0.64660000  0.37330000  1.0 -0.3297555991
N  N14  1  0.65670000  0.71940000  0.36920000  1.0 -0.336158686
N  N15  1  0.39740000  0.71620000  0.36850000  1.0 -0.3210030741
N  N16  1  0.32370000  0.69410000  0.36460000  1.0 -0.3297555991
N  N17  1  0.28370000  0.53780000  0.35000000  1.0 -0.3210030741
N  N18  1  0.26140000  0.60930000  0.35890000  1.0 -0.3297555991
N  N19  1  0.66400000  0.64400000  0.24080000  1.0 -0.3297555991
N  N20  1  0.69830000  0.64000000  0.26960000  1.0 -0.3141087147
N  N21  1  0.56760000  0.78220000  0.35870000  1.0 -0.3297555991
N  N22  1  0.49850000  0.76840000  0.37260000  1.0 -0.3516259467
N  N23  1  0.45940000  0.53410000  0.35450000  1.0 -0.3516259467
N  N24  1  0.38900000  0.52420000  0.34190000  1.0 -0.3297555991
N  N25  1  0.32840000  0.46250000  0.31730000  1.0 -0.2787471042
N  N26  1  0.31390000  0.40370000  0.29700000  1.0 -0.3297555991
N  N27  1  0.73630000  0.59510000  0.34050000  1.0 -0.3141087147
N  N28  1  0.74450000  0.62890000  0.31150000  1.0 -0.3297555991
N  N29  1  0.56990000  0.53040000  0.36530000  1.0 -0.3297555991
N  N30  1  0.64220000  0.55200000  0.35900000  1.0 -0.3210030741
N  N31  1  0.16700000  0.76510000  0.36960000  1.0 -0.3297555991
N  N32  1  0.21540000  0.70570000  0.36470000  1.0 -0.3297555991
N  N33  1  0.48570000  0.67310000  0.39000000  1.0 -0.3297555991
N  N34  1  0.50430000  0.59900000  0.38660000  1.0 -0.3210030741
N  N35  1  0.26850000  0.66680000  0.40050000  1.0 -0.3297555991
N  N36  1  0.29790000  0.68800000  0.42900000  1.0 -0.3297555991
N  N37  1  0.15120000  0.86910000  0.38110000  1.0 -0.3297555991
N  N38  1  0.16920000  0.94060000  0.39150000  1.0 -0.3297555991
N  N39  1  0.26450000  0.68090000  0.52470000  1.0 -0.3297555991
N  N40  1  0.20490000  0.72780000  0.53090000  1.0 -0.336158686
N  N41  1  0.31700000  0.49430000  0.60120000  1.0 -0.3210030741
N  N42  1  0.30000000  0.43690000  0.62180000  1.0 -0.3210030741
N  N43  1  0.40560000  0.72170000  0.56430000  1.0 -0.3297555991
N  N44  1  0.37340000  0.69430000  0.53710000  1.0 -0.3297555991
N  N45  1  0.35570000  0.68610000  0.46710000  1.0 -0.3210030741
N  N46  1  0.34750000  0.64970000  0.49540000  1.0 -0.3210030741
N  N47  1  0.23530000  0.81210000  0.46190000  1.0 -0.3141087147
N  N48  1  0.30060000  0.77160000  0.45770000  1.0 -0.3297555991
N  N49  1  0.50050000  0.42220000  0.40860000  1.0 -0.3297555991
N  N50  1  0.49500000  0.49120000  0.39460000  1.0 -0.3210030741
N  N51  1  0.33590000  0.59550000  0.53600000  1.0 -0.3297555991
N  N52  1  0.34020000  0.54790000  0.56160000  1.0 -0.3297555991
N  N53  1  0.56940000  0.24800000  0.90930000  1.0 -0.3516259467
N  N54  1  0.62300000  0.24730000  0.93330000  1.0 -0.3644981497
N  N55  1  0.45550000  0.26740000  0.11700000  1.0 -0.3210030741
N  N56  1  0.51830000  0.26030000  0.09820000  1.0 -0.3210030741
N  N57  1  0.27600000  0.11600000  0.85530000  1.0 -0.3210030741
N  N58  1  0.33410000  0.16680000  0.85740000  1.0 -0.3210030741
N  N59  1  0.87960000  0.20200000  0.91350000  1.0 -0.336158686
N  N60  1  0.85770000  0.18700000  0.94390000  1.0 -0.3297555991
N  N61  1  0.60880000  0.33350000  0.10410000  1.0 -0.3297555991
N  N62  1  0.63410000  0.40660000  0.10100000  1.0 -0.3297555991
N  N63  1  0.32010000  0.28990000  0.80360000  1.0 -0.3210030741
N  N64  1  0.35280000  0.24580000  0.82690000  1.0 -0.3297555991
N  N65  1  0.31680000  0.35340000  0.87330000  1.0 -0.3297555991
N  N66  1  0.34330000  0.28060000  0.86920000  1.0 -0.336158686
N  N67  1  0.60260000  0.28380000  0.86850000  1.0 -0.3210030741
N  N68  1  0.67630000  0.30590000  0.86460000  1.0 -0.3297555991
N  N69  1  0.71630000  0.46220000  0.85000000  1.0 -0.3210030741
N  N70  1  0.73860000  0.39070000  0.85890000  1.0 -0.3297555991
N  N71  1  0.33600000  0.35600000  0.74080000  1.0 -0.3297555991
N  N72  1  0.30170000  0.36000000  0.76960000  1.0 -0.3141087147
N  N73  1  0.43240000  0.21780000  0.85870000  1.0 -0.3297555991
N  N74  1  0.50150000  0.23160000  0.87260000  1.0 -0.3516259467
N  N75  1  0.54060000  0.46590000  0.85450000  1.0 -0.3516259467
N  N76  1  0.61100000  0.47580000  0.84190000  1.0 -0.3297555991
N  N77  1  0.67160000  0.53750000  0.81730000  1.0 -0.2787471042
N  N78  1  0.68610000  0.59630000  0.79700000  1.0 -0.3297555991
N  N79  1  0.26370000  0.40490000  0.84050000  1.0 -0.3210030741
N  N80  1  0.25550000  0.37110000  0.81150000  1.0 -0.3297555991
N  N81  1  0.43010000  0.46960000  0.86530000  1.0 -0.3297555991
N  N82  1  0.35780000  0.44800000  0.85900000  1.0 -0.3210030741
N  N83  1  0.83300000  0.23490000  0.86960000  1.0 -0.3297555991
N  N84  1  0.78460000  0.29430000  0.86470000  1.0 -0.3297555991
N  N85  1  0.51430000  0.32690000  0.89000000  1.0 -0.3297555991
N  N86  1  0.49570000  0.40100000  0.88660000  1.0 -0.3210030741
N  N87  1  0.73150000  0.33320000  0.90050000  1.0 -0.336158686
N  N88  1  0.70210000  0.31200000  0.92900000  1.0 -0.3297555991
N  N89  1  0.84880000  0.13090000  0.88110000  1.0 -0.3297555991
N  N90  1  0.83080000  0.05940000  0.89150000  1.0 -0.3297555991
N  N91  1  0.73550000  0.31910000  0.02470000  1.0 -0.3297555991
N  N92  1  0.79510000  0.27220000  0.03090000  1.0 -0.336158686
N  N93  1  0.68300000  0.50570000  0.10120000  1.0 -0.3210030741
N  N94  1  0.70000000  0.56310000  0.12180000  1.0 -0.3210030741
N  N95  1  0.59440000  0.27830000  0.06430000  1.0 -0.3297555991
N  N96  1  0.62660000  0.30570000  0.03710000  1.0 -0.3297555991
N  N97  1  0.64430000  0.31390000  0.96710000  1.0 -0.3210030741
N  N98  1  0.65250000  0.35030000  0.99540000  1.0 -0.3210030741
N  N99  1  0.76470000  0.18790000  0.96190000  1.0 -0.3141087147
N  N100  1  0.69940000  0.22840000  0.95770000  1.0 -0.3297555991
N  N101  1  0.49950000  0.57780000  0.90860000  1.0 -0.3297555991
N  N102  1  0.50500000  0.50880000  0.89460000  1.0 -0.3210030741
N  N103  1  0.66410000  0.40450000  0.03600000  1.0 -0.3297555991
N  N104  1  0.65980000  0.45210000  0.06160000  1.0 -0.3297555991
N  N105  1  0.74800000  0.93060000  0.15930000  1.0 -0.3516259467
N  N106  1  0.74730000  0.87700000  0.18330000  1.0 -0.3644981497
N  N107  1  0.76740000  0.04450000  0.36700000  1.0 -0.3210030741
N  N108  1  0.76030000  0.98170000  0.34820000  1.0 -0.3210030741
N  N109  1  0.61600000  0.22400000  0.10530000  1.0 -0.3210030741
N  N110  1  0.66680000  0.16590000  0.10740000  1.0 -0.3210030741
N  N111  1  0.70200000  0.62040000  0.16350000  1.0 -0.336158686
N  N112  1  0.68700000  0.64230000  0.19390000  1.0 -0.3297555991
N  N113  1  0.83350000  0.89120000  0.35410000  1.0 -0.3297555991
N  N114  1  0.90660000  0.86590000  0.35100000  1.0 -0.3297555991
N  N115  1  0.78990000  0.17990000  0.05360000  1.0 -0.3210030741
N  N116  1  0.74580000  0.14720000  0.07690000  1.0 -0.3297555991
N  N117  1  0.85340000  0.18320000  0.12330000  1.0 -0.3297555991
N  N118  1  0.78060000  0.15670000  0.11920000  1.0 -0.336158686
N  N119  1  0.78380000  0.89740000  0.11850000  1.0 -0.3210030741
N  N120  1  0.80590000  0.82370000  0.11460000  1.0 -0.3297555991
N  N121  1  0.96220000  0.78370000  0.10000000  1.0 -0.3210030741
N  N122  1  0.89070000  0.76140000  0.10890000  1.0 -0.3297555991
N  N123  1  0.85600000  0.16400000  0.99080000  1.0 -0.3297555991
N  N124  1  0.86000000  0.19830000  0.01960000  1.0 -0.3141087147
N  N125  1  0.71780000  0.06760000  0.10870000  1.0 -0.3297555991
N  N126  1  0.73160000  0.99850000  0.12260000  1.0 -0.3516259467
N  N127  1  0.96590000  0.95940000  0.10450000  1.0 -0.3516259467
N  N128  1  0.97580000  0.88900000  0.09190000  1.0 -0.3297555991
N  N129  1  0.03750000  0.82840000  0.06730000  1.0 -0.2787471042
N  N130  1  0.09630000  0.81390000  0.04700000  1.0 -0.3297555991
N  N131  1  0.90490000  0.23630000  0.09050000  1.0 -0.3141087147
N  N132  1  0.87110000  0.24450000  0.06150000  1.0 -0.3297555991
N  N133  1  0.96960000  0.06990000  0.11530000  1.0 -0.3297555991
N  N134  1  0.94800000  0.14220000  0.10900000  1.0 -0.3210030741
N  N135  1  0.73490000  0.66700000  0.11960000  1.0 -0.3297555991
N  N136  1  0.79430000  0.71540000  0.11470000  1.0 -0.3297555991
N  N137  1  0.82690000  0.98570000  0.14000000  1.0 -0.3297555991
N  N138  1  0.90100000  0.00430000  0.13660000  1.0 -0.3210030741
N  N139  1  0.83320000  0.76850000  0.15050000  1.0 -0.3297555991
N  N140  1  0.81200000  0.79790000  0.17900000  1.0 -0.3297555991
N  N141  1  0.63090000  0.65120000  0.13110000  1.0 -0.3297555991
N  N142  1  0.55940000  0.66920000  0.14150000  1.0 -0.3297555991
N  N143  1  0.81910000  0.76450000  0.27470000  1.0 -0.3297555991
N  N144  1  0.77220000  0.70490000  0.28090000  1.0 -0.336158686
N  N145  1  0.00570000  0.81700000  0.35120000  1.0 -0.3210030741
N  N146  1  0.06310000  0.80000000  0.37180000  1.0 -0.3210030741
N  N147  1  0.77830000  0.90560000  0.31430000  1.0 -0.3297555991
N  N148  1  0.80570000  0.87340000  0.28710000  1.0 -0.3297555991
N  N149  1  0.81390000  0.85570000  0.21710000  1.0 -0.3141087147
N  N150  1  0.85030000  0.84750000  0.24540000  1.0 -0.3210030741
N  N151  1  0.68790000  0.73530000  0.21190000  1.0 -0.3141087147
N  N152  1  0.72840000  0.80060000  0.20770000  1.0 -0.3297555991
N  N153  1  0.07780000  0.00050000  0.15860000  1.0 -0.3297555991
N  N154  1  0.00880000  0.99500000  0.14460000  1.0 -0.3210030741
N  N155  1  0.90450000  0.83590000  0.28600000  1.0 -0.3297555991
N  N156  1  0.95210000  0.84020000  0.31160000  1.0 -0.3297555991
N  N157  1  0.25200000  0.06940000  0.65930000  1.0 -0.3516259467
N  N158  1  0.25270000  0.12300000  0.68330000  1.0 -0.3644981497
N  N159  1  0.23260000  0.95550000  0.86700000  1.0 -0.3210030741
N  N160  1  0.23970000  0.01830000  0.84820000  1.0 -0.3210030741
N  N161  1  0.38400000  0.77600000  0.60530000  1.0 -0.3210030741
N  N162  1  0.33320000  0.83410000  0.60740000  1.0 -0.3210030741
N  N163  1  0.29800000  0.37960000  0.66350000  1.0 -0.336158686
N  N164  1  0.31300000  0.35770000  0.69390000  1.0 -0.3297555991
N  N165  1  0.16650000  0.10880000  0.85410000  1.0 -0.3297555991
N  N166  1  0.09340000  0.13410000  0.85100000  1.0 -0.3297555991
N  N167  1  0.21010000  0.82010000  0.55360000  1.0 -0.3210030741
N  N168  1  0.25420000  0.85280000  0.57690000  1.0 -0.3297555991
N  N169  1  0.14660000  0.81680000  0.62330000  1.0 -0.3297555991
N  N170  1  0.21940000  0.84330000  0.61920000  1.0 -0.336158686
N  N171  1  0.21620000  0.10260000  0.61850000  1.0 -0.3210030741
N  N172  1  0.19410000  0.17630000  0.61460000  1.0 -0.3297555991
N  N173  1  0.03780000  0.21630000  0.60000000  1.0 -0.3210030741
N  N174  1  0.10930000  0.23860000  0.60890000  1.0 -0.3297555991
N  N175  1  0.14400000  0.83600000  0.49080000  1.0 -0.3297555991
N  N176  1  0.14000000  0.80170000  0.51960000  1.0 -0.3141087147
N  N177  1  0.28220000  0.93240000  0.60870000  1.0 -0.3297555991
N  N178  1  0.26840000  0.00150000  0.62260000  1.0 -0.3516259467
N  N179  1  0.03410000  0.04060000  0.60450000  1.0 -0.3516259467
N  N180  1  0.02420000  0.11100000  0.59190000  1.0 -0.3297555991
N  N181  1  0.96250000  0.17160000  0.56730000  1.0 -0.2787471042
N  N182  1  0.90370000  0.18610000  0.54700000  1.0 -0.3297555991
N  N183  1  0.09510000  0.76370000  0.59050000  1.0 -0.3210030741
N  N184  1  0.12890000  0.75550000  0.56150000  1.0 -0.3297555991
N  N185  1  0.03040000  0.93010000  0.61530000  1.0 -0.3297555991
N  N186  1  0.05200000  0.85780000  0.60900000  1.0 -0.3210030741
N  N187  1  0.26510000  0.33300000  0.61960000  1.0 -0.3297555991
N  N188  1  0.20570000  0.28460000  0.61470000  1.0 -0.3297555991
N  N189  1  0.17310000  0.01430000  0.64000000  1.0 -0.3297555991
N  N190  1  0.09900000  0.99570000  0.63660000  1.0 -0.3210030741
N  N191  1  0.16680000  0.23150000  0.65050000  1.0 -0.336158686
N  N192  1  0.18800000  0.20210000  0.67900000  1.0 -0.3297555991
N  N193  1  0.36910000  0.34880000  0.63110000  1.0 -0.3297555991
N  N194  1  0.44060000  0.33080000  0.64150000  1.0 -0.3297555991
N  N195  1  0.18090000  0.23550000  0.77470000  1.0 -0.3297555991
N  N196  1  0.22780000  0.29510000  0.78090000  1.0 -0.336158686
N  N197  1  0.99430000  0.18300000  0.85120000  1.0 -0.3210030741
N  N198  1  0.93690000  0.20000000  0.87180000  1.0 -0.3210030741
N  N199  1  0.22170000  0.09440000  0.81430000  1.0 -0.3297555991
N  N200  1  0.19430000  0.12660000  0.78710000  1.0 -0.3297555991
N  N201  1  0.18610000  0.14430000  0.71710000  1.0 -0.3210030741
N  N202  1  0.14970000  0.15250000  0.74540000  1.0 -0.3210030741
N  N203  1  0.31210000  0.26470000  0.71190000  1.0 -0.3141087147
N  N204  1  0.27160000  0.19940000  0.70770000  1.0 -0.3297555991
N  N205  1  0.92220000  0.99950000  0.65860000  1.0 -0.3297555991
N  N206  1  0.99120000  0.00500000  0.64460000  1.0 -0.3210030741
N  N207  1  0.09550000  0.16410000  0.78600000  1.0 -0.3297555991
N  N208  1  0.04790000  0.15980000  0.81160000  1.0 -0.3297555991
N  N209  1  0.06940000  0.25200000  0.34070000  1.0 -0.3516259467
N  N210  1  0.12300000  0.25270000  0.31670000  1.0 -0.3644981497
N  N211  1  0.95550000  0.23260000  0.13300000  1.0 -0.3210030741
N  N212  1  0.01830000  0.23970000  0.15180000  1.0 -0.3210030741
N  N213  1  0.77600000  0.38400000  0.39470000  1.0 -0.3210030741
N  N214  1  0.83410000  0.33320000  0.39260000  1.0 -0.3210030741
N  N215  1  0.37960000  0.29800000  0.33650000  1.0 -0.336158686
N  N216  1  0.35770000  0.31300000  0.30610000  1.0 -0.3297555991
N  N217  1  0.10880000  0.16650000  0.14590000  1.0 -0.3297555991
N  N218  1  0.13410000  0.09340000  0.14900000  1.0 -0.3297555991
N  N219  1  0.82010000  0.21010000  0.44640000  1.0 -0.3210030741
N  N220  1  0.85280000  0.25420000  0.42310000  1.0 -0.3297555991
N  N221  1  0.81680000  0.14660000  0.37670000  1.0 -0.3297555991
N  N222  1  0.84330000  0.21940000  0.38080000  1.0 -0.336158686
N  N223  1  0.10260000  0.21620000  0.38150000  1.0 -0.3210030741
N  N224  1  0.17630000  0.19410000  0.38540000  1.0 -0.3297555991
N  N225  1  0.21630000  0.03780000  0.40000000  1.0 -0.3210030741
N  N226  1  0.23860000  0.10930000  0.39110000  1.0 -0.3297555991
N  N227  1  0.83600000  0.14400000  0.50920000  1.0 -0.3297555991
N  N228  1  0.80170000  0.14000000  0.48040000  1.0 -0.3141087147
N  N229  1  0.93240000  0.28220000  0.39130000  1.0 -0.3297555991
N  N230  1  0.00150000  0.26840000  0.37740000  1.0 -0.3516259467
N  N231  1  0.04060000  0.03410000  0.39550000  1.0 -0.3516259467
N  N232  1  0.11100000  0.02420000  0.40810000  1.0 -0.3297555991
N  N233  1  0.17160000  0.96250000  0.43270000  1.0 -0.2787471042
N  N234  1  0.18610000  0.90370000  0.45300000  1.0 -0.3297555991
N  N235  1  0.76370000  0.09510000  0.40950000  1.0 -0.3141087147
N  N236  1  0.75550000  0.12890000  0.43850000  1.0 -0.3297555991
N  N237  1  0.93010000  0.03040000  0.38470000  1.0 -0.3297555991
N  N238  1  0.85780000  0.05200000  0.39100000  1.0 -0.3210030741
N  N239  1  0.33300000  0.26510000  0.38040000  1.0 -0.3297555991
N  N240  1  0.28460000  0.20570000  0.38530000  1.0 -0.3297555991
N  N241  1  0.01430000  0.17310000  0.36000000  1.0 -0.3297555991
N  N242  1  0.99570000  0.09900000  0.36340000  1.0 -0.3210030741
N  N243  1  0.23150000  0.16680000  0.34950000  1.0 -0.3297555991
N  N244  1  0.20210000  0.18800000  0.32100000  1.0 -0.3297555991
N  N245  1  0.34880000  0.36910000  0.36890000  1.0 -0.3297555991
N  N246  1  0.33080000  0.44060000  0.35850000  1.0 -0.3297555991
N  N247  1  0.23550000  0.18090000  0.22530000  1.0 -0.3297555991
N  N248  1  0.29510000  0.22780000  0.21910000  1.0 -0.336158686
N  N249  1  0.18300000  0.99430000  0.14880000  1.0 -0.3210030741
N  N250  1  0.20000000  0.93690000  0.12820000  1.0 -0.3210030741
N  N251  1  0.09440000  0.22170000  0.18570000  1.0 -0.3297555991
N  N252  1  0.12660000  0.19430000  0.21290000  1.0 -0.3297555991
N  N253  1  0.14430000  0.18610000  0.28290000  1.0 -0.3210030741
N  N254  1  0.15250000  0.14970000  0.25460000  1.0 -0.3210030741
N  N255  1  0.26470000  0.31210000  0.28810000  1.0 -0.3141087147
N  N256  1  0.19940000  0.27160000  0.29230000  1.0 -0.3297555991
N  N257  1  0.99950000  0.92220000  0.34140000  1.0 -0.3297555991
N  N258  1  0.00500000  0.99120000  0.35540000  1.0 -0.3210030741
N  N259  1  0.16410000  0.09550000  0.21400000  1.0 -0.3297555991
N  N260  1  0.15980000  0.04790000  0.18840000  1.0 -0.3297555991
N  N261  1  0.93060000  0.74800000  0.84070000  1.0 -0.3516259467
N  N262  1  0.87700000  0.74730000  0.81670000  1.0 -0.3644981497
N  N263  1  0.04450000  0.76740000  0.63300000  1.0 -0.3210030741
N  N264  1  0.98170000  0.76030000  0.65180000  1.0 -0.3210030741
N  N265  1  0.22400000  0.61600000  0.89470000  1.0 -0.3210030741
N  N266  1  0.16590000  0.66680000  0.89260000  1.0 -0.3210030741
N  N267  1  0.62040000  0.70200000  0.83650000  1.0 -0.336158686
N  N268  1  0.64230000  0.68700000  0.80610000  1.0 -0.3297555991
N  N269  1  0.89120000  0.83350000  0.64590000  1.0 -0.3297555991
N  N270  1  0.86590000  0.90660000  0.64900000  1.0 -0.3297555991
N  N271  1  0.17990000  0.78990000  0.94640000  1.0 -0.3210030741
N  N272  1  0.14720000  0.74580000  0.92310000  1.0 -0.3297555991
N  N273  1  0.18320000  0.85340000  0.87670000  1.0 -0.3297555991
N  N274  1  0.15670000  0.78060000  0.88080000  1.0 -0.336158686
N  N275  1  0.89740000  0.78380000  0.88150000  1.0 -0.3210030741
N  N276  1  0.82370000  0.80590000  0.88540000  1.0 -0.3297555991
N  N277  1  0.78370000  0.96220000  0.90000000  1.0 -0.3210030741
N  N278  1  0.76140000  0.89070000  0.89110000  1.0 -0.3297555991
N  N279  1  0.16400000  0.85600000  0.00920000  1.0 -0.3297555991
N  N280  1  0.19830000  0.86000000  0.98040000  1.0 -0.3141087147
N  N281  1  0.06760000  0.71780000  0.89130000  1.0 -0.3297555991
N  N282  1  0.99850000  0.73160000  0.87740000  1.0 -0.3516259467
N  N283  1  0.95940000  0.96590000  0.89550000  1.0 -0.3516259467
N  N284  1  0.88900000  0.97580000  0.90810000  1.0 -0.3297555991
N  N285  1  0.82840000  0.03750000  0.93270000  1.0 -0.2787471042
N  N286  1  0.81390000  0.09630000  0.95300000  1.0 -0.3297555991
N  N287  1  0.23630000  0.90490000  0.90950000  1.0 -0.3210030741
N  N288  1  0.24450000  0.87110000  0.93850000  1.0 -0.336158686
N  N289  1  0.06990000  0.96960000  0.88470000  1.0 -0.3297555991
N  N290  1  0.14220000  0.94800000  0.89100000  1.0 -0.3210030741
N  N291  1  0.66700000  0.73490000  0.88040000  1.0 -0.3297555991
N  N292  1  0.71540000  0.79430000  0.88530000  1.0 -0.3297555991
N  N293  1  0.98570000  0.82690000  0.86000000  1.0 -0.3297555991
N  N294  1  0.00430000  0.90100000  0.86340000  1.0 -0.3210030741
N  N295  1  0.76850000  0.83320000  0.84950000  1.0 -0.336158686
N  N296  1  0.79790000  0.81200000  0.82100000  1.0 -0.3297555991
N  N297  1  0.65120000  0.63090000  0.86890000  1.0 -0.3297555991
N  N298  1  0.66920000  0.55940000  0.85850000  1.0 -0.3297555991
N  N299  1  0.76450000  0.81910000  0.72530000  1.0 -0.3297555991
N  N300  1  0.70490000  0.77220000  0.71910000  1.0 -0.336158686
N  N301  1  0.81700000  0.00570000  0.64880000  1.0 -0.3210030741
N  N302  1  0.80000000  0.06310000  0.62820000  1.0 -0.3210030741
N  N303  1  0.90560000  0.77830000  0.68570000  1.0 -0.3297555991
N  N304  1  0.87340000  0.80570000  0.71290000  1.0 -0.3297555991
N  N305  1  0.85570000  0.81390000  0.78290000  1.0 -0.3210030741
N  N306  1  0.84750000  0.85030000  0.75460000  1.0 -0.3210030741
N  N307  1  0.73530000  0.68790000  0.78810000  1.0 -0.3141087147
N  N308  1  0.80060000  0.72840000  0.79230000  1.0 -0.3297555991
N  N309  1  0.00050000  0.07780000  0.84140000  1.0 -0.3297555991
N  N310  1  0.99500000  0.00880000  0.85540000  1.0 -0.3210030741
N  N311  1  0.83590000  0.90450000  0.71400000  1.0 -0.3297555991
N  N312  1  0.84020000  0.95210000  0.68840000  1.0 -0.3297555991
N  N313  1  0.75200000  0.43060000  0.59070000  1.0 -0.3516259467
N  N314  1  0.75270000  0.37700000  0.56670000  1.0 -0.3644981497
N  N315  1  0.73260000  0.54450000  0.38300000  1.0 -0.3210030741
N  N316  1  0.73970000  0.48170000  0.40180000  1.0 -0.3210030741
N  N317  1  0.88400000  0.72400000  0.64470000  1.0 -0.3210030741
N  N318  1  0.83320000  0.66590000  0.64260000  1.0 -0.3210030741
N  N319  1  0.79800000  0.12040000  0.58650000  1.0 -0.336158686
N  N320  1  0.81300000  0.14230000  0.55610000  1.0 -0.3297555991
N  N321  1  0.66650000  0.39120000  0.39590000  1.0 -0.3297555991
N  N322  1  0.59340000  0.36590000  0.39900000  1.0 -0.3297555991
N  N323  1  0.71010000  0.67990000  0.69640000  1.0 -0.3210030741
N  N324  1  0.75420000  0.64720000  0.67310000  1.0 -0.3297555991
N  N325  1  0.64660000  0.68320000  0.62670000  1.0 -0.3297555991
N  N326  1  0.71940000  0.65670000  0.63080000  1.0 -0.336158686
N  N327  1  0.71620000  0.39740000  0.63150000  1.0 -0.3210030741
N  N328  1  0.69410000  0.32370000  0.63540000  1.0 -0.3297555991
N  N329  1  0.53780000  0.28370000  0.65000000  1.0 -0.3210030741
N  N330  1  0.60930000  0.26140000  0.64110000  1.0 -0.3297555991
N  N331  1  0.64400000  0.66400000  0.75920000  1.0 -0.3297555991
N  N332  1  0.64000000  0.69830000  0.73040000  1.0 -0.3141087147
N  N333  1  0.78220000  0.56760000  0.64130000  1.0 -0.3297555991
N  N334  1  0.76840000  0.49850000  0.62740000  1.0 -0.3516259467
N  N335  1  0.53410000  0.45940000  0.64550000  1.0 -0.3516259467
N  N336  1  0.52420000  0.38900000  0.65810000  1.0 -0.3297555991
N  N337  1  0.46250000  0.32840000  0.68270000  1.0 -0.2787471042
N  N338  1  0.40370000  0.31390000  0.70300000  1.0 -0.3297555991
N  N339  1  0.59510000  0.73630000  0.65950000  1.0 -0.3141087147
N  N340  1  0.62890000  0.74450000  0.68850000  1.0 -0.3297555991
N  N341  1  0.53040000  0.56990000  0.63470000  1.0 -0.3297555991
N  N342  1  0.55200000  0.64220000  0.64100000  1.0 -0.3210030741
N  N343  1  0.76510000  0.16700000  0.63040000  1.0 -0.3297555991
N  N344  1  0.70570000  0.21540000  0.63530000  1.0 -0.3297555991
N  N345  1  0.67310000  0.48570000  0.61000000  1.0 -0.3297555991
N  N346  1  0.59900000  0.50430000  0.61340000  1.0 -0.3210030741
N  N347  1  0.66680000  0.26850000  0.59950000  1.0 -0.3297555991
N  N348  1  0.68800000  0.29790000  0.57100000  1.0 -0.3297555991
N  N349  1  0.86910000  0.15120000  0.61890000  1.0 -0.3297555991
N  N350  1  0.94060000  0.16920000  0.60850000  1.0 -0.3297555991
N  N351  1  0.68090000  0.26450000  0.47530000  1.0 -0.3297555991
N  N352  1  0.72780000  0.20490000  0.46910000  1.0 -0.336158686
N  N353  1  0.49430000  0.31700000  0.39880000  1.0 -0.3210030741
N  N354  1  0.43690000  0.30000000  0.37820000  1.0 -0.3210030741
N  N355  1  0.72170000  0.40560000  0.43570000  1.0 -0.3297555991
N  N356  1  0.69430000  0.37340000  0.46290000  1.0 -0.3297555991
N  N357  1  0.68610000  0.35570000  0.53290000  1.0 -0.3210030741
N  N358  1  0.64970000  0.34750000  0.50460000  1.0 -0.3210030741
N  N359  1  0.81210000  0.23530000  0.53810000  1.0 -0.3141087147
N  N360  1  0.77160000  0.30060000  0.54230000  1.0 -0.3297555991
N  N361  1  0.42220000  0.50050000  0.59140000  1.0 -0.3297555991
N  N362  1  0.49120000  0.49500000  0.60540000  1.0 -0.3210030741
N  N363  1  0.59550000  0.33590000  0.46400000  1.0 -0.3297555991
N  N364  1  0.54790000  0.34020000  0.43840000  1.0 -0.3297555991
N  N365  1  0.24800000  0.56940000  0.09070000  1.0 -0.3516259467
N  N366  1  0.24730000  0.62300000  0.06670000  1.0 -0.3644981497
N  N367  1  0.26740000  0.45550000  0.88300000  1.0 -0.3210030741
N  N368  1  0.26030000  0.51830000  0.90180000  1.0 -0.3210030741
N  N369  1  0.11600000  0.27600000  0.14470000  1.0 -0.3210030741
N  N370  1  0.16680000  0.33410000  0.14260000  1.0 -0.3210030741
N  N371  1  0.20200000  0.87960000  0.08650000  1.0 -0.336158686
N  N372  1  0.18700000  0.85770000  0.05610000  1.0 -0.3297555991
N  N373  1  0.33350000  0.60880000  0.89590000  1.0 -0.3297555991
N  N374  1  0.40660000  0.63410000  0.89900000  1.0 -0.3297555991
N  N375  1  0.28990000  0.32010000  0.19640000  1.0 -0.3210030741
N  N376  1  0.24580000  0.35280000  0.17310000  1.0 -0.3297555991
N  N377  1  0.35340000  0.31680000  0.12670000  1.0 -0.3297555991
N  N378  1  0.28060000  0.34330000  0.13080000  1.0 -0.336158686
N  N379  1  0.28380000  0.60260000  0.13150000  1.0 -0.3210030741
N  N380  1  0.30590000  0.67630000  0.13540000  1.0 -0.3297555991
N  N381  1  0.46220000  0.71630000  0.15000000  1.0 -0.3210030741
N  N382  1  0.39070000  0.73860000  0.14110000  1.0 -0.3297555991
N  N383  1  0.35600000  0.33600000  0.25920000  1.0 -0.3297555991
N  N384  1  0.36000000  0.30170000  0.23040000  1.0 -0.3141087147
N  N385  1  0.21780000  0.43240000  0.14130000  1.0 -0.3297555991
N  N386  1  0.23160000  0.50150000  0.12740000  1.0 -0.3516259467
N  N387  1  0.46590000  0.54060000  0.14550000  1.0 -0.3516259467
N  N388  1  0.47580000  0.61100000  0.15810000  1.0 -0.3297555991
N  N389  1  0.53750000  0.67160000  0.18270000  1.0 -0.2787471042
N  N390  1  0.59630000  0.68610000  0.20300000  1.0 -0.3297555991
N  N391  1  0.40490000  0.26370000  0.15950000  1.0 -0.3141087147
N  N392  1  0.37110000  0.25550000  0.18850000  1.0 -0.3297555991
N  N393  1  0.46960000  0.43010000  0.13470000  1.0 -0.3297555991
N  N394  1  0.44800000  0.35780000  0.14100000  1.0 -0.3210030741
N  N395  1  0.23490000  0.83300000  0.13040000  1.0 -0.3297555991
N  N396  1  0.29430000  0.78460000  0.13530000  1.0 -0.3297555991
N  N397  1  0.32690000  0.51430000  0.11000000  1.0 -0.3297555991
N  N398  1  0.40100000  0.49570000  0.11340000  1.0 -0.3210030741
N  N399  1  0.33320000  0.73150000  0.09950000  1.0 -0.3297555991
N  N400  1  0.31200000  0.70210000  0.07100000  1.0 -0.3297555991
N  N401  1  0.13090000  0.84880000  0.11890000  1.0 -0.3297555991
N  N402  1  0.05940000  0.83080000  0.10850000  1.0 -0.3297555991
N  N403  1  0.31910000  0.73550000  0.97530000  1.0 -0.3297555991
N  N404  1  0.27220000  0.79510000  0.96910000  1.0 -0.336158686
N  N405  1  0.50570000  0.68300000  0.89880000  1.0 -0.3210030741
N  N406  1  0.56310000  0.70000000  0.87820000  1.0 -0.3210030741
N  N407  1  0.27830000  0.59440000  0.93570000  1.0 -0.3297555991
N  N408  1  0.30570000  0.62660000  0.96290000  1.0 -0.3297555991
N  N409  1  0.31390000  0.64430000  0.03290000  1.0 -0.3141087147
N  N410  1  0.35030000  0.65250000  0.00460000  1.0 -0.3210030741
N  N411  1  0.18790000  0.76470000  0.03810000  1.0 -0.3141087147
N  N412  1  0.22840000  0.69940000  0.04230000  1.0 -0.3297555991
N  N413  1  0.57780000  0.49950000  0.09140000  1.0 -0.3297555991
N  N414  1  0.50880000  0.50500000  0.10540000  1.0 -0.3210030741
N  N415  1  0.40450000  0.66410000  0.96400000  1.0 -0.3297555991
N  N416  1  0.45210000  0.65980000  0.93840000  1.0 -0.3297555991
