# generated by PACMAN-DDEC6 charge (https://github.com/sxm13/PACMAN/)
data_structure
_chemical_formula_sum              "Zn12 H128 C208 N8 O72"
_cell_length_a       14.5387
_cell_length_b       18.1249
_cell_length_c       25.0165
_cell_angle_alpha    90
_cell_angle_beta     90
_cell_angle_gamma    90

_symmetry_space_group_name_H-M    "P 1"
_symmetry_Int_Tables_number       1

loop_
  _symmetry_equiv_pos_as_xyz
  'x, y, z'

loop_
  _atom_site_type_symbol
  _atom_site_label
  _atom_site_symmetry_multiplicity
  _atom_site_fract_x
  _atom_site_fract_y
  _atom_site_fract_z
  _atom_site_occupancy
  _atom_site_charge
Zn  Zn1       1.0  0.53550  0.05696  0.35182  1.0000 0.7823201903
Zn  Zn2       1.0  0.46450  0.44304  0.35182  1.0000 0.7823201903
Zn  Zn3       1.0  0.96450  0.05696  0.85182  1.0000 0.7823201903
Zn  Zn4       1.0  0.03550  0.44304  0.85182  1.0000 0.7823201903
Zn  Zn5       1.0  0.50000  0.25000  0.35139  1.0000 0.8238818411
Zn  Zn6       1.0  0.00000  0.25000  0.85139  1.0000 0.8258863651
Zn  Zn7       1.0  0.03550  0.94304  0.14818  1.0000 0.7823201903
Zn  Zn8       1.0  0.96450  0.55696  0.14818  1.0000 0.7823201903
Zn  Zn9       1.0  0.46450  0.94304  0.64818  1.0000 0.7823201903
Zn  Zn10      1.0  0.53550  0.55696  0.64818  1.0000 0.7823201903
Zn  Zn11      1.0  0.00000  0.75000  0.14861  1.0000 0.8238818411
Zn  Zn12      1.0  0.50000  0.75000  0.64861  1.0000 0.8238818411
H   H1        1.0  0.47984  0.93436  0.42516  1.0000 0.1106718955
H   H2        1.0  0.52016  0.56564  0.42516  1.0000 0.1106718955
H   H3        1.0  0.02016  0.93436  0.92516  1.0000 0.1106718955
H   H4        1.0  0.97984  0.56564  0.92516  1.0000 0.1106718955
H   H5        1.0  0.46109  0.80887  0.42645  1.0000 0.1352573652
H   H6        1.0  0.53891  0.69113  0.42645  1.0000 0.1352573652
H   H7        1.0  0.03891  0.80887  0.92645  1.0000 0.1352573652
H   H8        1.0  0.96109  0.69113  0.92645  1.0000 0.1352573652
H   H9        1.0  0.35587  0.24209  0.48287  1.0000 0.1106718955
H   H10       1.0  0.64413  0.25791  0.48287  1.0000 0.1106718955
H   H11       1.0  0.14413  0.24209  0.98287  1.0000 0.1106718955
H   H12       1.0  0.85587  0.25791  0.98287  1.0000 0.1106718955
H   H13       1.0  0.26875  0.24475  0.55998  1.0000 0.1106718955
H   H14       1.0  0.73125  0.25525  0.55998  1.0000 0.1106718955
H   H15       1.0  0.23125  0.24475  0.05998  1.0000 0.1106718955
H   H16       1.0  0.76875  0.25525  0.05998  1.0000 0.1106718955
H   H17       1.0  0.24103  0.23673  0.64460  1.0000 0.1106718955
H   H18       1.0  0.75897  0.26327  0.64460  1.0000 0.1106718955
H   H19       1.0  0.25897  0.23673  0.14460  1.0000 0.1106718955
H   H20       1.0  0.74103  0.26327  0.14460  1.0000 0.1106718955
H   H21       1.0  0.33554  0.23373  0.22591  1.0000 0.117582553
H   H22       1.0  0.66446  0.26627  0.22591  1.0000 0.117582553
H   H23       1.0  0.16446  0.23373  0.72591  1.0000 0.117582553
H   H24       1.0  0.83554  0.26627  0.72591  1.0000 0.117582553
H   H25       1.0  0.17007  0.03263  0.62140  1.0000 0.117582553
H   H26       1.0  0.82993  0.46737  0.62140  1.0000 0.117582553
H   H27       1.0  0.32993  0.03263  0.12140  1.0000 0.117582553
H   H28       1.0  0.67007  0.46737  0.12140  1.0000 0.117582553
H   H29       1.0  0.40145  0.03087  0.20243  1.0000 0.117582553
H   H30       1.0  0.59855  0.46913  0.20243  1.0000 0.117582553
H   H31       1.0  0.09855  0.03087  0.70243  1.0000 0.117582553
H   H32       1.0  0.90145  0.46913  0.70243  1.0000 0.117582553
H   H33       1.0  0.28287  0.02398  0.56830  1.0000 0.117582553
H   H34       1.0  0.71713  0.47602  0.56830  1.0000 0.117582553
H   H35       1.0  0.21713  0.02398  0.06830  1.0000 0.117582553
H   H36       1.0  0.78287  0.47602  0.06830  1.0000 0.117582553
H   H37       1.0  0.37116  0.02181  0.49200  1.0000 0.117582553
H   H38       1.0  0.62884  0.47819  0.49200  1.0000 0.117582553
H   H39       1.0  0.12884  0.02181  0.99200  1.0000 0.117582553
H   H40       1.0  0.87116  0.47819  0.99200  1.0000 0.117582553
H   H41       1.0  0.83844  0.08187  0.33162  1.0000 0.1106718955
H   H42       1.0  0.16156  0.41813  0.33162  1.0000 0.1106718955
H   H43       1.0  0.66156  0.08187  0.83162  1.0000 0.1106718955
H   H44       1.0  0.33844  0.41813  0.83162  1.0000 0.1106718955
H   H45       1.0  0.98479  0.12897  0.32801  1.0000 0.117582553
H   H46       1.0  0.01521  0.37103  0.32801  1.0000 0.117582553
H   H47       1.0  0.51521  0.12897  0.82801  1.0000 0.117582553
H   H48       1.0  0.48479  0.37103  0.82801  1.0000 0.117582553
H   H49       1.0  0.88613  0.33031  0.34982  1.0000 0.117582553
H   H50       1.0  0.11387  0.16969  0.34982  1.0000 0.117582553
H   H51       1.0  0.61387  0.33031  0.84982  1.0000 0.117582553
H   H52       1.0  0.38613  0.16969  0.84982  1.0000 0.117582553
H   H53       1.0  0.73924  0.28263  0.35592  1.0000 0.1106718955
H   H54       1.0  0.26076  0.21737  0.35592  1.0000 0.1106718955
H   H55       1.0  0.76076  0.28263  0.85592  1.0000 0.1106718955
H   H56       1.0  0.23924  0.21737  0.85592  1.0000 0.1106718955
H   H57       1.0  0.55315  0.80236  0.27608  1.0000 0.1325235032
H   H58       1.0  0.44685  0.69764  0.27608  1.0000 0.1325235032
H   H59       1.0  0.94685  0.80236  0.77608  1.0000 0.1325235032
H   H60       1.0  0.05315  0.69764  0.77608  1.0000 0.1325235032
H   H61       1.0  0.56830  0.92810  0.27833  1.0000 0.1106718955
H   H62       1.0  0.43170  0.57190  0.27833  1.0000 0.1106718955
H   H63       1.0  0.93170  0.92810  0.77833  1.0000 0.1106718955
H   H64       1.0  0.06830  0.57190  0.77833  1.0000 0.1106718955
H   H65       1.0  0.97984  0.06564  0.07484  1.0000 0.1106718955
H   H66       1.0  0.02016  0.43436  0.07484  1.0000 0.1106718955
H   H67       1.0  0.52016  0.06564  0.57484  1.0000 0.1106718955
H   H68       1.0  0.47984  0.43436  0.57484  1.0000 0.1106718955
H   H69       1.0  0.96109  0.19113  0.07355  1.0000 0.1352573652
H   H70       1.0  0.03891  0.30887  0.07355  1.0000 0.1352573652
H   H71       1.0  0.53891  0.19113  0.57355  1.0000 0.1352573652
H   H72       1.0  0.46109  0.30887  0.57355  1.0000 0.1352573652
H   H73       1.0  0.85587  0.75791  0.01713  1.0000 0.1106718955
H   H74       1.0  0.14413  0.74209  0.01713  1.0000 0.1106718955
H   H75       1.0  0.64413  0.75791  0.51713  1.0000 0.1106718955
H   H76       1.0  0.35587  0.74209  0.51713  1.0000 0.1106718955
H   H77       1.0  0.76875  0.75525  0.94002  1.0000 0.1106718955
H   H78       1.0  0.23125  0.74475  0.94002  1.0000 0.1106718955
H   H79       1.0  0.73125  0.75525  0.44002  1.0000 0.1106718955
H   H80       1.0  0.26875  0.74475  0.44002  1.0000 0.1106718955
H   H81       1.0  0.74103  0.76327  0.85540  1.0000 0.1106718955
H   H82       1.0  0.25897  0.73673  0.85540  1.0000 0.1106718955
H   H83       1.0  0.75897  0.76327  0.35540  1.0000 0.1106718955
H   H84       1.0  0.24103  0.73673  0.35540  1.0000 0.1106718955
H   H85       1.0  0.83554  0.76627  0.27409  1.0000 0.117582553
H   H86       1.0  0.16446  0.73373  0.27409  1.0000 0.117582553
H   H87       1.0  0.66446  0.76627  0.77409  1.0000 0.117582553
H   H88       1.0  0.33554  0.73373  0.77409  1.0000 0.117582553
H   H89       1.0  0.67007  0.96737  0.87860  1.0000 0.117582553
H   H90       1.0  0.32993  0.53263  0.87860  1.0000 0.117582553
H   H91       1.0  0.82993  0.96737  0.37860  1.0000 0.117582553
H   H92       1.0  0.17007  0.53263  0.37860  1.0000 0.117582553
H   H93       1.0  0.90145  0.96913  0.29757  1.0000 0.117582553
H   H94       1.0  0.09855  0.53087  0.29757  1.0000 0.117582553
H   H95       1.0  0.59855  0.96913  0.79757  1.0000 0.117582553
H   H96       1.0  0.40145  0.53087  0.79757  1.0000 0.117582553
H   H97       1.0  0.78287  0.97602  0.93170  1.0000 0.117582553
H   H98       1.0  0.21713  0.52398  0.93170  1.0000 0.117582553
H   H99       1.0  0.71713  0.97602  0.43170  1.0000 0.117582553
H   H100      1.0  0.28287  0.52398  0.43170  1.0000 0.117582553
H   H101      1.0  0.87116  0.97819  0.00800  1.0000 0.117582553
H   H102      1.0  0.12884  0.52181  0.00800  1.0000 0.117582553
H   H103      1.0  0.62884  0.97819  0.50800  1.0000 0.117582553
H   H104      1.0  0.37116  0.52181  0.50800  1.0000 0.117582553
H   H105      1.0  0.33844  0.91813  0.16838  1.0000 0.1106718955
H   H106      1.0  0.66156  0.58187  0.16838  1.0000 0.1106718955
H   H107      1.0  0.16156  0.91813  0.66838  1.0000 0.1106718955
H   H108      1.0  0.83844  0.58187  0.66838  1.0000 0.1106718955
H   H109      1.0  0.48479  0.87103  0.17199  1.0000 0.117582553
H   H110      1.0  0.51521  0.62897  0.17199  1.0000 0.117582553
H   H111      1.0  0.01521  0.87103  0.67199  1.0000 0.117582553
H   H112      1.0  0.98479  0.62897  0.67199  1.0000 0.117582553
H   H113      1.0  0.38613  0.66969  0.15018  1.0000 0.117582553
H   H114      1.0  0.61387  0.83031  0.15018  1.0000 0.117582553
H   H115      1.0  0.11387  0.66969  0.65018  1.0000 0.117582553
H   H116      1.0  0.88613  0.83031  0.65018  1.0000 0.117582553
H   H117      1.0  0.23924  0.71737  0.14408  1.0000 0.1106718955
H   H118      1.0  0.76076  0.78263  0.14408  1.0000 0.1106718955
H   H119      1.0  0.26076  0.71737  0.64408  1.0000 0.1106718955
H   H120      1.0  0.73924  0.78263  0.64408  1.0000 0.1106718955
H   H121      1.0  0.05315  0.19764  0.22392  1.0000 0.1325235032
H   H122      1.0  0.94685  0.30236  0.22392  1.0000 0.1325235032
H   H123      1.0  0.44685  0.19764  0.72392  1.0000 0.1325235032
H   H124      1.0  0.55315  0.30236  0.72392  1.0000 0.1325235032
H   H125      1.0  0.06830  0.07190  0.22167  1.0000 0.1106718955
H   H126      1.0  0.93170  0.42810  0.22167  1.0000 0.1106718955
H   H127      1.0  0.43170  0.07190  0.72167  1.0000 0.1106718955
H   H128      1.0  0.56830  0.42810  0.72167  1.0000 0.1106718955
C   C1        1.0  0.49470  0.90738  0.39474  1.0000 0.097865684
C   C2        1.0  0.50530  0.59262  0.39474  1.0000 0.097865684
C   C3        1.0  0.00530  0.90738  0.89474  1.0000 0.097865684
C   C4        1.0  0.99470  0.59262  0.89474  1.0000 0.097865684
C   C5        1.0  0.48340  0.83189  0.39585  1.0000 -0.1911318227
C   C6        1.0  0.51660  0.66811  0.39585  1.0000 -0.1911318227
C   C7        1.0  0.01660  0.83189  0.89585  1.0000 -0.1911318227
C   C8        1.0  0.98340  0.66811  0.89585  1.0000 -0.1911318227
C   C9        1.0  0.21160  0.13540  0.62312  1.0000 0.0780617645
C   C10       1.0  0.78840  0.36460  0.62312  1.0000 0.0780617645
C   C11       1.0  0.28840  0.13540  0.12312  1.0000 0.0780617645
C   C12       1.0  0.71160  0.36460  0.12312  1.0000 0.0780617645
C   C13       1.0  0.95210  0.23480  0.33983  1.0000 0.0747221821
C   C14       1.0  0.04790  0.26520  0.33983  1.0000 0.0747221821
C   C15       1.0  0.54790  0.23480  0.83983  1.0000 0.0747221821
C   C16       1.0  0.45210  0.26520  0.83983  1.0000 0.0747221821
C   C17       1.0  0.50530  0.79074  0.35128  1.0000 0.1106718955
C   C18       1.0  0.49470  0.70926  0.35128  1.0000 0.1106718955
C   C19       1.0  0.99470  0.79074  0.85128  1.0000 0.1106718955
C   C20       1.0  0.00530  0.70926  0.85128  1.0000 0.1106718955
C   C21       1.0  0.67840  0.14610  0.34823  1.0000 0.5120871142
C   C22       1.0  0.32160  0.35390  0.34823  1.0000 0.5120871142
C   C23       1.0  0.82160  0.14610  0.84823  1.0000 0.5120871142
C   C24       1.0  0.17840  0.35390  0.84823  1.0000 0.5120871142
C   C25       1.0  0.37260  0.13188  0.47953  1.0000 -0.0818820949
C   C26       1.0  0.62740  0.36812  0.47953  1.0000 -0.0818820949
C   C27       1.0  0.12740  0.13188  0.97953  1.0000 -0.0818820949
C   C28       1.0  0.87260  0.36812  0.97953  1.0000 -0.0818820949
C   C29       1.0  0.43230  0.13134  0.43099  1.0000 0.5120871142
C   C30       1.0  0.56770  0.36866  0.43099  1.0000 0.5120871142
C   C31       1.0  0.06770  0.13134  0.93099  1.0000 0.5120871142
C   C32       1.0  0.93230  0.36866  0.93099  1.0000 0.5120871142
C   C33       1.0  0.34130  0.19820  0.50014  1.0000 -0.1298478431
C   C34       1.0  0.65870  0.30180  0.50014  1.0000 -0.1298478431
C   C35       1.0  0.15870  0.19820  0.00014  1.0000 -0.1298478431
C   C36       1.0  0.84130  0.30180  0.00014  1.0000 -0.1298478431
C   C37       1.0  0.28850  0.19970  0.54632  1.0000 -0.1517594195
C   C38       1.0  0.71150  0.30030  0.54632  1.0000 -0.1517594195
C   C39       1.0  0.21150  0.19970  0.04632  1.0000 -0.1517594195
C   C40       1.0  0.78850  0.30030  0.04632  1.0000 -0.1517594195
C   C41       1.0  0.26470  0.13460  0.57243  1.0000 0.0780617645
C   C42       1.0  0.73530  0.36540  0.57243  1.0000 0.0780617645
C   C43       1.0  0.23530  0.13460  0.07243  1.0000 0.0780617645
C   C44       1.0  0.76470  0.36540  0.07243  1.0000 0.0780617645
C   C45       1.0  0.20990  0.19420  0.65480  1.0000 -0.1635780054
C   C46       1.0  0.79010  0.30580  0.65480  1.0000 -0.1635780054
C   C47       1.0  0.29010  0.19420  0.15480  1.0000 -0.1635780054
C   C48       1.0  0.70990  0.30580  0.15480  1.0000 -0.1635780054
C   C49       1.0  0.33840  0.19280  0.20350  1.0000 -0.1095965867
C   C50       1.0  0.66160  0.30720  0.20350  1.0000 -0.1095965867
C   C51       1.0  0.16160  0.19280  0.70350  1.0000 -0.1095965867
C   C52       1.0  0.83840  0.30720  0.70350  1.0000 -0.1095965867
C   C53       1.0  0.16880  0.07560  0.64170  1.0000 -0.1635780054
C   C54       1.0  0.83120  0.42440  0.64170  1.0000 -0.1635780054
C   C55       1.0  0.33120  0.07560  0.14170  1.0000 -0.1635780054
C   C56       1.0  0.66880  0.42440  0.14170  1.0000 -0.1635780054
C   C57       1.0  0.37740  0.07520  0.19000  1.0000 -0.1017394589
C   C58       1.0  0.62260  0.42480  0.19000  1.0000 -0.1017394589
C   C59       1.0  0.12260  0.07520  0.69000  1.0000 -0.1017394589
C   C60       1.0  0.87740  0.42480  0.69000  1.0000 -0.1017394589
C   C61       1.0  0.29730  0.06807  0.55123  1.0000 -0.1517594195
C   C62       1.0  0.70270  0.43193  0.55123  1.0000 -0.1517594195
C   C63       1.0  0.20270  0.06807  0.05123  1.0000 -0.1517594195
C   C64       1.0  0.79730  0.43193  0.05123  1.0000 -0.1517594195
C   C65       1.0  0.35030  0.06662  0.50547  1.0000 -0.1017394589
C   C66       1.0  0.64970  0.43338  0.50547  1.0000 -0.1017394589
C   C67       1.0  0.14970  0.06662  0.00547  1.0000 -0.1017394589
C   C68       1.0  0.85030  0.43338  0.00547  1.0000 -0.1017394589
C   C69       1.0  0.43920  0.13210  0.27057  1.0000 0.5471106135
C   C70       1.0  0.56080  0.36790  0.27057  1.0000 0.5471106135
C   C71       1.0  0.06080  0.13210  0.77057  1.0000 0.5471106135
C   C72       1.0  0.93920  0.36790  0.77057  1.0000 0.5471106135
C   C73       1.0  0.38850  0.13410  0.21870  1.0000 -0.0439428482
C   C74       1.0  0.61150  0.36590  0.21870  1.0000 -0.0439428482
C   C75       1.0  0.11150  0.13410  0.71870  1.0000 -0.0439428482
C   C76       1.0  0.88850  0.36590  0.71870  1.0000 -0.0439428482
C   C77       1.0  0.77370  0.17730  0.34457  1.0000 -0.0625014341
C   C78       1.0  0.22630  0.32270  0.34457  1.0000 -0.0625014341
C   C79       1.0  0.72630  0.17730  0.84457  1.0000 -0.0625014341
C   C80       1.0  0.27370  0.32270  0.84457  1.0000 -0.0625014341
C   C81       1.0  0.84750  0.13230  0.33600  1.0000 -0.1017394589
C   C82       1.0  0.15250  0.36770  0.33600  1.0000 -0.1017394589
C   C83       1.0  0.65250  0.13230  0.83600  1.0000 -0.1017394589
C   C84       1.0  0.34750  0.36770  0.83600  1.0000 -0.1017394589
C   C85       1.0  0.93560  0.16080  0.33380  1.0000 -0.1697959877
C   C86       1.0  0.06440  0.33920  0.33380  1.0000 -0.1697959877
C   C87       1.0  0.56440  0.16080  0.83380  1.0000 -0.1697959877
C   C88       1.0  0.43560  0.33920  0.83380  1.0000 -0.1697959877
C   C89       1.0  0.87740  0.27960  0.34700  1.0000 -0.1517594195
C   C90       1.0  0.12260  0.22040  0.34700  1.0000 -0.1517594195
C   C91       1.0  0.62260  0.27960  0.84700  1.0000 -0.1517594195
C   C92       1.0  0.37740  0.22040  0.84700  1.0000 -0.1517594195
C   C93       1.0  0.78870  0.25110  0.35010  1.0000 -0.1017394589
C   C94       1.0  0.21130  0.24890  0.35010  1.0000 -0.1017394589
C   C95       1.0  0.71130  0.25110  0.85010  1.0000 -0.1017394589
C   C96       1.0  0.28870  0.24890  0.85010  1.0000 -0.1017394589
C   C97       1.0  0.53760  0.82820  0.30692  1.0000 -0.1911318227
C   C98       1.0  0.46240  0.67180  0.30692  1.0000 -0.1911318227
C   C99       1.0  0.96240  0.82820  0.80692  1.0000 -0.1911318227
C   C100      1.0  0.03760  0.67180  0.80692  1.0000 -0.1911318227
C   C101      1.0  0.54680  0.90372  0.30856  1.0000 0.0780617645
C   C102      1.0  0.45320  0.59628  0.30856  1.0000 0.0780617645
C   C103      1.0  0.95320  0.90372  0.80856  1.0000 0.0780617645
C   C104      1.0  0.04680  0.59628  0.80856  1.0000 0.0780617645
C   C105      1.0  0.99470  0.09262  0.10526  1.0000 0.097865684
C   C106      1.0  0.00530  0.40738  0.10526  1.0000 0.097865684
C   C107      1.0  0.50530  0.09262  0.60526  1.0000 0.097865684
C   C108      1.0  0.49470  0.40738  0.60526  1.0000 0.097865684
C   C109      1.0  0.98340  0.16811  0.10415  1.0000 -0.1911318227
C   C110      1.0  0.01660  0.33189  0.10415  1.0000 -0.1911318227
C   C111      1.0  0.51660  0.16811  0.60415  1.0000 -0.1911318227
C   C112      1.0  0.48340  0.33189  0.60415  1.0000 -0.1911318227
C   C113      1.0  0.71160  0.86460  0.87688  1.0000 0.0780617645
C   C114      1.0  0.28840  0.63540  0.87688  1.0000 0.0780617645
C   C115      1.0  0.78840  0.86460  0.37688  1.0000 0.0780617645
C   C116      1.0  0.21160  0.63540  0.37688  1.0000 0.0780617645
C   C117      1.0  0.45210  0.76520  0.16017  1.0000 0.0747221821
C   C118      1.0  0.54790  0.73480  0.16017  1.0000 0.0747221821
C   C119      1.0  0.04790  0.76520  0.66017  1.0000 0.0780617645
C   C120      1.0  0.95210  0.73480  0.66017  1.0000 0.0747221821
C   C121      1.0  0.00530  0.20926  0.14872  1.0000 0.1106718955
C   C122      1.0  0.99470  0.29074  0.14872  1.0000 0.1106718955
C   C123      1.0  0.49470  0.20926  0.64872  1.0000 0.1106718955
C   C124      1.0  0.50530  0.29074  0.64872  1.0000 0.1106718955
C   C125      1.0  0.17840  0.85390  0.15177  1.0000 0.5120871142
C   C126      1.0  0.82160  0.64610  0.15177  1.0000 0.5120871142
C   C127      1.0  0.32160  0.85390  0.65177  1.0000 0.5120871142
C   C128      1.0  0.67840  0.64610  0.65177  1.0000 0.5120871142
C   C129      1.0  0.87260  0.86812  0.02047  1.0000 -0.0818820949
C   C130      1.0  0.12740  0.63188  0.02047  1.0000 -0.0818820949
C   C131      1.0  0.62740  0.86812  0.52047  1.0000 -0.0818820949
C   C132      1.0  0.37260  0.63188  0.52047  1.0000 -0.0818820949
C   C133      1.0  0.93230  0.86866  0.06901  1.0000 0.5120871142
C   C134      1.0  0.06770  0.63134  0.06901  1.0000 0.5120871142
C   C135      1.0  0.56770  0.86866  0.56901  1.0000 0.5120871142
C   C136      1.0  0.43230  0.63134  0.56901  1.0000 0.5120871142
C   C137      1.0  0.84130  0.80180  0.99986  1.0000 -0.1298478431
C   C138      1.0  0.15870  0.69820  0.99986  1.0000 -0.1298478431
C   C139      1.0  0.65870  0.80180  0.49986  1.0000 -0.1298478431
C   C140      1.0  0.34130  0.69820  0.49986  1.0000 -0.1298478431
C   C141      1.0  0.78850  0.80030  0.95368  1.0000 -0.1517594195
C   C142      1.0  0.21150  0.69970  0.95368  1.0000 -0.1517594195
C   C143      1.0  0.71150  0.80030  0.45368  1.0000 -0.1517594195
C   C144      1.0  0.28850  0.69970  0.45368  1.0000 -0.1517594195
C   C145      1.0  0.76470  0.86540  0.92757  1.0000 0.0780617645
C   C146      1.0  0.23530  0.63460  0.92757  1.0000 0.0780617645
C   C147      1.0  0.73530  0.86540  0.42757  1.0000 0.0780617645
C   C148      1.0  0.26470  0.63460  0.42757  1.0000 0.0780617645
C   C149      1.0  0.70990  0.80580  0.84520  1.0000 -0.1635780054
C   C150      1.0  0.29010  0.69420  0.84520  1.0000 -0.1635780054
C   C151      1.0  0.79010  0.80580  0.34520  1.0000 -0.1635780054
C   C152      1.0  0.20990  0.69420  0.34520  1.0000 -0.1635780054
C   C153      1.0  0.83840  0.80720  0.29650  1.0000 -0.1095965867
C   C154      1.0  0.16160  0.69280  0.29650  1.0000 -0.1095965867
C   C155      1.0  0.66160  0.80720  0.79650  1.0000 -0.1095965867
C   C156      1.0  0.33840  0.69280  0.79650  1.0000 -0.1095965867
C   C157      1.0  0.66880  0.92440  0.85830  1.0000 -0.1635780054
C   C158      1.0  0.33120  0.57560  0.85830  1.0000 -0.1635780054
C   C159      1.0  0.83120  0.92440  0.35830  1.0000 -0.1635780054
C   C160      1.0  0.16880  0.57560  0.35830  1.0000 -0.1635780054
C   C161      1.0  0.87740  0.92480  0.31000  1.0000 -0.1017394589
C   C162      1.0  0.12260  0.57520  0.31000  1.0000 -0.1017394589
C   C163      1.0  0.62260  0.92480  0.81000  1.0000 -0.1017394589
C   C164      1.0  0.37740  0.57520  0.81000  1.0000 -0.1017394589
C   C165      1.0  0.79730  0.93193  0.94877  1.0000 -0.1517594195
C   C166      1.0  0.20270  0.56807  0.94877  1.0000 -0.1517594195
C   C167      1.0  0.70270  0.93193  0.44877  1.0000 -0.1517594195
C   C168      1.0  0.29730  0.56807  0.44877  1.0000 -0.1517594195
C   C169      1.0  0.85030  0.93338  0.99453  1.0000 -0.1017394589
C   C170      1.0  0.14970  0.56662  0.99453  1.0000 -0.1017394589
C   C171      1.0  0.64970  0.93338  0.49453  1.0000 -0.1017394589
C   C172      1.0  0.35030  0.56662  0.49453  1.0000 -0.1017394589
C   C173      1.0  0.93920  0.86790  0.22943  1.0000 0.5471106135
C   C174      1.0  0.06080  0.63210  0.22943  1.0000 0.5471106135
C   C175      1.0  0.56080  0.86790  0.72943  1.0000 0.5471106135
C   C176      1.0  0.43920  0.63210  0.72943  1.0000 0.5471106135
C   C177      1.0  0.88850  0.86590  0.28130  1.0000 -0.0439428482
C   C178      1.0  0.11150  0.63410  0.28130  1.0000 -0.0439428482
C   C179      1.0  0.61150  0.86590  0.78130  1.0000 -0.0439428482
C   C180      1.0  0.38850  0.63410  0.78130  1.0000 -0.0439428482
C   C181      1.0  0.27370  0.82270  0.15543  1.0000 -0.0625014341
C   C182      1.0  0.72630  0.67730  0.15543  1.0000 -0.0625014341
C   C183      1.0  0.22630  0.82270  0.65543  1.0000 -0.0625014341
C   C184      1.0  0.77370  0.67730  0.65543  1.0000 -0.0625014341
C   C185      1.0  0.34750  0.86770  0.16400  1.0000 -0.1017394589
C   C186      1.0  0.65250  0.63230  0.16400  1.0000 -0.1017394589
C   C187      1.0  0.15250  0.86770  0.66400  1.0000 -0.1017394589
C   C188      1.0  0.84750  0.63230  0.66400  1.0000 -0.1017394589
C   C189      1.0  0.43560  0.83920  0.16620  1.0000 -0.1697959877
C   C190      1.0  0.56440  0.66080  0.16620  1.0000 -0.1697959877
C   C191      1.0  0.06440  0.83920  0.66620  1.0000 -0.1697959877
C   C192      1.0  0.93560  0.66080  0.66620  1.0000 -0.1697959877
C   C193      1.0  0.37740  0.72040  0.15300  1.0000 -0.1517594195
C   C194      1.0  0.62260  0.77960  0.15300  1.0000 -0.1517594195
C   C195      1.0  0.12260  0.72040  0.65300  1.0000 -0.1517594195
C   C196      1.0  0.87740  0.77960  0.65300  1.0000 -0.1517594195
C   C197      1.0  0.28870  0.74890  0.14990  1.0000 -0.1017394589
C   C198      1.0  0.71130  0.75110  0.14990  1.0000 -0.1017394589
C   C199      1.0  0.21130  0.74890  0.64990  1.0000 -0.1017394589
C   C200      1.0  0.78870  0.75110  0.64990  1.0000 -0.1017394589
C   C201      1.0  0.03760  0.17180  0.19308  1.0000 -0.1911318227
C   C202      1.0  0.96240  0.32820  0.19308  1.0000 -0.1911318227
C   C203      1.0  0.46240  0.17180  0.69308  1.0000 -0.1911318227
C   C204      1.0  0.53760  0.32820  0.69308  1.0000 -0.1911318227
C   C205      1.0  0.04680  0.09628  0.19144  1.0000 0.0780617645
C   C206      1.0  0.95320  0.40372  0.19144  1.0000 0.0780617645
C   C207      1.0  0.45320  0.09628  0.69144  1.0000 0.0780617645
C   C208      1.0  0.54680  0.40372  0.69144  1.0000 0.0780617645
N   N1        1.0  0.52590  0.94341  0.35198  1.0000 -0.2326776757
N   N2        1.0  0.47410  0.55659  0.35198  1.0000 -0.2326776757
N   N3        1.0  0.97410  0.94341  0.85198  1.0000 -0.2326776757
N   N4        1.0  0.02590  0.55659  0.85198  1.0000 -0.2326776757
N   N5        1.0  0.02590  0.05659  0.14802  1.0000 -0.2326776757
N   N6        1.0  0.97410  0.44341  0.14802  1.0000 -0.2326776757
N   N7        1.0  0.47410  0.05659  0.64802  1.0000 -0.2326776757
N   N8        1.0  0.52590  0.44341  0.64802  1.0000 -0.2326776757
O   O1        1.0  0.66667  0.07925  0.34732  1.0000 -0.4525424651
O   O2        1.0  0.33333  0.42075  0.34732  1.0000 -0.4525424651
O   O3        1.0  0.83333  0.07925  0.84732  1.0000 -0.4525424651
O   O4        1.0  0.16667  0.42075  0.84732  1.0000 -0.4525424651
O   O5        1.0  0.46685  0.07195  0.41729  1.0000 -0.4899551011
O   O6        1.0  0.53315  0.42805  0.41729  1.0000 -0.4899551011
O   O7        1.0  0.03315  0.07195  0.91729  1.0000 -0.4899551011
O   O8        1.0  0.96685  0.42805  0.91729  1.0000 -0.4899551011
O   O9        1.0  0.47098  0.07410  0.28536  1.0000 -0.4559544734
O   O10       1.0  0.52902  0.42590  0.28536  1.0000 -0.4559544734
O   O11       1.0  0.02902  0.07410  0.78536  1.0000 -0.4559544734
O   O12       1.0  0.97098  0.42590  0.78536  1.0000 -0.4559544734
O   O13       1.0  0.16667  0.92075  0.15268  1.0000 -0.4525424651
O   O14       1.0  0.83333  0.57925  0.15268  1.0000 -0.4525424651
O   O15       1.0  0.33333  0.92075  0.65268  1.0000 -0.4525424651
O   O16       1.0  0.66667  0.57925  0.65268  1.0000 -0.4525424651
O   O17       1.0  0.96685  0.92805  0.08271  1.0000 -0.4899551011
O   O18       1.0  0.03315  0.57195  0.08271  1.0000 -0.4899551011
O   O19       1.0  0.53315  0.92805  0.58271  1.0000 -0.4899551011
O   O20       1.0  0.46685  0.57195  0.58271  1.0000 -0.4899551011
O   O21       1.0  0.97098  0.92590  0.21464  1.0000 -0.4559544734
O   O22       1.0  0.02902  0.57410  0.21464  1.0000 -0.4559544734
O   O23       1.0  0.52902  0.92590  0.71464  1.0000 -0.4559544734
O   O24       1.0  0.47098  0.57410  0.71464  1.0000 -0.4559544734
O   O25       1.0  0.47670  0.19350  0.42175  0.4600 -0.2065842082
O   O26       1.0  0.52330  0.30650  0.42175  0.4600 -0.2065842082
O   O27       1.0  0.02330  0.19350  0.92175  0.4600 -0.2043463624
O   O28       1.0  0.97670  0.30650  0.92175  0.4600 -0.2065842082
O   O29       1.0  0.48890  0.19480  0.28005  0.4600 -0.2603815682
O   O30       1.0  0.51110  0.30520  0.28005  0.4600 -0.2603815682
O   O31       1.0  0.01110  0.19480  0.78005  0.4600 -0.2603815682
O   O32       1.0  0.98890  0.30520  0.78005  0.4600 -0.2603815682
O   O33       1.0  0.61380  0.19000  0.32960  0.4600 -0.1911318227
O   O34       1.0  0.38620  0.31000  0.32960  0.4600 -0.1911318227
O   O35       1.0  0.88620  0.19000  0.82960  0.4600 -0.1911318227
O   O36       1.0  0.11380  0.31000  0.82960  0.4600 -0.1911318227
O   O37       1.0  0.97670  0.80650  0.07825  0.4600 -0.2065842082
O   O38       1.0  0.02330  0.69350  0.07825  0.4600 -0.2065842082
O   O39       1.0  0.52330  0.80650  0.57825  0.4600 -0.2065842082
O   O40       1.0  0.47670  0.69350  0.57825  0.4600 -0.2065842082
O   O41       1.0  0.98890  0.80520  0.21995  0.4600 -0.2603815682
O   O42       1.0  0.01110  0.69480  0.21995  0.4600 -0.2603815682
O   O43       1.0  0.51110  0.80520  0.71995  0.4600 -0.2603815682
O   O44       1.0  0.48890  0.69480  0.71995  0.4600 -0.2603815682
O   O45       1.0  0.11380  0.81000  0.17040  0.4600 -0.1911318227
O   O46       1.0  0.88620  0.69000  0.17040  0.4600 -0.1911318227
O   O47       1.0  0.38620  0.81000  0.67040  0.4600 -0.1911318227
O   O48       1.0  0.61380  0.69000  0.67040  0.4600 -0.1911318227
O   O49       1.0  0.41660  0.18300  0.39510  0.5400 -0.1697959877
O   O50       1.0  0.58340  0.31700  0.39510  0.5400 -0.1697959877
O   O51       1.0  0.08340  0.18300  0.89510  0.5400 -0.1697959877
O   O52       1.0  0.91660  0.31700  0.89510  0.5400 -0.1697959877
O   O53       1.0  0.41080  0.17940  0.30895  0.5400 -0.3294513932
O   O54       1.0  0.58920  0.32060  0.30895  0.5400 -0.3294513932
O   O55       1.0  0.08920  0.17940  0.80895  0.5400 -0.3294513932
O   O56       1.0  0.91080  0.32060  0.80895  0.5400 -0.3294513932
O   O57       1.0  0.61650  0.18450  0.37260  0.5400 -0.1911318227
O   O58       1.0  0.38350  0.31550  0.37260  0.5400 -0.1911318227
O   O59       1.0  0.88350  0.18450  0.87260  0.5400 -0.1911318227
O   O60       1.0  0.11650  0.31550  0.87260  0.5400 -0.1911318227
O   O61       1.0  0.91660  0.81700  0.10490  0.5400 -0.175169561
O   O62       1.0  0.08340  0.68300  0.10490  0.5400 -0.1697959877
O   O63       1.0  0.58340  0.81700  0.60490  0.5400 -0.1697959877
O   O64       1.0  0.41660  0.68300  0.60490  0.5400 -0.1697959877
O   O65       1.0  0.91080  0.82060  0.19105  0.5400 -0.3294513932
O   O66       1.0  0.08920  0.67940  0.19105  0.5400 -0.3294513932
O   O67       1.0  0.58920  0.82060  0.69105  0.5400 -0.3294513932
O   O68       1.0  0.41080  0.67940  0.69105  0.5400 -0.3294513932
O   O69       1.0  0.11650  0.81550  0.12740  0.5400 -0.1911318227
O   O70       1.0  0.88350  0.68450  0.12740  0.5400 -0.1911318227
O   O71       1.0  0.38350  0.81550  0.62740  0.5400 -0.1911318227
O   O72       1.0  0.61650  0.68450  0.62740  0.5400 -0.1911318227
