# DDEC6 charges by PACMAN v1.1 (https://github.com/mtap-research/PACMAN-charge/)
data_ja4012707_si_005_ASR_pacman
_symmetry_space_group_name_H-M   'P 1'
_cell_length_a   12.48150000
_cell_length_b   12.48150000
_cell_length_c   12.48150000
_cell_angle_alpha   90.00000000
_cell_angle_beta   90.00000000
_cell_angle_gamma   90.00000000
_symmetry_Int_Tables_number   1
_chemical_formula_structural   Zn3(C4N3)2
_chemical_formula_sum   'Zn12 C32 N24'
_cell_volume   1944.46595304
_cell_formula_units_Z   4
loop_
 _symmetry_equiv_pos_site_id
 _symmetry_equiv_pos_as_xyz
  1  'x, y, z'
loop_
 _atom_site_type_symbol
 _atom_site_label
 _atom_site_symmetry_multiplicity
 _atom_site_fract_x
 _atom_site_fract_y
 _atom_site_fract_z
 _atom_site_occupancy
 _atom_site_charge
Zn  Zn1  1  0.10819000  0.10819000  0.10819000  1.0 0.8872174393
Zn  Zn2  1  0.39181000  0.89181000  0.60819000  1.0 0.8872174393
Zn  Zn3  1  0.89181000  0.60819000  0.39181000  1.0 0.8872174393
Zn  Zn4  1  0.60819000  0.39181000  0.89181000  1.0 0.8872174393
Zn  Zn5  1  0.89181000  0.89181000  0.89181000  1.0 0.8872174393
Zn  Zn6  1  0.60819000  0.10819000  0.39181000  1.0 0.8872174393
Zn  Zn7  1  0.10819000  0.39181000  0.60819000  1.0 0.8872174393
Zn  Zn8  1  0.39181000  0.60819000  0.10819000  1.0 0.8872174393
Zn  Zn9  1  0.50000000  0.50000000  0.50000000  1.0 -0.2420823951
Zn  Zn10  1  0.00000000  0.50000000  0.00000000  1.0 -0.2420823951
Zn  Zn11  1  0.50000000  0.00000000  0.00000000  1.0 -0.2420823951
Zn  Zn12  1  0.00000000  0.00000000  0.50000000  1.0 -0.2420823951
C  C1  1  0.04880000  0.34090000  0.06810000  1.0 0.2098327647
C  C2  1  0.45120000  0.65910000  0.56810000  1.0 0.2098327647
C  C3  1  0.95120000  0.84090000  0.43190000  1.0 0.2098327647
C  C4  1  0.54880000  0.15910000  0.93190000  1.0 0.2098327647
C  C5  1  0.06810000  0.04880000  0.34090000  1.0 0.2098327647
C  C6  1  0.56810000  0.45120000  0.65910000  1.0 0.2098327647
C  C7  1  0.43190000  0.95120000  0.84090000  1.0 0.2098327647
C  C8  1  0.93190000  0.54880000  0.15910000  1.0 0.2098327647
C  C9  1  0.34090000  0.06810000  0.04880000  1.0 0.2098327647
C  C10  1  0.65910000  0.56810000  0.45120000  1.0 0.2098327647
C  C11  1  0.84090000  0.43190000  0.95120000  1.0 0.2098327647
C  C12  1  0.15910000  0.93190000  0.54880000  1.0 0.2098327647
C  C13  1  0.95120000  0.65910000  0.93190000  1.0 0.2098327647
C  C14  1  0.54880000  0.34090000  0.43190000  1.0 0.2098327647
C  C15  1  0.04880000  0.15910000  0.56810000  1.0 0.2098327647
C  C16  1  0.45120000  0.84090000  0.06810000  1.0 0.2098327647
C  C17  1  0.93190000  0.95120000  0.65910000  1.0 0.2098327647
C  C18  1  0.43190000  0.54880000  0.34090000  1.0 0.2098327647
C  C19  1  0.56810000  0.04880000  0.15910000  1.0 0.2098327647
C  C20  1  0.06810000  0.45120000  0.84090000  1.0 0.2098327647
C  C21  1  0.65910000  0.93190000  0.95120000  1.0 0.2098327647
C  C22  1  0.34090000  0.43190000  0.54880000  1.0 0.2098327647
C  C23  1  0.15910000  0.56810000  0.04880000  1.0 0.2098327647
C  C24  1  0.84090000  0.06810000  0.45120000  1.0 0.2098327647
C  C25  1  0.02620000  0.02620000  0.02620000  1.0 -0.3229392697
C  C26  1  0.47380000  0.97380000  0.52620000  1.0 -0.3229392697
C  C27  1  0.97380000  0.52620000  0.47380000  1.0 -0.3229392697
C  C28  1  0.52620000  0.47380000  0.97380000  1.0 -0.3229392697
C  C29  1  0.97380000  0.97380000  0.97380000  1.0 -0.3229392697
C  C30  1  0.52620000  0.02620000  0.47380000  1.0 -0.3229392697
C  C31  1  0.02620000  0.47380000  0.52620000  1.0 -0.3229392697
C  C32  1  0.47380000  0.52620000  0.02620000  1.0 -0.3229392697
N  N1  1  0.07420000  0.25940000  0.08820000  1.0 -0.3575784221
N  N2  1  0.42580000  0.74060000  0.58820000  1.0 -0.3575784221
N  N3  1  0.92580000  0.75940000  0.41180000  1.0 -0.3575784221
N  N4  1  0.57420000  0.24060000  0.91180000  1.0 -0.3575784221
N  N5  1  0.08820000  0.07420000  0.25940000  1.0 -0.3575784221
N  N6  1  0.58820000  0.42580000  0.74060000  1.0 -0.3575784221
N  N7  1  0.41180000  0.92580000  0.75940000  1.0 -0.3575784221
N  N8  1  0.91180000  0.57420000  0.24060000  1.0 -0.3575784221
N  N9  1  0.25940000  0.08820000  0.07420000  1.0 -0.3575784221
N  N10  1  0.74060000  0.58820000  0.42580000  1.0 -0.3575784221
N  N11  1  0.75940000  0.41180000  0.92580000  1.0 -0.3575784221
N  N12  1  0.24060000  0.91180000  0.57420000  1.0 -0.3575784221
N  N13  1  0.92580000  0.74060000  0.91180000  1.0 -0.3575784221
N  N14  1  0.57420000  0.25940000  0.41180000  1.0 -0.3575784221
N  N15  1  0.07420000  0.24060000  0.58820000  1.0 -0.3575784221
N  N16  1  0.42580000  0.75940000  0.08820000  1.0 -0.3575784221
N  N17  1  0.91180000  0.92580000  0.74060000  1.0 -0.3575784221
N  N18  1  0.41180000  0.57420000  0.25940000  1.0 -0.3575784221
N  N19  1  0.58820000  0.07420000  0.24060000  1.0 -0.3575784221
N  N20  1  0.08820000  0.42580000  0.75940000  1.0 -0.3575784221
N  N21  1  0.74060000  0.91180000  0.92580000  1.0 -0.3575784221
N  N22  1  0.25940000  0.41180000  0.57420000  1.0 -0.3575784221
N  N23  1  0.24060000  0.58820000  0.07420000  1.0 -0.3575784221
N  N24  1  0.75940000  0.08820000  0.42580000  1.0 -0.3575784221
