# DDEC6 charges by PACMAN v1.1 (https://github.com/mtap-research/PACMAN-charge/)
data_2024[Zn][crb]3[ASR]15
_chemical_formula_sum              "Zn16 H96 C96 N64"
_cell_length_a       9.63356
_cell_length_b       24.0923
_cell_length_c       24.4097
_cell_angle_alpha    90
_cell_angle_beta     90
_cell_angle_gamma    90

_symmetry_space_group_name_H-M    "P 1"
_symmetry_Int_Tables_number       1

loop_
  _symmetry_equiv_pos_as_xyz
  'x, y, z'

loop_
  _atom_site_type_symbol
  _atom_site_label
  _atom_site_symmetry_multiplicity
  _atom_site_fract_x
  _atom_site_fract_y
  _atom_site_fract_z
  _atom_site_occupancy
  _atom_site_charge
Zn  Zn1       1.0  0.01228  0.17442  0.50141  1.0000 0.6153064335
Zn  Zn2       1.0  0.51228  0.32558  0.49859  1.0000 0.6153064335
Zn  Zn3       1.0  0.98772  0.67442  0.99859  1.0000 0.6153064335
Zn  Zn4       1.0  0.48772  0.82558  0.00141  1.0000 0.6153064335
Zn  Zn5       1.0  0.98772  0.82558  0.49859  1.0000 0.6153064335
Zn  Zn6       1.0  0.48772  0.67442  0.50141  1.0000 0.6153064335
Zn  Zn7       1.0  0.01228  0.32558  0.00141  1.0000 0.6153064335
Zn  Zn8       1.0  0.51228  0.17442  0.99859  1.0000 0.6153064335
Zn  Zn9       1.0  0.00268  0.00175  0.32394  1.0000 0.6153064335
Zn  Zn10      1.0  0.50268  0.49825  0.67606  1.0000 0.6153064335
Zn  Zn11      1.0  0.99732  0.50175  0.17606  1.0000 0.6153064335
Zn  Zn12      1.0  0.49732  0.99825  0.82394  1.0000 0.6153064335
Zn  Zn13      1.0  0.99732  0.99825  0.67606  1.0000 0.6153064335
Zn  Zn14      1.0  0.49732  0.50175  0.32394  1.0000 0.6153064335
Zn  Zn15      1.0  0.00268  0.49825  0.82394  1.0000 0.6153064335
Zn  Zn16      1.0  0.50268  0.00175  0.17606  1.0000 0.6153064335
H   H1        1.0  0.75490  0.33720  0.40880  1.0000 0.1007679183
H   H2        1.0  0.25490  0.16280  0.59120  1.0000 0.1007679183
H   H3        1.0  0.24510  0.83720  0.09120  1.0000 0.1007679183
H   H4        1.0  0.74510  0.66280  0.90880  1.0000 0.1007679183
H   H5        1.0  0.24510  0.66280  0.59120  1.0000 0.1007679183
H   H6        1.0  0.74510  0.83720  0.40880  1.0000 0.1007679183
H   H7        1.0  0.75490  0.16280  0.90880  1.0000 0.1007679183
H   H8        1.0  0.25490  0.33720  0.09120  1.0000 0.1007679183
H   H9        1.0  0.48990  0.94580  0.29340  1.0000 0.1007679183
H   H10       1.0  0.98990  0.55420  0.70660  1.0000 0.1007679183
H   H11       1.0  0.51010  0.44580  0.20660  1.0000 0.1007679183
H   H12       1.0  0.01010  0.05420  0.79340  1.0000 0.1007679183
H   H13       1.0  0.51010  0.05420  0.70660  1.0000 0.1007679183
H   H14       1.0  0.01010  0.44580  0.29340  1.0000 0.1007679183
H   H15       1.0  0.48990  0.55420  0.79340  1.0000 0.1007679183
H   H16       1.0  0.98990  0.94580  0.20660  1.0000 0.1007679183
H   H17       1.0  0.96240  0.05190  0.44450  1.0000 0.0742660138
H   H18       1.0  0.46240  0.44810  0.55550  1.0000 0.0742660138
H   H19       1.0  0.03760  0.55190  0.05550  1.0000 0.0742660138
H   H20       1.0  0.53760  0.94810  0.94450  1.0000 0.0742660138
H   H21       1.0  0.03760  0.94810  0.55550  1.0000 0.0742660138
H   H22       1.0  0.53760  0.55190  0.44450  1.0000 0.0742660138
H   H23       1.0  0.96240  0.44810  0.94450  1.0000 0.0742660138
H   H24       1.0  0.46240  0.05190  0.05550  1.0000 0.0742660138
H   H25       1.0  0.20500  0.81930  0.39840  1.0000 0.1007679183
H   H26       1.0  0.70500  0.68070  0.60160  1.0000 0.1007679183
H   H27       1.0  0.79500  0.31930  0.10160  1.0000 0.1007679183
H   H28       1.0  0.29500  0.18070  0.89840  1.0000 0.1007679183
H   H29       1.0  0.79500  0.18070  0.60160  1.0000 0.1007679183
H   H30       1.0  0.29500  0.31930  0.39840  1.0000 0.1007679183
H   H31       1.0  0.20500  0.68070  0.89840  1.0000 0.1007679183
H   H32       1.0  0.70500  0.81930  0.10160  1.0000 0.1007679183
H   H33       1.0  0.14100  0.12110  0.30460  1.0000 0.1007679183
H   H34       1.0  0.64100  0.37890  0.69540  1.0000 0.1007679183
H   H35       1.0  0.85900  0.62110  0.19540  1.0000 0.1007679183
H   H36       1.0  0.35900  0.87890  0.80460  1.0000 0.1007679183
H   H37       1.0  0.85900  0.87890  0.69540  1.0000 0.1007679183
H   H38       1.0  0.35900  0.62110  0.30460  1.0000 0.1007679183
H   H39       1.0  0.14100  0.37890  0.80460  1.0000 0.1007679183
H   H40       1.0  0.64100  0.12110  0.19540  1.0000 0.1007679183
H   H41       1.0  0.14600  0.19750  0.38970  1.0000 0.0918276358
H   H42       1.0  0.64600  0.30250  0.61030  1.0000 0.0918276358
H   H43       1.0  0.85400  0.69750  0.11030  1.0000 0.0918276358
H   H44       1.0  0.35400  0.80250  0.88970  1.0000 0.0918276358
H   H45       1.0  0.85400  0.80250  0.61030  1.0000 0.0918276358
H   H46       1.0  0.35400  0.69750  0.38970  1.0000 0.0918276358
H   H47       1.0  0.14600  0.30250  0.88970  1.0000 0.0918276358
H   H48       1.0  0.64600  0.19750  0.11030  1.0000 0.0918276358
H   H49       1.0  0.91940  0.94180  0.43980  1.0000 0.0742660138
H   H50       1.0  0.41940  0.55820  0.56020  1.0000 0.0742660138
H   H51       1.0  0.08060  0.44180  0.06020  1.0000 0.0742660138
H   H52       1.0  0.58060  0.05820  0.93980  1.0000 0.0742660138
H   H53       1.0  0.08060  0.05820  0.56020  1.0000 0.0742660138
H   H54       1.0  0.58060  0.44180  0.43980  1.0000 0.0742660138
H   H55       1.0  0.91940  0.55820  0.93980  1.0000 0.0742660138
H   H56       1.0  0.41940  0.94180  0.06020  1.0000 0.0742660138
H   H57       1.0  0.19800  0.89710  0.31800  1.0000 0.1054595301
H   H58       1.0  0.69800  0.60290  0.68200  1.0000 0.1054595301
H   H59       1.0  0.80200  0.39710  0.18200  1.0000 0.1054595301
H   H60       1.0  0.30200  0.10290  0.81800  1.0000 0.1054595301
H   H61       1.0  0.80200  0.10290  0.68200  1.0000 0.1054595301
H   H62       1.0  0.30200  0.39710  0.31800  1.0000 0.1054595301
H   H63       1.0  0.19800  0.60290  0.81800  1.0000 0.1054595301
H   H64       1.0  0.69800  0.89710  0.18200  1.0000 0.1054595301
H   H65       1.0  0.71350  0.22570  0.53830  1.0000 0.0511196406
H   H66       1.0  0.21350  0.27430  0.46170  1.0000 0.0511196406
H   H67       1.0  0.28650  0.72570  0.96170  1.0000 0.0511196406
H   H68       1.0  0.78650  0.77430  0.03830  1.0000 0.0511196406
H   H69       1.0  0.28650  0.77430  0.46170  1.0000 0.0511196406
H   H70       1.0  0.78650  0.72570  0.53830  1.0000 0.0511196406
H   H71       1.0  0.71350  0.27430  0.03830  1.0000 0.0511196406
H   H72       1.0  0.21350  0.22570  0.96170  1.0000 0.0511196406
H   H73       1.0  0.98540  0.27050  0.41150  1.0000 0.0918276358
H   H74       1.0  0.48540  0.22950  0.58850  1.0000 0.0918276358
H   H75       1.0  0.01460  0.77050  0.08850  1.0000 0.0918276358
H   H76       1.0  0.51460  0.72950  0.91150  1.0000 0.0918276358
H   H77       1.0  0.01460  0.72950  0.58850  1.0000 0.0918276358
H   H78       1.0  0.51460  0.77050  0.41150  1.0000 0.0918276358
H   H79       1.0  0.98540  0.22950  0.91150  1.0000 0.0918276358
H   H80       1.0  0.48540  0.27050  0.08850  1.0000 0.0918276358
H   H81       1.0  0.71610  0.94880  0.36340  1.0000 0.1007679183
H   H82       1.0  0.21610  0.55120  0.63660  1.0000 0.1007679183
H   H83       1.0  0.28390  0.44880  0.13660  1.0000 0.1007679183
H   H84       1.0  0.78390  0.05120  0.86340  1.0000 0.1007679183
H   H85       1.0  0.28390  0.05120  0.63660  1.0000 0.1007679183
H   H86       1.0  0.78390  0.44880  0.36340  1.0000 0.1007679183
H   H87       1.0  0.71610  0.55120  0.86340  1.0000 0.1007679183
H   H88       1.0  0.21610  0.94880  0.13660  1.0000 0.1007679183
H   H89       1.0  0.80720  0.03770  0.22150  1.0000 0.0789256991
H   H90       1.0  0.30720  0.46230  0.77850  1.0000 0.0789256991
H   H91       1.0  0.19280  0.53770  0.27850  1.0000 0.0789256991
H   H92       1.0  0.69280  0.96230  0.72150  1.0000 0.0789256991
H   H93       1.0  0.19280  0.96230  0.77850  1.0000 0.0789256991
H   H94       1.0  0.69280  0.53770  0.22150  1.0000 0.0789256991
H   H95       1.0  0.80720  0.46230  0.72150  1.0000 0.0789256991
H   H96       1.0  0.30720  0.03770  0.27850  1.0000 0.0789256991
C   C1        1.0  0.78047  0.30481  0.43655  1.0000 -0.0613444555
C   C2        1.0  0.28047  0.19519  0.56345  1.0000 -0.0613444555
C   C3        1.0  0.21953  0.80481  0.06345  1.0000 -0.0613444555
C   C4        1.0  0.71953  0.69519  0.93655  1.0000 -0.0613444555
C   C5        1.0  0.21953  0.69519  0.56345  1.0000 -0.0613444555
C   C6        1.0  0.71953  0.80481  0.43655  1.0000 -0.0613444555
C   C7        1.0  0.78047  0.19519  0.93655  1.0000 -0.0613444555
C   C8        1.0  0.28047  0.30481  0.06345  1.0000 -0.0613444555
C   C9        1.0  0.58855  0.96600  0.28955  1.0000 -0.0693996147
C   C10       1.0  0.08855  0.53400  0.71045  1.0000 -0.0693996147
C   C11       1.0  0.41145  0.46600  0.21045  1.0000 -0.0693996147
C   C12       1.0  0.91145  0.03400  0.78955  1.0000 -0.0693996147
C   C13       1.0  0.41145  0.03400  0.71045  1.0000 -0.0693996147
C   C14       1.0  0.91145  0.46600  0.28955  1.0000 -0.0693996147
C   C15       1.0  0.58855  0.53400  0.78955  1.0000 -0.0693996147
C   C16       1.0  0.08855  0.96600  0.21045  1.0000 -0.0693996147
C   C17       1.0  0.01493  0.08043  0.41800  1.0000 0.131597167
C   C18       1.0  0.51493  0.41957  0.58200  1.0000 0.131597167
C   C19       1.0  0.98507  0.58043  0.08200  1.0000 0.131597167
C   C20       1.0  0.48507  0.91957  0.91800  1.0000 0.131597167
C   C21       1.0  0.98507  0.91957  0.58200  1.0000 0.131597167
C   C22       1.0  0.48507  0.58043  0.41800  1.0000 0.131597167
C   C23       1.0  0.01493  0.41957  0.91800  1.0000 0.131597167
C   C24       1.0  0.51493  0.08043  0.08200  1.0000 0.131597167
C   C25       1.0  0.14331  0.85561  0.39557  1.0000 -0.0693996147
C   C26       1.0  0.64331  0.64439  0.60443  1.0000 -0.0693996147
C   C27       1.0  0.85669  0.35561  0.10443  1.0000 -0.0693996147
C   C28       1.0  0.35669  0.14439  0.89557  1.0000 -0.0693996147
C   C29       1.0  0.85669  0.14439  0.60443  1.0000 -0.0693996147
C   C30       1.0  0.35669  0.35561  0.39557  1.0000 -0.0693996147
C   C31       1.0  0.14331  0.64439  0.89557  1.0000 -0.0693996147
C   C32       1.0  0.64331  0.85561  0.10443  1.0000 -0.0693996147
C   C33       1.0  0.10544  0.11765  0.34610  1.0000 -0.0693996147
C   C34       1.0  0.60544  0.38235  0.65390  1.0000 -0.0693996147
C   C35       1.0  0.89456  0.61765  0.15390  1.0000 -0.0693996147
C   C36       1.0  0.39456  0.88235  0.84610  1.0000 -0.0693996147
C   C37       1.0  0.89456  0.88235  0.65390  1.0000 -0.0693996147
C   C38       1.0  0.39456  0.61765  0.34610  1.0000 -0.0693996147
C   C39       1.0  0.10544  0.38235  0.84610  1.0000 -0.0693996147
C   C40       1.0  0.60544  0.11765  0.15390  1.0000 -0.0693996147
C   C41       1.0  0.10922  0.15531  0.38792  1.0000 -0.0613444555
C   C42       1.0  0.60922  0.34469  0.61208  1.0000 -0.0613444555
C   C43       1.0  0.89078  0.65531  0.11208  1.0000 -0.0613444555
C   C44       1.0  0.39078  0.84469  0.88792  1.0000 -0.0613444555
C   C45       1.0  0.89078  0.84469  0.61208  1.0000 -0.0613444555
C   C46       1.0  0.39078  0.65531  0.38792  1.0000 -0.0613444555
C   C47       1.0  0.10922  0.34469  0.88792  1.0000 -0.0613444555
C   C48       1.0  0.60922  0.15531  0.11208  1.0000 -0.0613444555
C   C49       1.0  0.99546  0.91857  0.41783  1.0000 0.1182888711
C   C50       1.0  0.49546  0.58143  0.58217  1.0000 0.1182888711
C   C51       1.0  0.00454  0.41857  0.08217  1.0000 0.1182888711
C   C52       1.0  0.50454  0.08143  0.91783  1.0000 0.1182888711
C   C53       1.0  0.00454  0.08143  0.58217  1.0000 0.1182888711
C   C54       1.0  0.50454  0.41857  0.41783  1.0000 0.1182888711
C   C55       1.0  0.99546  0.58143  0.91783  1.0000 0.1182888711
C   C56       1.0  0.49546  0.91857  0.08217  1.0000 0.1182888711
C   C57       1.0  0.14189  0.89520  0.35535  1.0000 -0.0613444555
C   C58       1.0  0.64189  0.60480  0.64465  1.0000 -0.0613444555
C   C59       1.0  0.85811  0.39520  0.14465  1.0000 -0.0613444555
C   C60       1.0  0.35811  0.10480  0.85535  1.0000 -0.0613444555
C   C61       1.0  0.85811  0.10480  0.64465  1.0000 -0.0613444555
C   C62       1.0  0.35811  0.39520  0.35535  1.0000 -0.0613444555
C   C63       1.0  0.14189  0.60480  0.85535  1.0000 -0.0613444555
C   C64       1.0  0.64189  0.89520  0.14465  1.0000 -0.0613444555
C   C65       1.0  0.75586  0.24740  0.50264  1.0000 0.1439922491
C   C66       1.0  0.25586  0.25260  0.49736  1.0000 0.1439922491
C   C67       1.0  0.24414  0.74740  0.99736  1.0000 0.1439922491
C   C68       1.0  0.74414  0.75260  0.00264  1.0000 0.1439922491
C   C69       1.0  0.24414  0.75260  0.49736  1.0000 0.1439922491
C   C70       1.0  0.74414  0.74740  0.50264  1.0000 0.1439922491
C   C71       1.0  0.75586  0.25260  0.00264  1.0000 0.1439922491
C   C72       1.0  0.25586  0.24740  0.99736  1.0000 0.1439922491
C   C73       1.0  0.89493  0.27102  0.43824  1.0000 -0.0613444555
C   C74       1.0  0.39493  0.22898  0.56176  1.0000 -0.0613444555
C   C75       1.0  0.10507  0.77102  0.06176  1.0000 -0.0613444555
C   C76       1.0  0.60507  0.72898  0.93824  1.0000 -0.0613444555
C   C77       1.0  0.10507  0.72898  0.56176  1.0000 -0.0613444555
C   C78       1.0  0.60507  0.77102  0.43824  1.0000 -0.0613444555
C   C79       1.0  0.89493  0.22898  0.93824  1.0000 -0.0613444555
C   C80       1.0  0.39493  0.27102  0.06176  1.0000 -0.0613444555
C   C81       1.0  0.70158  0.96610  0.32350  1.0000 -0.0693996147
C   C82       1.0  0.20158  0.53390  0.67650  1.0000 -0.0693996147
C   C83       1.0  0.29842  0.46610  0.17650  1.0000 -0.0693996147
C   C84       1.0  0.79842  0.03390  0.82350  1.0000 -0.0693996147
C   C85       1.0  0.29842  0.03390  0.67650  1.0000 -0.0693996147
C   C86       1.0  0.79842  0.46610  0.32350  1.0000 -0.0693996147
C   C87       1.0  0.70158  0.53390  0.82350  1.0000 -0.0693996147
C   C88       1.0  0.20158  0.96610  0.17650  1.0000 -0.0693996147
C   C89       1.0  0.75240  0.01237  0.25078  1.0000 0.131597167
C   C90       1.0  0.25240  0.48763  0.74922  1.0000 0.131597167
C   C91       1.0  0.24760  0.51237  0.24922  1.0000 0.131597167
C   C92       1.0  0.74760  0.98763  0.75078  1.0000 0.131597167
C   C93       1.0  0.24760  0.98763  0.74922  1.0000 0.131597167
C   C94       1.0  0.74760  0.51237  0.25078  1.0000 0.131597167
C   C95       1.0  0.75240  0.48763  0.75078  1.0000 0.131597167
C   C96       1.0  0.25240  0.01237  0.24922  1.0000 0.131597167
N   N1        1.0  0.04544  0.06989  0.36559  1.0000 -0.2967294192
N   N2        1.0  0.54544  0.43011  0.63441  1.0000 -0.2967294192
N   N3        1.0  0.95456  0.56989  0.13441  1.0000 -0.2967294192
N   N4        1.0  0.45456  0.93011  0.86559  1.0000 -0.2967294192
N   N5        1.0  0.95456  0.93011  0.63441  1.0000 -0.2967294192
N   N6        1.0  0.45456  0.56989  0.36559  1.0000 -0.2967294192
N   N7        1.0  0.04544  0.43011  0.86559  1.0000 -0.2967294192
N   N8        1.0  0.54544  0.06989  0.13441  1.0000 -0.2967294192
N   N9        1.0  0.87854  0.23459  0.48072  1.0000 -0.2848722672
N   N10       1.0  0.37854  0.26541  0.51928  1.0000 -0.2873829056
N   N11       1.0  0.12146  0.73459  0.01928  1.0000 -0.2873829056
N   N12       1.0  0.62146  0.76541  0.98072  1.0000 -0.2848722672
N   N13       1.0  0.12146  0.76541  0.51928  1.0000 -0.2873829056
N   N14       1.0  0.62146  0.73459  0.48072  1.0000 -0.2848722672
N   N15       1.0  0.87854  0.26541  0.98072  1.0000 -0.2848722672
N   N16       1.0  0.37854  0.23459  0.01928  1.0000 -0.2873829056
N   N17       1.0  0.69238  0.28967  0.47778  1.0000 -0.2873829056
N   N18       1.0  0.19238  0.21033  0.52222  1.0000 -0.2873829056
N   N19       1.0  0.30762  0.78967  0.02222  1.0000 -0.2873829056
N   N20       1.0  0.80762  0.71033  0.97778  1.0000 -0.2873829056
N   N21       1.0  0.30762  0.71033  0.52222  1.0000 -0.2873829056
N   N22       1.0  0.80762  0.78967  0.47778  1.0000 -0.2873829056
N   N23       1.0  0.69238  0.21033  0.97778  1.0000 -0.2873829056
N   N24       1.0  0.19238  0.28967  0.02222  1.0000 -0.2873829056
N   N25       1.0  0.04722  0.93512  0.36968  1.0000 -0.2848722672
N   N26       1.0  0.54722  0.56488  0.63032  1.0000 -0.2848722672
N   N27       1.0  0.95278  0.43512  0.13032  1.0000 -0.2848722672
N   N28       1.0  0.45278  0.06488  0.86968  1.0000 -0.2848722672
N   N29       1.0  0.95278  0.06488  0.63032  1.0000 -0.2848722672
N   N30       1.0  0.45278  0.43512  0.36968  1.0000 -0.2848722672
N   N31       1.0  0.04722  0.56488  0.86968  1.0000 -0.2848722672
N   N32       1.0  0.54722  0.93512  0.13032  1.0000 -0.2848722672
N   N33       1.0  0.05135  0.13150  0.43335  1.0000 -0.2873829056
N   N34       1.0  0.55135  0.36850  0.56665  1.0000 -0.2873829056
N   N35       1.0  0.94865  0.63150  0.06665  1.0000 -0.2873829056
N   N36       1.0  0.44865  0.86850  0.93335  1.0000 -0.2873829056
N   N37       1.0  0.94865  0.86850  0.56665  1.0000 -0.2873829056
N   N38       1.0  0.44865  0.63150  0.43335  1.0000 -0.2873829056
N   N39       1.0  0.05135  0.36850  0.93335  1.0000 -0.2873829056
N   N40       1.0  0.55135  0.13150  0.06665  1.0000 -0.2873829056
N   N41       1.0  0.04936  0.87054  0.43520  1.0000 -0.2873829056
N   N42       1.0  0.54936  0.62946  0.56480  1.0000 -0.2873829056
N   N43       1.0  0.95064  0.37054  0.06480  1.0000 -0.2873829056
N   N44       1.0  0.45064  0.12946  0.93520  1.0000 -0.2873829056
N   N45       1.0  0.95064  0.12946  0.56480  1.0000 -0.2873829056
N   N46       1.0  0.45064  0.37054  0.43520  1.0000 -0.2873829056
N   N47       1.0  0.04936  0.62946  0.93520  1.0000 -0.2873829056
N   N48       1.0  0.54936  0.87054  0.06480  1.0000 -0.2873829056
N   N49       1.0  0.12162  0.99573  0.25681  1.0000 -0.2873829056
N   N50       1.0  0.62162  0.50427  0.74319  1.0000 -0.2873829056
N   N51       1.0  0.87838  0.49573  0.24319  1.0000 -0.2873829056
N   N52       1.0  0.37838  0.00427  0.75681  1.0000 -0.2873829056
N   N53       1.0  0.87838  0.00427  0.74319  1.0000 -0.2873829056
N   N54       1.0  0.37838  0.49573  0.25681  1.0000 -0.2873829056
N   N55       1.0  0.12162  0.50427  0.75681  1.0000 -0.2873829056
N   N56       1.0  0.62162  0.99573  0.24319  1.0000 -0.2873829056
N   N57       1.0  0.80580  0.99557  0.29853  1.0000 -0.2873829056
N   N58       1.0  0.30580  0.50443  0.70147  1.0000 -0.2873829056
N   N59       1.0  0.19420  0.49557  0.20147  1.0000 -0.2873829056
N   N60       1.0  0.69420  0.00443  0.79853  1.0000 -0.2873829056
N   N61       1.0  0.19420  0.00443  0.70147  1.0000 -0.2873829056
N   N62       1.0  0.69420  0.49557  0.29853  1.0000 -0.2873829056
N   N63       1.0  0.80580  0.50443  0.79853  1.0000 -0.2873829056
N   N64       1.0  0.30580  0.99557  0.20147  1.0000 -0.2873829056
