# DDEC6 charges by PACMAN v1.1 (https://github.com/mtap-research/PACMAN-charge/)
data_2017[Al][skl]3[FSR]7
_chemical_formula_sum              "Al16 H168 C272 O80"
_cell_length_a       19.185
_cell_length_b       19.185
_cell_length_c       36.72
_cell_angle_alpha    90
_cell_angle_beta     90
_cell_angle_gamma    90

_symmetry_space_group_name_H-M    "P 1"
_symmetry_Int_Tables_number       1

loop_
  _symmetry_equiv_pos_as_xyz
  'x, y, z'

loop_
  _atom_site_type_symbol
  _atom_site_label
  _atom_site_symmetry_multiplicity
  _atom_site_fract_x
  _atom_site_fract_y
  _atom_site_fract_z
  _atom_site_occupancy
  _atom_site_charge
Al  Al1       1.0  0.66364  0.33636  0.50000  1.0000 1.6477018585
Al  Al2       1.0  0.16364  0.16364  0.00000  1.0000 1.6477018585
Al  Al3       1.0  0.33636  0.66364  0.50000  1.0000 1.6477018585
Al  Al4       1.0  0.83636  0.83636  0.00000  1.0000 1.6477018585
Al  Al5       1.0  0.62142  0.39299  0.41699  1.0000 1.6477018585
Al  Al6       1.0  0.10701  0.12142  0.91699  1.0000 1.6477018585
Al  Al7       1.0  0.37858  0.60701  0.41699  1.0000 1.6477018585
Al  Al8       1.0  0.89299  0.87858  0.91699  1.0000 1.6477018585
Al  Al9       1.0  0.12142  0.10701  0.08301  1.0000 1.6477018585
Al  Al10      1.0  0.87858  0.89299  0.08301  1.0000 1.6477018585
Al  Al11      1.0  0.39299  0.62142  0.58301  1.0000 1.6477018585
Al  Al12      1.0  0.60701  0.37858  0.58301  1.0000 1.6477018585
Al  Al13      1.0  0.50000  0.50000  0.38463  1.0000 1.6477018585
Al  Al14      1.0  0.00000  0.00000  0.88463  1.0000 1.6477018585
Al  Al15      1.0  0.00000  0.00000  0.11537  1.0000 1.6477018585
Al  Al16      1.0  0.50000  0.50000  0.61537  1.0000 1.6477018585
H   H1        1.0  0.57480  0.50280  0.43760  1.0000 0.4240434532
H   H2        1.0  0.99720  0.07480  0.93760  1.0000 0.4240434532
H   H3        1.0  0.42520  0.49720  0.43760  1.0000 0.4240434532
H   H4        1.0  0.00280  0.92520  0.93760  1.0000 0.4240434532
H   H5        1.0  0.07480  0.99720  0.06240  1.0000 0.4240434532
H   H6        1.0  0.92520  0.00280  0.06240  1.0000 0.4240434532
H   H7        1.0  0.50280  0.57480  0.56240  1.0000 0.4240434532
H   H8        1.0  0.49720  0.42520  0.56240  1.0000 0.4240434532
H   H9        1.0  0.55600  0.37210  0.47220  1.0000 0.4240434532
H   H10       1.0  0.12790  0.05600  0.97220  1.0000 0.4240434532
H   H11       1.0  0.44400  0.62790  0.47220  1.0000 0.4240434532
H   H12       1.0  0.87210  0.94400  0.97220  1.0000 0.4240434532
H   H13       1.0  0.05600  0.12790  0.02780  1.0000 0.4240434532
H   H14       1.0  0.94400  0.87210  0.02780  1.0000 0.4240434532
H   H15       1.0  0.37210  0.55600  0.52780  1.0000 0.4240434532
H   H16       1.0  0.62790  0.44400  0.52780  1.0000 0.4240434532
H   H17       1.0  0.78890  0.63240  0.16760  1.0000 0.1108900276
H   H18       1.0  0.86760  0.28890  0.66760  1.0000 0.1108900276
H   H19       1.0  0.21110  0.36760  0.16760  1.0000 0.1108900276
H   H20       1.0  0.13240  0.71110  0.66760  1.0000 0.1108900276
H   H21       1.0  0.28890  0.86760  0.33240  1.0000 0.1108900276
H   H22       1.0  0.71110  0.13240  0.33240  1.0000 0.1108900276
H   H23       1.0  0.63240  0.78890  0.83240  1.0000 0.1108900276
H   H24       1.0  0.36760  0.21110  0.83240  1.0000 0.1108900276
H   H25       1.0  0.77970  0.63460  0.04310  1.0000 0.1302055878
H   H26       1.0  0.86540  0.27970  0.54310  1.0000 0.1302055878
H   H27       1.0  0.22030  0.36540  0.04310  1.0000 0.1302055878
H   H28       1.0  0.13460  0.72030  0.54310  1.0000 0.1302055878
H   H29       1.0  0.27970  0.86540  0.45690  1.0000 0.1302055878
H   H30       1.0  0.72030  0.13460  0.45690  1.0000 0.1302055878
H   H31       1.0  0.63460  0.77970  0.95690  1.0000 0.1302055878
H   H32       1.0  0.36540  0.22030  0.95690  1.0000 0.1302055878
H   H33       1.0  0.79470  0.73680  0.13620  1.0000 0.1374866953
H   H34       1.0  0.76320  0.29470  0.63620  1.0000 0.1374866953
H   H35       1.0  0.20530  0.26320  0.13620  1.0000 0.1374866953
H   H36       1.0  0.23680  0.70530  0.63620  1.0000 0.1374866953
H   H37       1.0  0.29470  0.76320  0.36380  1.0000 0.1374866953
H   H38       1.0  0.70530  0.23680  0.36380  1.0000 0.1374866953
H   H39       1.0  0.73680  0.79470  0.86380  1.0000 0.1374866953
H   H40       1.0  0.26320  0.20530  0.86380  1.0000 0.1374866953
H   H41       1.0  0.76540  0.53090  0.07320  1.0000 0.1179268478
H   H42       1.0  0.96910  0.26540  0.57320  1.0000 0.1179268478
H   H43       1.0  0.23460  0.46910  0.07320  1.0000 0.1179268478
H   H44       1.0  0.03090  0.73460  0.57320  1.0000 0.1179268478
H   H45       1.0  0.26540  0.96910  0.42680  1.0000 0.1179268478
H   H46       1.0  0.73460  0.03090  0.42680  1.0000 0.1179268478
H   H47       1.0  0.53090  0.76540  0.92680  1.0000 0.1179268478
H   H48       1.0  0.46910  0.23460  0.92680  1.0000 0.1179268478
H   H49       1.0  0.58950  0.51040  0.28180  1.0000 0.1374866953
H   H50       1.0  0.98960  0.08950  0.78180  1.0000 0.1374866953
H   H51       1.0  0.41050  0.48960  0.28180  1.0000 0.1374866953
H   H52       1.0  0.01040  0.91050  0.78180  1.0000 0.1374866953
H   H53       1.0  0.08950  0.98960  0.21820  1.0000 0.1374866953
H   H54       1.0  0.91050  0.01040  0.21820  1.0000 0.1374866953
H   H55       1.0  0.51040  0.58950  0.71820  1.0000 0.1374866953
H   H56       1.0  0.48960  0.41050  0.71820  1.0000 0.1374866953
H   H57       1.0  0.85870  0.15620  0.14360  1.0000 0.1302055878
H   H58       1.0  0.34380  0.35870  0.64360  1.0000 0.1302055878
H   H59       1.0  0.14130  0.84380  0.14360  1.0000 0.1302055878
H   H60       1.0  0.65620  0.64130  0.64360  1.0000 0.1302055878
H   H61       1.0  0.35870  0.34380  0.35640  1.0000 0.1302055878
H   H62       1.0  0.64130  0.65620  0.35640  1.0000 0.1302055878
H   H63       1.0  0.15620  0.85870  0.85640  1.0000 0.1302055878
H   H64       1.0  0.84380  0.14130  0.85640  1.0000 0.1302055878
H   H65       1.0  0.00280  0.28840  0.10200  1.0000 0.1302055878
H   H66       1.0  0.21160  0.50280  0.60200  1.0000 0.1302055878
H   H67       1.0  0.99720  0.71160  0.10200  1.0000 0.1302055878
H   H68       1.0  0.78840  0.49720  0.60200  1.0000 0.1302055878
H   H69       1.0  0.50280  0.21160  0.39800  1.0000 0.1302055878
H   H70       1.0  0.49720  0.78840  0.39800  1.0000 0.1302055878
H   H71       1.0  0.28840  0.00280  0.89800  1.0000 0.1302055878
H   H72       1.0  0.71160  0.99720  0.89800  1.0000 0.1302055878
H   H73       1.0  0.72350  0.37140  0.31750  1.0000 0.1302055878
H   H74       1.0  0.12860  0.22350  0.81750  1.0000 0.1302055878
H   H75       1.0  0.27650  0.62860  0.31750  1.0000 0.1302055878
H   H76       1.0  0.87140  0.77650  0.81750  1.0000 0.1302055878
H   H77       1.0  0.22350  0.12860  0.18250  1.0000 0.1302055878
H   H78       1.0  0.77650  0.87140  0.18250  1.0000 0.1302055878
H   H79       1.0  0.37140  0.72350  0.68250  1.0000 0.1302055878
H   H80       1.0  0.62860  0.27650  0.68250  1.0000 0.1302055878
H   H81       1.0  0.77170  0.36710  0.25870  1.0000 0.1108900276
H   H82       1.0  0.13290  0.27170  0.75870  1.0000 0.1108900276
H   H83       1.0  0.22830  0.63290  0.25870  1.0000 0.1108900276
H   H84       1.0  0.86710  0.72830  0.75870  1.0000 0.1108900276
H   H85       1.0  0.27170  0.13290  0.24130  1.0000 0.1108900276
H   H86       1.0  0.72830  0.86710  0.24130  1.0000 0.1108900276
H   H87       1.0  0.36710  0.77170  0.74130  1.0000 0.1108900276
H   H88       1.0  0.63290  0.22830  0.74130  1.0000 0.1108900276
H   H89       1.0  0.63460  0.50980  0.22720  1.0000 0.1179268478
H   H90       1.0  0.99020  0.13460  0.72720  1.0000 0.1179268478
H   H91       1.0  0.36540  0.49020  0.22720  1.0000 0.1179268478
H   H92       1.0  0.00980  0.86540  0.72720  1.0000 0.1179268478
H   H93       1.0  0.13460  0.99020  0.27280  1.0000 0.1179268478
H   H94       1.0  0.86540  0.00980  0.27280  1.0000 0.1179268478
H   H95       1.0  0.50980  0.63460  0.77280  1.0000 0.1179268478
H   H96       1.0  0.49020  0.36540  0.77280  1.0000 0.1179268478
H   H97       1.0  0.72160  0.54160  0.18720  1.0000 0.1108900276
H   H98       1.0  0.95840  0.22160  0.68720  1.0000 0.1108900276
H   H99       1.0  0.27840  0.45840  0.18720  1.0000 0.1108900276
H   H100      1.0  0.04160  0.77840  0.68720  1.0000 0.1108900276
H   H101      1.0  0.22160  0.95840  0.31280  1.0000 0.1108900276
H   H102      1.0  0.77840  0.04160  0.31280  1.0000 0.1108900276
H   H103      1.0  0.54160  0.72160  0.81280  1.0000 0.1108900276
H   H104      1.0  0.45840  0.27840  0.81280  1.0000 0.1108900276
H   H105      1.0  0.93670  0.37840  0.11950  1.0000 0.1108900276
H   H106      1.0  0.12160  0.43670  0.61950  1.0000 0.1108900276
H   H107      1.0  0.06330  0.62160  0.11950  1.0000 0.1108900276
H   H108      1.0  0.87840  0.56330  0.61950  1.0000 0.1108900276
H   H109      1.0  0.43670  0.12160  0.38050  1.0000 0.1108900276
H   H110      1.0  0.56330  0.87840  0.38050  1.0000 0.1108900276
H   H111      1.0  0.37840  0.93670  0.88050  1.0000 0.1108900276
H   H112      1.0  0.62160  0.06330  0.88050  1.0000 0.1108900276
H   H113      1.0  0.79860  0.24720  0.16350  1.0000 0.1179268478
H   H114      1.0  0.25280  0.29860  0.66350  1.0000 0.1179268478
H   H115      1.0  0.20140  0.75280  0.16350  1.0000 0.1179268478
H   H116      1.0  0.74720  0.70140  0.66350  1.0000 0.1179268478
H   H117      1.0  0.29860  0.25280  0.33650  1.0000 0.1179268478
H   H118      1.0  0.70140  0.74720  0.33650  1.0000 0.1179268478
H   H119      1.0  0.24720  0.79860  0.83650  1.0000 0.1179268478
H   H120      1.0  0.75280  0.20140  0.83650  1.0000 0.1179268478
H   H121      1.0  0.83140  0.44640  0.10990  1.0000 0.1108900276
H   H122      1.0  0.05360  0.33140  0.60990  1.0000 0.1108900276
H   H123      1.0  0.16860  0.55360  0.10990  1.0000 0.1108900276
H   H124      1.0  0.94640  0.66860  0.60990  1.0000 0.1108900276
H   H125      1.0  0.33140  0.05360  0.39010  1.0000 0.1108900276
H   H126      1.0  0.66860  0.94640  0.39010  1.0000 0.1108900276
H   H127      1.0  0.44640  0.83140  0.89010  1.0000 0.1108900276
H   H128      1.0  0.55360  0.16860  0.89010  1.0000 0.1108900276
H   H129      1.0  0.78270  0.34450  0.20190  1.0000 0.1108900276
H   H130      1.0  0.15550  0.28270  0.70190  1.0000 0.1108900276
H   H131      1.0  0.21730  0.65550  0.20190  1.0000 0.1108900276
H   H132      1.0  0.84450  0.71730  0.70190  1.0000 0.1108900276
H   H133      1.0  0.28270  0.15550  0.29810  1.0000 0.1108900276
H   H134      1.0  0.71730  0.84450  0.29810  1.0000 0.1108900276
H   H135      1.0  0.34450  0.78270  0.79810  1.0000 0.1108900276
H   H136      1.0  0.65550  0.21730  0.79810  1.0000 0.1108900276
H   H137      1.0  0.81920  0.49910  0.40240  1.0000 0.1374866953
H   H138      1.0  0.00090  0.31920  0.90240  1.0000 0.1374866953
H   H139      1.0  0.18080  0.50090  0.40240  1.0000 0.1374866953
H   H140      1.0  0.99910  0.68080  0.90240  1.0000 0.1374866953
H   H141      1.0  0.31920  0.00090  0.09760  1.0000 0.1374866953
H   H142      1.0  0.68080  0.99910  0.09760  1.0000 0.1374866953
H   H143      1.0  0.49910  0.81920  0.59760  1.0000 0.1374866953
H   H144      1.0  0.50090  0.18080  0.59760  1.0000 0.1374866953
H   H145      1.0  0.93660  0.51450  0.39800  1.0000 0.1179268478
H   H146      1.0  0.98550  0.43660  0.89800  1.0000 0.1179268478
H   H147      1.0  0.06340  0.48550  0.39800  1.0000 0.1179268478
H   H148      1.0  0.01450  0.56340  0.89800  1.0000 0.1179268478
H   H149      1.0  0.43660  0.98550  0.10200  1.0000 0.1179268478
H   H150      1.0  0.56340  0.01450  0.10200  1.0000 0.1179268478
H   H151      1.0  0.51450  0.93660  0.60200  1.0000 0.1179268478
H   H152      1.0  0.48550  0.06340  0.60200  1.0000 0.1179268478
H   H153      1.0  0.84950  0.42360  0.50190  1.0000 0.1302055878
H   H154      1.0  0.07640  0.34950  0.00190  1.0000 0.1302055878
H   H155      1.0  0.15050  0.57640  0.50190  1.0000 0.1302055878
H   H156      1.0  0.92360  0.65050  0.00190  1.0000 0.1302055878
H   H157      1.0  0.34950  0.07640  0.99810  1.0000 0.1302055878
H   H158      1.0  0.65050  0.92360  0.99810  1.0000 0.1302055878
H   H159      1.0  0.42360  0.84950  0.49810  1.0000 0.1302055878
H   H160      1.0  0.57640  0.15050  0.49810  1.0000 0.1302055878
H   H161      1.0  0.96280  0.45940  0.49930  1.0000 0.1108900276
H   H162      1.0  0.04060  0.46280  0.99930  1.0000 0.1108900276
H   H163      1.0  0.03720  0.54060  0.49930  1.0000 0.1108900276
H   H164      1.0  0.95940  0.53720  0.99930  1.0000 0.1108900276
H   H165      1.0  0.46280  0.04060  0.00070  1.0000 0.1108900276
H   H166      1.0  0.53720  0.95940  0.00070  1.0000 0.1108900276
H   H167      1.0  0.45940  0.96280  0.50070  1.0000 0.1108900276
H   H168      1.0  0.54060  0.03720  0.50070  1.0000 0.1108900276
C   C1        1.0  0.61640  0.44510  0.34197  1.0000 0.6239770641
C   C2        1.0  0.05490  0.11640  0.84197  1.0000 0.6239770641
C   C3        1.0  0.38360  0.55490  0.34197  1.0000 0.6239770641
C   C4        1.0  0.94510  0.88360  0.84197  1.0000 0.6239770641
C   C5        1.0  0.11640  0.05490  0.15803  1.0000 0.6239770641
C   C6        1.0  0.88360  0.94510  0.15803  1.0000 0.6239770641
C   C7        1.0  0.44510  0.61640  0.65803  1.0000 0.6239770641
C   C8        1.0  0.55490  0.38360  0.65803  1.0000 0.6239770641
C   C9        1.0  0.78600  0.63228  0.14236  1.0000 -0.1507805105
C   C10       1.0  0.86772  0.28600  0.64236  1.0000 -0.1507805105
C   C11       1.0  0.21400  0.36772  0.14236  1.0000 -0.1507805105
C   C12       1.0  0.13228  0.71400  0.64236  1.0000 -0.1507805105
C   C13       1.0  0.28600  0.86772  0.35764  1.0000 -0.1507805105
C   C14       1.0  0.71400  0.13228  0.35764  1.0000 -0.1507805105
C   C15       1.0  0.63228  0.78600  0.85764  1.0000 -0.1507805105
C   C16       1.0  0.36772  0.21400  0.85764  1.0000 -0.1507805105
C   C17       1.0  0.78180  0.63400  0.06837  1.0000 -0.0994647964
C   C18       1.0  0.86600  0.28180  0.56837  1.0000 -0.0994647964
C   C19       1.0  0.21820  0.36600  0.06837  1.0000 -0.0994647964
C   C20       1.0  0.13400  0.71820  0.56837  1.0000 -0.0994647964
C   C21       1.0  0.28180  0.86600  0.43163  1.0000 -0.0994647964
C   C22       1.0  0.71820  0.13400  0.43163  1.0000 -0.0994647964
C   C23       1.0  0.63400  0.78180  0.93163  1.0000 -0.0994647964
C   C24       1.0  0.36600  0.21820  0.93163  1.0000 -0.0994647964
C   C25       1.0  0.98450  0.15210  0.11217  1.0000 0.605826064
C   C26       1.0  0.34790  0.48450  0.61217  1.0000 0.605826064
C   C27       1.0  0.01550  0.84790  0.11217  1.0000 0.605826064
C   C28       1.0  0.65210  0.51550  0.61217  1.0000 0.605826064
C   C29       1.0  0.48450  0.34790  0.38783  1.0000 0.605826064
C   C30       1.0  0.51550  0.65210  0.38783  1.0000 0.605826064
C   C31       1.0  0.15210  0.98450  0.88783  1.0000 0.605826064
C   C32       1.0  0.84790  0.01550  0.88783  1.0000 0.605826064
C   C33       1.0  0.79180  0.69490  0.12347  1.0000 -0.091997457
C   C34       1.0  0.80510  0.29180  0.62347  1.0000 -0.0994647964
C   C35       1.0  0.20820  0.30510  0.12347  1.0000 -0.091997457
C   C36       1.0  0.19490  0.70820  0.62347  1.0000 -0.091997457
C   C37       1.0  0.29180  0.80510  0.37653  1.0000 -0.091997457
C   C38       1.0  0.70820  0.19490  0.37653  1.0000 -0.091997457
C   C39       1.0  0.69490  0.79180  0.87653  1.0000 -0.091997457
C   C40       1.0  0.30510  0.20820  0.87653  1.0000 -0.091997457
C   C41       1.0  0.77310  0.57150  0.08639  1.0000 -0.1507805105
C   C42       1.0  0.92850  0.27310  0.58639  1.0000 -0.1507805105
C   C43       1.0  0.22690  0.42850  0.08639  1.0000 -0.1507805105
C   C44       1.0  0.07150  0.72690  0.58639  1.0000 -0.1507805105
C   C45       1.0  0.27310  0.92850  0.41361  1.0000 -0.1507805105
C   C46       1.0  0.72690  0.07150  0.41361  1.0000 -0.1507805105
C   C47       1.0  0.57150  0.77310  0.91361  1.0000 -0.1507805105
C   C48       1.0  0.42850  0.22690  0.91361  1.0000 -0.1507805105
C   C49       1.0  0.79330  0.69478  0.08645  1.0000 -0.0394538711
C   C50       1.0  0.80522  0.29330  0.58645  1.0000 -0.0394538711
C   C51       1.0  0.20670  0.30522  0.08645  1.0000 -0.0394538711
C   C52       1.0  0.19478  0.70670  0.58645  1.0000 -0.0394538711
C   C53       1.0  0.29330  0.80522  0.41355  1.0000 -0.0394538711
C   C54       1.0  0.70670  0.19478  0.41355  1.0000 -0.0394538711
C   C55       1.0  0.69478  0.79330  0.91355  1.0000 -0.0394538711
C   C56       1.0  0.30522  0.20670  0.91355  1.0000 -0.0394538711
C   C57       1.0  0.80730  0.76293  0.06775  1.0000 0.6279738834
C   C58       1.0  0.73707  0.30730  0.56775  1.0000 0.6279738834
C   C59       1.0  0.19270  0.23707  0.06775  1.0000 0.6279738834
C   C60       1.0  0.26293  0.69270  0.56775  1.0000 0.6279738834
C   C61       1.0  0.30730  0.73707  0.43225  1.0000 0.6279738834
C   C62       1.0  0.69270  0.26293  0.43225  1.0000 0.6279738834
C   C63       1.0  0.76293  0.80730  0.93225  1.0000 0.6279738834
C   C64       1.0  0.23707  0.19270  0.93225  1.0000 0.6279738834
C   C65       1.0  0.94430  0.21074  0.12316  1.0000 -0.0994647964
C   C66       1.0  0.28926  0.44430  0.62316  1.0000 -0.0994647964
C   C67       1.0  0.05570  0.78926  0.12316  1.0000 -0.0994647964
C   C68       1.0  0.71074  0.55570  0.62316  1.0000 -0.0994647964
C   C69       1.0  0.44430  0.28926  0.37684  1.0000 -0.0994647964
C   C70       1.0  0.55570  0.71074  0.37684  1.0000 -0.0994647964
C   C71       1.0  0.21074  0.94430  0.87684  1.0000 -0.0994647964
C   C72       1.0  0.78926  0.05570  0.87684  1.0000 -0.0994647964
C   C73       1.0  0.62680  0.48060  0.27745  1.0000 -0.1061711722
C   C74       1.0  0.01940  0.12680  0.77745  1.0000 -0.1061711722
C   C75       1.0  0.37320  0.51940  0.27745  1.0000 -0.1061711722
C   C76       1.0  0.98060  0.87320  0.77745  1.0000 -0.1061711722
C   C77       1.0  0.12680  0.01940  0.22255  1.0000 -0.1061711722
C   C78       1.0  0.87320  0.98060  0.22255  1.0000 -0.1061711722
C   C79       1.0  0.48060  0.62680  0.72255  1.0000 -0.1061711722
C   C80       1.0  0.51940  0.37320  0.72255  1.0000 -0.1061711722
C   C81       1.0  0.77590  0.56910  0.12409  1.0000 0.0745431398
C   C82       1.0  0.93090  0.27590  0.62409  1.0000 0.0790758426
C   C83       1.0  0.22410  0.43090  0.12409  1.0000 0.0745431398
C   C84       1.0  0.06910  0.72410  0.62409  1.0000 0.0745431398
C   C85       1.0  0.27590  0.93090  0.37591  1.0000 0.0745431398
C   C86       1.0  0.72410  0.06910  0.37591  1.0000 0.0745431398
C   C87       1.0  0.56910  0.77590  0.87591  1.0000 0.0790758426
C   C88       1.0  0.43090  0.22410  0.87591  1.0000 0.0790758426
C   C89       1.0  0.70850  0.44110  0.23647  1.0000 0.0545370718
C   C90       1.0  0.05890  0.20850  0.73647  1.0000 0.0545370718
C   C91       1.0  0.29150  0.55890  0.23647  1.0000 0.0545370718
C   C92       1.0  0.94110  0.79150  0.73647  1.0000 0.0545370718
C   C93       1.0  0.20850  0.05890  0.26353  1.0000 0.0545370718
C   C94       1.0  0.79150  0.94110  0.26353  1.0000 0.0545370718
C   C95       1.0  0.44110  0.70850  0.76353  1.0000 0.0545370718
C   C96       1.0  0.55890  0.29150  0.76353  1.0000 0.0550432195
C   C97       1.0  0.87610  0.20100  0.14015  1.0000 -0.0836849399
C   C98       1.0  0.29900  0.37610  0.64015  1.0000 -0.0836849399
C   C99       1.0  0.12390  0.79900  0.14015  1.0000 -0.0836849399
C   C100      1.0  0.70100  0.62390  0.64015  1.0000 -0.0836849399
C   C101      1.0  0.37610  0.29900  0.35985  1.0000 -0.0836849399
C   C102      1.0  0.62390  0.70100  0.35985  1.0000 -0.0836849399
C   C103      1.0  0.20100  0.87610  0.85985  1.0000 -0.0836849399
C   C104      1.0  0.79900  0.12390  0.85985  1.0000 -0.0836849399
C   C105      1.0  0.74090  0.44024  0.20057  1.0000 0.0790758426
C   C106      1.0  0.05976  0.24090  0.70057  1.0000 0.0790758426
C   C107      1.0  0.25910  0.55976  0.20057  1.0000 0.0790758426
C   C108      1.0  0.94024  0.75910  0.70057  1.0000 0.0790758426
C   C109      1.0  0.24090  0.05976  0.29943  1.0000 0.0790758426
C   C110      1.0  0.75910  0.94024  0.29943  1.0000 0.0790758426
C   C111      1.0  0.44024  0.74090  0.79943  1.0000 0.0790758426
C   C112      1.0  0.55976  0.25910  0.79943  1.0000 0.0790758426
C   C113      1.0  0.64870  0.44010  0.30558  1.0000 -0.0542926649
C   C114      1.0  0.05990  0.14870  0.80558  1.0000 -0.0542926649
C   C115      1.0  0.35130  0.55990  0.30558  1.0000 -0.0542926649
C   C116      1.0  0.94010  0.85130  0.80558  1.0000 -0.0542926649
C   C117      1.0  0.14870  0.05990  0.19442  1.0000 -0.0542926649
C   C118      1.0  0.85130  0.94010  0.19442  1.0000 -0.0542926649
C   C119      1.0  0.44010  0.64870  0.69442  1.0000 -0.0542926649
C   C120      1.0  0.55990  0.35130  0.69442  1.0000 -0.0542926649
C   C121      1.0  0.96200  0.27970  0.11483  1.0000 -0.091997457
C   C122      1.0  0.22030  0.46200  0.61483  1.0000 -0.091997457
C   C123      1.0  0.03800  0.72030  0.11483  1.0000 -0.091997457
C   C124      1.0  0.77970  0.53800  0.61483  1.0000 -0.0836849399
C   C125      1.0  0.46200  0.22030  0.38517  1.0000 -0.091997457
C   C126      1.0  0.53800  0.77970  0.38517  1.0000 -0.091997457
C   C127      1.0  0.27970  0.96200  0.88517  1.0000 -0.0836849399
C   C128      1.0  0.72030  0.03800  0.88517  1.0000 -0.0836849399
C   C129      1.0  0.70480  0.39870  0.29893  1.0000 -0.0994647964
C   C130      1.0  0.10130  0.20480  0.79893  1.0000 -0.0994647964
C   C131      1.0  0.29520  0.60130  0.29893  1.0000 -0.0994647964
C   C132      1.0  0.89870  0.79520  0.79893  1.0000 -0.0994647964
C   C133      1.0  0.20480  0.10130  0.20107  1.0000 -0.0994647964
C   C134      1.0  0.79520  0.89870  0.20107  1.0000 -0.0994647964
C   C135      1.0  0.39870  0.70480  0.70107  1.0000 -0.0994647964
C   C136      1.0  0.60130  0.29520  0.70107  1.0000 -0.0994647964
C   C137      1.0  0.73480  0.39710  0.26373  1.0000 -0.1507805105
C   C138      1.0  0.10290  0.23480  0.76373  1.0000 -0.1507805105
C   C139      1.0  0.26520  0.60290  0.26373  1.0000 -0.1507805105
C   C140      1.0  0.89710  0.76520  0.76373  1.0000 -0.1507805105
C   C141      1.0  0.23480  0.10290  0.23627  1.0000 -0.1507805105
C   C142      1.0  0.76520  0.89710  0.23627  1.0000 -0.1507805105
C   C143      1.0  0.39710  0.73480  0.73627  1.0000 -0.1507805105
C   C144      1.0  0.60290  0.26520  0.73627  1.0000 -0.1507805105
C   C145      1.0  0.85930  0.32452  0.14277  1.0000 0.0790758426
C   C146      1.0  0.17548  0.35930  0.64277  1.0000 0.0790758426
C   C147      1.0  0.14070  0.67548  0.14277  1.0000 0.0790758426
C   C148      1.0  0.82452  0.64070  0.64277  1.0000 0.0790758426
C   C149      1.0  0.35930  0.17548  0.35723  1.0000 0.0790758426
C   C150      1.0  0.64070  0.82452  0.35723  1.0000 0.0790758426
C   C151      1.0  0.32452  0.85930  0.85723  1.0000 0.0790758426
C   C152      1.0  0.67548  0.14070  0.85723  1.0000 0.0790758426
C   C153      1.0  0.65380  0.48100  0.24490  1.0000 -0.1212441857
C   C154      1.0  0.01900  0.15380  0.74490  1.0000 -0.1212441857
C   C155      1.0  0.34620  0.51900  0.24490  1.0000 -0.1212441857
C   C156      1.0  0.98100  0.84620  0.74490  1.0000 -0.1212441857
C   C157      1.0  0.15380  0.01900  0.25510  1.0000 -0.1212441857
C   C158      1.0  0.84620  0.98100  0.25510  1.0000 -0.1212441857
C   C159      1.0  0.48100  0.65380  0.75510  1.0000 -0.1212441857
C   C160      1.0  0.51900  0.34620  0.75510  1.0000 -0.1212441857
C   C161      1.0  0.74300  0.50140  0.17843  1.0000 -0.2018511398
C   C162      1.0  0.99860  0.24300  0.67843  1.0000 -0.2018511398
C   C163      1.0  0.25700  0.49860  0.17843  1.0000 -0.2018511398
C   C164      1.0  0.00140  0.75700  0.67843  1.0000 -0.2018511398
C   C165      1.0  0.24300  0.99860  0.32157  1.0000 -0.2018511398
C   C166      1.0  0.75700  0.00140  0.32157  1.0000 -0.2018511398
C   C167      1.0  0.50140  0.74300  0.82157  1.0000 -0.2018511398
C   C168      1.0  0.49860  0.25700  0.82157  1.0000 -0.2018511398
C   C169      1.0  0.92190  0.33340  0.12486  1.0000 -0.1319269641
C   C170      1.0  0.16660  0.42190  0.62486  1.0000 -0.1319269641
C   C171      1.0  0.07810  0.66667  0.12486  1.0000 -0.1319269641
C   C172      1.0  0.83340  0.57810  0.62486  1.0000 -0.1319269641
C   C173      1.0  0.42190  0.16660  0.37514  1.0000 -0.1319269641
C   C174      1.0  0.57810  0.83340  0.37514  1.0000 -0.1319269641
C   C175      1.0  0.33340  0.92190  0.87514  1.0000 -0.1319269641
C   C176      1.0  0.66667  0.07810  0.87514  1.0000 -0.1319269641
C   C177      1.0  0.81580  0.38400  0.15451  1.0000 0.0790758426
C   C178      1.0  0.11600  0.31580  0.65451  1.0000 0.0790758426
C   C179      1.0  0.18420  0.61600  0.15451  1.0000 0.0790758426
C   C180      1.0  0.88400  0.68420  0.65451  1.0000 0.0790758426
C   C181      1.0  0.31580  0.11600  0.34549  1.0000 0.0745431398
C   C182      1.0  0.68420  0.88400  0.34549  1.0000 0.0790758426
C   C183      1.0  0.38400  0.81580  0.84549  1.0000 0.0790758426
C   C184      1.0  0.61600  0.18420  0.84549  1.0000 0.0790758426
C   C185      1.0  0.83950  0.25480  0.15050  1.0000 -0.1319269641
C   C186      1.0  0.24520  0.33950  0.65050  1.0000 -0.1319269641
C   C187      1.0  0.16050  0.74520  0.15050  1.0000 -0.1319269641
C   C188      1.0  0.75480  0.66050  0.65050  1.0000 -0.1319269641
C   C189      1.0  0.33950  0.24520  0.34950  1.0000 -0.1319269641
C   C190      1.0  0.66050  0.75480  0.34950  1.0000 -0.1319269641
C   C191      1.0  0.25480  0.83950  0.84950  1.0000 -0.1319269641
C   C192      1.0  0.74520  0.16050  0.84950  1.0000 -0.1319269641
C   C193      1.0  0.77450  0.50420  0.14535  1.0000 0.0745431398
C   C194      1.0  0.99580  0.27450  0.64535  1.0000 0.0745431398
C   C195      1.0  0.22550  0.49580  0.14535  1.0000 0.0745431398
C   C196      1.0  0.00420  0.72550  0.64535  1.0000 0.0745431398
C   C197      1.0  0.27450  0.99580  0.35465  1.0000 0.0745431398
C   C198      1.0  0.72550  0.00420  0.35465  1.0000 0.0745431398
C   C199      1.0  0.50420  0.77450  0.85465  1.0000 0.0745431398
C   C200      1.0  0.49580  0.22550  0.85465  1.0000 0.0745431398
C   C201      1.0  0.81060  0.44540  0.13279  1.0000 -0.216014416
C   C202      1.0  0.05460  0.31060  0.63279  1.0000 -0.216014416
C   C203      1.0  0.18940  0.55460  0.13279  1.0000 -0.216014416
C   C204      1.0  0.94540  0.68940  0.63279  1.0000 -0.216014416
C   C205      1.0  0.31060  0.05460  0.36721  1.0000 -0.216014416
C   C206      1.0  0.68940  0.94540  0.36721  1.0000 -0.216014416
C   C207      1.0  0.44540  0.81060  0.86721  1.0000 -0.216014416
C   C208      1.0  0.55460  0.18940  0.86721  1.0000 -0.216014416
C   C209      1.0  0.78020  0.38429  0.18756  1.0000 -0.2018511398
C   C210      1.0  0.11571  0.28020  0.68756  1.0000 -0.2018511398
C   C211      1.0  0.21980  0.61571  0.18756  1.0000 -0.2018511398
C   C212      1.0  0.88429  0.71980  0.68756  1.0000 -0.2018511398
C   C213      1.0  0.28020  0.11571  0.31244  1.0000 -0.2018511398
C   C214      1.0  0.71980  0.88429  0.31244  1.0000 -0.2018511398
C   C215      1.0  0.38429  0.78020  0.81244  1.0000 -0.2018511398
C   C216      1.0  0.61571  0.21980  0.81244  1.0000 -0.2018511398
C   C217      1.0  0.74857  0.42900  0.45514  1.0000 0.635955437
C   C218      1.0  0.07100  0.24857  0.95514  1.0000 0.635955437
C   C219      1.0  0.25143  0.57100  0.45514  1.0000 0.635955437
C   C220      1.0  0.92900  0.75143  0.95514  1.0000 0.635955437
C   C221      1.0  0.24857  0.07100  0.04486  1.0000 0.635955437
C   C222      1.0  0.75143  0.92900  0.04486  1.0000 0.635955437
C   C223      1.0  0.42900  0.74857  0.54486  1.0000 0.635955437
C   C224      1.0  0.57100  0.25143  0.54486  1.0000 0.635955437
C   C225      1.0  0.84840  0.48640  0.42146  1.0000 -0.0994647964
C   C226      1.0  0.01360  0.34840  0.92146  1.0000 -0.0994647964
C   C227      1.0  0.15160  0.51360  0.42146  1.0000 -0.0994647964
C   C228      1.0  0.98640  0.65160  0.92146  1.0000 -0.0994647964
C   C229      1.0  0.34840  0.01360  0.07854  1.0000 -0.0994647964
C   C230      1.0  0.65160  0.98640  0.07854  1.0000 -0.0994647964
C   C231      1.0  0.48640  0.84840  0.57854  1.0000 -0.0994647964
C   C232      1.0  0.51360  0.15160  0.57854  1.0000 -0.0994647964
C   C233      1.0  0.82304  0.45520  0.45160  1.0000 -0.0394538711
C   C234      1.0  0.04480  0.32304  0.95160  1.0000 -0.0394538711
C   C235      1.0  0.17696  0.54480  0.45160  1.0000 -0.0394538711
C   C236      1.0  0.95520  0.67696  0.95160  1.0000 -0.0394538711
C   C237      1.0  0.32304  0.04480  0.04840  1.0000 -0.0394538711
C   C238      1.0  0.67696  0.95520  0.04840  1.0000 -0.0394538711
C   C239      1.0  0.45520  0.82304  0.54840  1.0000 -0.0394538711
C   C240      1.0  0.54480  0.17696  0.54840  1.0000 -0.0394538711
C   C241      1.0  0.91830  0.49870  0.41995  1.0000 -0.1576991575
C   C242      1.0  0.00130  0.41830  0.91995  1.0000 -0.1576991575
C   C243      1.0  0.08170  0.50130  0.41995  1.0000 -0.1576991575
C   C244      1.0  0.99870  0.58170  0.91995  1.0000 -0.1576991575
C   C245      1.0  0.41830  0.00130  0.08005  1.0000 -0.1576991575
C   C246      1.0  0.58170  0.99870  0.08005  1.0000 -0.1576991575
C   C247      1.0  0.49870  0.91830  0.58005  1.0000 -0.1576991575
C   C248      1.0  0.50130  0.08170  0.58005  1.0000 -0.1576991575
C   C249      1.0  0.86650  0.44430  0.48084  1.0000 -0.091997457
C   C250      1.0  0.05570  0.36650  0.98084  1.0000 -0.091997457
C   C251      1.0  0.13350  0.55570  0.48084  1.0000 -0.0994647964
C   C252      1.0  0.94430  0.63350  0.98084  1.0000 -0.091997457
C   C253      1.0  0.36650  0.05570  0.01916  1.0000 -0.0994647964
C   C254      1.0  0.63350  0.94430  0.01916  1.0000 -0.0994647964
C   C255      1.0  0.44430  0.86650  0.51916  1.0000 -0.091997457
C   C256      1.0  0.55570  0.13350  0.51916  1.0000 -0.091997457
C   C257      1.0  0.96276  0.48960  0.44790  1.0000 0.0790758426
C   C258      1.0  0.01040  0.46276  0.94790  1.0000 0.0790758426
C   C259      1.0  0.03724  0.51040  0.44790  1.0000 0.0790758426
C   C260      1.0  0.98960  0.53724  0.94790  1.0000 0.0790758426
C   C261      1.0  0.46276  0.01040  0.05210  1.0000 0.0790758426
C   C262      1.0  0.53724  0.98960  0.05210  1.0000 0.0790758426
C   C263      1.0  0.48960  0.96276  0.55210  1.0000 0.0790758426
C   C264      1.0  0.51040  0.03724  0.55210  1.0000 0.0790758426
C   C265      1.0  0.93480  0.46390  0.47882  1.0000 -0.1576991575
C   C266      1.0  0.03610  0.43480  0.97882  1.0000 -0.1576991575
C   C267      1.0  0.06520  0.53610  0.47882  1.0000 -0.1576991575
C   C268      1.0  0.96390  0.56520  0.97882  1.0000 -0.1576991575
C   C269      1.0  0.43480  0.03610  0.02118  1.0000 -0.1576991575
C   C270      1.0  0.56520  0.96390  0.02118  1.0000 -0.1576991575
C   C271      1.0  0.46390  0.93480  0.52118  1.0000 -0.1576991575
C   C272      1.0  0.53610  0.06520  0.52118  1.0000 -0.1576991575
O   O1        1.0  0.56735  0.47286  0.41806  1.0000 -1.0111442367
O   O2        1.0  0.02714  0.06735  0.91806  1.0000 -1.0111442367
O   O3        1.0  0.43265  0.52714  0.41806  1.0000 -1.0111442367
O   O4        1.0  0.97286  0.93265  0.91806  1.0000 -1.0111442367
O   O5        1.0  0.06735  0.02714  0.08194  1.0000 -1.0111442367
O   O6        1.0  0.93265  0.97286  0.08194  1.0000 -1.0111442367
O   O7        1.0  0.47286  0.56735  0.58194  1.0000 -1.0111442367
O   O8        1.0  0.52714  0.43265  0.58194  1.0000 -1.0111442367
O   O9        1.0  0.64777  0.40828  0.36723  1.0000 -0.6015082757
O   O10       1.0  0.09172  0.14777  0.86723  1.0000 -0.6015082757
O   O11       1.0  0.35223  0.59172  0.36723  1.0000 -0.6015082757
O   O12       1.0  0.90828  0.85223  0.86723  1.0000 -0.6015082757
O   O13       1.0  0.14777  0.09172  0.13277  1.0000 -0.6015082757
O   O14       1.0  0.85223  0.90828  0.13277  1.0000 -0.6015082757
O   O15       1.0  0.40828  0.64777  0.63277  1.0000 -0.6015082757
O   O16       1.0  0.59172  0.35223  0.63277  1.0000 -0.6015082757
O   O17       1.0  0.60229  0.36809  0.46493  1.0000 -1.0111442367
O   O18       1.0  0.13191  0.10229  0.96493  1.0000 -1.0111442367
O   O19       1.0  0.39771  0.63191  0.46493  1.0000 -1.0111442367
O   O20       1.0  0.86809  0.89771  0.96493  1.0000 -1.0111442367
O   O21       1.0  0.10229  0.13191  0.03507  1.0000 -1.0111442367
O   O22       1.0  0.89771  0.86809  0.03507  1.0000 -1.0111442367
O   O23       1.0  0.36809  0.60229  0.53507  1.0000 -1.0111442367
O   O24       1.0  0.63191  0.39771  0.53507  1.0000 -1.0111442367
O   O25       1.0  0.56072  0.47618  0.34504  1.0000 -0.5454094569
O   O26       1.0  0.02382  0.06072  0.84504  1.0000 -0.5454094569
O   O27       1.0  0.43928  0.52382  0.34504  1.0000 -0.5454094569
O   O28       1.0  0.97618  0.93928  0.84504  1.0000 -0.5454094569
O   O29       1.0  0.06072  0.02382  0.15496  1.0000 -0.5454094569
O   O30       1.0  0.93928  0.97618  0.15496  1.0000 -0.5454094569
O   O31       1.0  0.47618  0.56072  0.65496  1.0000 -0.5454094569
O   O32       1.0  0.52382  0.43928  0.65496  1.0000 -0.5454094569
O   O33       1.0  0.82210  0.81358  0.08731  1.0000 -0.5595551292
O   O34       1.0  0.68642  0.32210  0.58731  1.0000 -0.5595551292
O   O35       1.0  0.17790  0.18642  0.08731  1.0000 -0.5595551292
O   O36       1.0  0.31358  0.67790  0.58731  1.0000 -0.5595551292
O   O37       1.0  0.32210  0.68642  0.41269  1.0000 -0.5595551292
O   O38       1.0  0.67790  0.31358  0.41269  1.0000 -0.5595551292
O   O39       1.0  0.81358  0.82210  0.91269  1.0000 -0.5595551292
O   O40       1.0  0.18642  0.17790  0.91269  1.0000 -0.5595551292
O   O41       1.0  0.73293  0.39684  0.48317  1.0000 -0.5730487118
O   O42       1.0  0.10316  0.23293  0.98317  1.0000 -0.5730487118
O   O43       1.0  0.26707  0.60316  0.48317  1.0000 -0.5730487118
O   O44       1.0  0.89684  0.76707  0.98317  1.0000 -0.5730487118
O   O45       1.0  0.23293  0.10316  0.01683  1.0000 -0.5730487118
O   O46       1.0  0.76707  0.89684  0.01683  1.0000 -0.5730487118
O   O47       1.0  0.39684  0.73293  0.51683  1.0000 -0.5730487118
O   O48       1.0  0.60316  0.26707  0.51683  1.0000 -0.5730487118
O   O49       1.0  0.04767  0.16415  0.09938  1.0000 -0.6231144826
O   O50       1.0  0.33585  0.54767  0.59938  1.0000 -0.6231144826
O   O51       1.0  0.95233  0.83585  0.09938  1.0000 -0.6231144826
O   O52       1.0  0.66415  0.45233  0.59938  1.0000 -0.6231144826
O   O53       1.0  0.54767  0.33585  0.40062  1.0000 -0.6231144826
O   O54       1.0  0.45233  0.66415  0.40062  1.0000 -0.6231144826
O   O55       1.0  0.16415  0.04767  0.90062  1.0000 -0.6231144826
O   O56       1.0  0.83585  0.95233  0.90062  1.0000 -0.6231144826
O   O57       1.0  0.96068  0.09137  0.11768  1.0000 -0.5915893699
O   O58       1.0  0.40863  0.46068  0.61768  1.0000 -0.5915893699
O   O59       1.0  0.03932  0.90863  0.11768  1.0000 -0.5915893699
O   O60       1.0  0.59137  0.53932  0.61768  1.0000 -0.5915893699
O   O61       1.0  0.46068  0.40863  0.38232  1.0000 -0.5915893699
O   O62       1.0  0.53932  0.59137  0.38232  1.0000 -0.5915893699
O   O63       1.0  0.09137  0.96068  0.88232  1.0000 -0.5915893699
O   O64       1.0  0.90863  0.03932  0.88232  1.0000 -0.5915893699
O   O65       1.0  0.70588  0.44196  0.42927  1.0000 -0.5915893699
O   O66       1.0  0.05804  0.20588  0.92927  1.0000 -0.5915893699
O   O67       1.0  0.29412  0.55804  0.42927  1.0000 -0.5915893699
O   O68       1.0  0.94196  0.79412  0.92927  1.0000 -0.5915893699
O   O69       1.0  0.20588  0.05804  0.07073  1.0000 -0.5915893699
O   O70       1.0  0.79412  0.94196  0.07073  1.0000 -0.5915893699
O   O71       1.0  0.44196  0.70588  0.57073  1.0000 -0.5915893699
O   O72       1.0  0.55804  0.29412  0.57073  1.0000 -0.5915893699
O   O73       1.0  0.80306  0.76375  0.03242  1.0000 -0.5915893699
O   O74       1.0  0.73625  0.30306  0.53242  1.0000 -0.5915893699
O   O75       1.0  0.19694  0.23625  0.03242  1.0000 -0.5915893699
O   O76       1.0  0.26375  0.69694  0.53242  1.0000 -0.5915893699
O   O77       1.0  0.30306  0.73625  0.46758  1.0000 -0.5915893699
O   O78       1.0  0.69694  0.26375  0.46758  1.0000 -0.5915893699
O   O79       1.0  0.76375  0.80306  0.96758  1.0000 -0.5915893699
O   O80       1.0  0.23625  0.19694  0.96758  1.0000 -0.5915893699
