# DDEC6 charges by PACMAN v1.1 (https://github.com/mtap-research/PACMAN-charge/)
data_cg900153m_si_001_FSR_pacman
_symmetry_space_group_name_H-M   'P 1'
_cell_length_a   43.62200000
_cell_length_b   43.62200000
_cell_length_c   43.62200000
_cell_angle_alpha   90.00000000
_cell_angle_beta   90.00000000
_cell_angle_gamma   90.00000000
_symmetry_Int_Tables_number   1
_chemical_formula_structural   Zn7H36C72O41
_chemical_formula_sum   'Zn112 H576 C1152 O656'
_cell_volume   83007.38267785
_cell_formula_units_Z   16
loop_
 _symmetry_equiv_pos_site_id
 _symmetry_equiv_pos_as_xyz
  1  'x, y, z'
loop_
 _atom_site_type_symbol
 _atom_site_label
 _atom_site_symmetry_multiplicity
 _atom_site_fract_x
 _atom_site_fract_y
 _atom_site_fract_z
 _atom_site_occupancy
 _atom_site_charge
Zn  Zn1  1  0.26872000  0.50000000  0.00000000  1.0 0.9825334101
Zn  Zn2  1  0.20059000  0.50000000  0.00000000  1.0 1.0621546929
Zn  Zn3  1  0.76872000  0.50000000  0.50000000  1.0 0.9825334101
Zn  Zn4  1  0.70059000  0.50000000  0.50000000  1.0 1.0621546929
Zn  Zn5  1  0.73128000  0.50000000  0.00000000  1.0 0.9825334101
Zn  Zn6  1  0.79941000  0.50000000  0.00000000  1.0 1.0621546929
Zn  Zn7  1  0.73128000  0.00000000  0.50000000  1.0 0.9825334101
Zn  Zn8  1  0.79941000  0.00000000  0.50000000  1.0 1.0621546929
Zn  Zn9  1  0.23128000  0.50000000  0.50000000  1.0 0.9825334101
Zn  Zn10  1  0.29941000  0.50000000  0.50000000  1.0 1.0621546929
Zn  Zn11  1  0.76872000  0.00000000  0.00000000  1.0 0.9825334101
Zn  Zn12  1  0.70059000  0.00000000  0.00000000  1.0 1.0621546929
Zn  Zn13  1  0.00000000  0.26872000  0.50000000  1.0 0.9825334101
Zn  Zn14  1  0.00000000  0.20059000  0.50000000  1.0 1.0621546929
Zn  Zn15  1  0.00000000  0.76872000  0.00000000  1.0 0.9825334101
Zn  Zn16  1  0.00000000  0.70059000  0.00000000  1.0 1.0621546929
Zn  Zn17  1  0.50000000  0.76872000  0.50000000  1.0 0.9825334101
Zn  Zn18  1  0.50000000  0.70059000  0.50000000  1.0 1.0621546929
Zn  Zn19  1  0.00000000  0.73128000  0.50000000  1.0 0.9825334101
Zn  Zn20  1  0.00000000  0.79941000  0.50000000  1.0 1.0621546929
Zn  Zn21  1  0.00000000  0.23128000  0.00000000  1.0 0.9825334101
Zn  Zn22  1  0.00000000  0.29941000  0.00000000  1.0 1.0621546929
Zn  Zn23  1  0.50000000  0.26872000  0.00000000  1.0 0.9825334101
Zn  Zn24  1  0.50000000  0.20059000  0.00000000  1.0 1.0621546929
Zn  Zn25  1  0.50000000  0.00000000  0.26872000  1.0 0.9825334101
Zn  Zn26  1  0.50000000  0.00000000  0.20059000  1.0 1.0621546929
Zn  Zn27  1  0.50000000  0.50000000  0.76872000  1.0 0.9825334101
Zn  Zn28  1  0.50000000  0.50000000  0.70059000  1.0 1.0621546929
Zn  Zn29  1  0.50000000  0.00000000  0.73128000  1.0 0.9825334101
Zn  Zn30  1  0.50000000  0.00000000  0.79941000  1.0 1.0621546929
Zn  Zn31  1  0.50000000  0.50000000  0.23128000  1.0 0.9825334101
Zn  Zn32  1  0.50000000  0.50000000  0.29941000  1.0 1.0621546929
Zn  Zn33  1  0.00000000  0.50000000  0.73128000  1.0 0.9825334101
Zn  Zn34  1  0.00000000  0.50000000  0.79941000  1.0 1.0621546929
Zn  Zn35  1  0.00000000  0.00000000  0.76872000  1.0 0.9825334101
Zn  Zn36  1  0.00000000  0.00000000  0.70059000  1.0 1.0621546929
Zn  Zn37  1  0.50000000  0.73128000  0.00000000  1.0 0.9825334101
Zn  Zn38  1  0.50000000  0.79941000  0.00000000  1.0 1.0621546929
Zn  Zn39  1  0.50000000  0.23128000  0.50000000  1.0 0.9825334101
Zn  Zn40  1  0.50000000  0.29941000  0.50000000  1.0 1.0621546929
Zn  Zn41  1  0.26872000  0.00000000  0.50000000  1.0 0.9825334101
Zn  Zn42  1  0.20059000  0.00000000  0.50000000  1.0 1.0621546929
Zn  Zn43  1  0.23128000  0.00000000  0.00000000  1.0 0.9825334101
Zn  Zn44  1  0.29941000  0.00000000  0.00000000  1.0 1.0621546929
Zn  Zn45  1  0.00000000  0.00000000  0.23128000  1.0 0.9825334101
Zn  Zn46  1  0.00000000  0.00000000  0.29941000  1.0 1.0621546929
Zn  Zn47  1  0.00000000  0.50000000  0.26872000  1.0 0.9825334101
Zn  Zn48  1  0.00000000  0.50000000  0.20059000  1.0 1.0621546929
Zn  Zn49  1  0.16010000  0.33990000  0.16010000  1.0 1.3019760102
Zn  Zn50  1  0.11336000  0.38664000  0.11336000  1.0 1.0282126926
Zn  Zn51  1  0.83990000  0.66010000  0.16010000  1.0 1.3019760102
Zn  Zn52  1  0.88664000  0.61336000  0.11336000  1.0 1.0282126926
Zn  Zn53  1  0.33990000  0.16010000  0.16010000  1.0 1.3019760102
Zn  Zn54  1  0.38664000  0.11336000  0.11336000  1.0 1.0282126926
Zn  Zn55  1  0.83990000  0.33990000  0.83990000  1.0 1.3019760102
Zn  Zn56  1  0.88664000  0.38664000  0.88664000  1.0 1.0282126926
Zn  Zn57  1  0.33990000  0.33990000  0.33990000  1.0 1.3019760102
Zn  Zn58  1  0.38664000  0.38664000  0.38664000  1.0 1.0282126926
Zn  Zn59  1  0.16010000  0.66010000  0.83990000  1.0 1.3019760102
Zn  Zn60  1  0.11336000  0.61336000  0.88664000  1.0 1.0282126926
Zn  Zn61  1  0.16010000  0.16010000  0.33990000  1.0 1.3019760102
Zn  Zn62  1  0.11336000  0.11336000  0.38664000  1.0 1.0282126926
Zn  Zn63  1  0.16010000  0.83990000  0.66010000  1.0 1.3019760102
Zn  Zn64  1  0.11336000  0.88664000  0.61336000  1.0 1.0282126926
Zn  Zn65  1  0.83990000  0.83990000  0.33990000  1.0 1.3019760102
Zn  Zn66  1  0.88664000  0.88664000  0.38664000  1.0 1.0282126926
Zn  Zn67  1  0.83990000  0.16010000  0.66010000  1.0 1.3019760102
Zn  Zn68  1  0.88664000  0.11336000  0.61336000  1.0 1.0282126926
Zn  Zn69  1  0.33990000  0.66010000  0.66010000  1.0 1.3019760102
Zn  Zn70  1  0.38664000  0.61336000  0.61336000  1.0 1.0282126926
Zn  Zn71  1  0.66010000  0.16010000  0.83990000  1.0 1.3019760102
Zn  Zn72  1  0.61336000  0.11336000  0.88664000  1.0 1.0282126926
Zn  Zn73  1  0.66010000  0.66010000  0.33990000  1.0 1.3019760102
Zn  Zn74  1  0.61336000  0.61336000  0.38664000  1.0 1.0282126926
Zn  Zn75  1  0.33990000  0.83990000  0.83990000  1.0 1.3019760102
Zn  Zn76  1  0.38664000  0.88664000  0.88664000  1.0 1.0282126926
Zn  Zn77  1  0.66010000  0.83990000  0.16010000  1.0 1.3019760102
Zn  Zn78  1  0.61336000  0.88664000  0.11336000  1.0 1.0282126926
Zn  Zn79  1  0.66010000  0.33990000  0.66010000  1.0 1.3019760102
Zn  Zn80  1  0.61336000  0.38664000  0.61336000  1.0 1.0282126926
Zn  Zn81  1  0.33990000  0.16010000  0.83990000  1.0 1.3019760102
Zn  Zn82  1  0.38664000  0.11336000  0.88664000  1.0 1.0282126926
Zn  Zn83  1  0.33990000  0.66010000  0.33990000  1.0 1.3019760102
Zn  Zn84  1  0.38664000  0.61336000  0.38664000  1.0 1.0282126926
Zn  Zn85  1  0.66010000  0.83990000  0.83990000  1.0 1.3019760102
Zn  Zn86  1  0.61336000  0.88664000  0.88664000  1.0 1.0282126926
Zn  Zn87  1  0.66010000  0.33990000  0.33990000  1.0 1.3019760102
Zn  Zn88  1  0.61336000  0.38664000  0.38664000  1.0 1.0282126926
Zn  Zn89  1  0.16010000  0.83990000  0.33990000  1.0 1.3019760102
Zn  Zn90  1  0.11336000  0.88664000  0.38664000  1.0 1.0282126926
Zn  Zn91  1  0.16010000  0.33990000  0.83990000  1.0 1.3019760102
Zn  Zn92  1  0.11336000  0.38664000  0.88664000  1.0 1.0282126926
Zn  Zn93  1  0.33990000  0.83990000  0.16010000  1.0 1.3019760102
Zn  Zn94  1  0.38664000  0.88664000  0.11336000  1.0 1.0282126926
Zn  Zn95  1  0.33990000  0.33990000  0.66010000  1.0 1.3019760102
Zn  Zn96  1  0.38664000  0.38664000  0.61336000  1.0 1.0282126926
Zn  Zn97  1  0.66010000  0.16010000  0.16010000  1.0 1.3019760102
Zn  Zn98  1  0.61336000  0.11336000  0.11336000  1.0 1.0282126926
Zn  Zn99  1  0.66010000  0.66010000  0.66010000  1.0 1.3019760102
Zn  Zn100  1  0.61336000  0.61336000  0.61336000  1.0 1.0282126926
Zn  Zn101  1  0.16010000  0.16010000  0.66010000  1.0 1.3019760102
Zn  Zn102  1  0.11336000  0.11336000  0.61336000  1.0 1.0282126926
Zn  Zn103  1  0.83990000  0.16010000  0.33990000  1.0 1.3019760102
Zn  Zn104  1  0.88664000  0.11336000  0.38664000  1.0 1.0282126926
Zn  Zn105  1  0.83990000  0.83990000  0.66010000  1.0 1.3019760102
Zn  Zn106  1  0.88664000  0.88664000  0.61336000  1.0 1.0282126926
Zn  Zn107  1  0.83990000  0.33990000  0.16010000  1.0 1.3019760102
Zn  Zn108  1  0.88664000  0.38664000  0.11336000  1.0 1.0282126926
Zn  Zn109  1  0.16010000  0.66010000  0.16010000  1.0 1.3019760102
Zn  Zn110  1  0.11336000  0.61336000  0.11336000  1.0 1.0282126926
Zn  Zn111  1  0.83990000  0.66010000  0.83990000  1.0 1.3019760102
Zn  Zn112  1  0.88664000  0.61336000  0.88664000  1.0 1.0282126926
H  H385  1  0.18880000  0.43050000  0.06950000  1.0 0.1602114904
H  H386  1  0.23850000  0.37430000  0.12570000  1.0 0.1602114904
H  H387  1  0.28170000  0.43170000  0.06830000  1.0 0.1442708797
H  H388  1  0.68880000  0.43050000  0.56950000  1.0 0.1602114904
H  H389  1  0.73850000  0.37430000  0.62570000  1.0 0.1602114904
H  H390  1  0.78170000  0.43170000  0.56830000  1.0 0.1442708797
H  H391  1  0.81120000  0.56950000  0.06950000  1.0 0.1602114904
H  H392  1  0.76150000  0.62570000  0.12570000  1.0 0.1602114904
H  H393  1  0.71830000  0.56830000  0.06830000  1.0 0.1442708797
H  H394  1  0.31120000  0.56950000  0.56950000  1.0 0.1602114904
H  H395  1  0.26150000  0.62570000  0.62570000  1.0 0.1602114904
H  H396  1  0.21830000  0.56830000  0.56830000  1.0 0.1442708797
H  H397  1  0.31120000  0.06950000  0.06950000  1.0 0.1602114904
H  H398  1  0.26150000  0.12570000  0.12570000  1.0 0.1602114904
H  H399  1  0.21830000  0.06830000  0.06830000  1.0 0.1442708797
H  H400  1  0.81120000  0.43050000  0.93050000  1.0 0.1602114904
H  H401  1  0.76150000  0.37430000  0.87430000  1.0 0.1602114904
H  H402  1  0.71830000  0.43170000  0.93170000  1.0 0.1442708797
H  H403  1  0.31120000  0.43050000  0.43050000  1.0 0.1602114904
H  H404  1  0.26150000  0.37430000  0.37430000  1.0 0.1602114904
H  H405  1  0.21830000  0.43170000  0.43170000  1.0 0.1442708797
H  H406  1  0.18880000  0.56950000  0.93050000  1.0 0.1602114904
H  H407  1  0.23850000  0.62570000  0.87430000  1.0 0.1602114904
H  H408  1  0.28170000  0.56830000  0.93170000  1.0 0.1442708797
H  H409  1  0.18880000  0.06950000  0.43050000  1.0 0.1602114904
H  H410  1  0.23850000  0.12570000  0.37430000  1.0 0.1602114904
H  H411  1  0.28170000  0.06830000  0.43170000  1.0 0.1442708797
H  H412  1  0.68880000  0.56950000  0.43050000  1.0 0.1602114904
H  H413  1  0.73850000  0.62570000  0.37430000  1.0 0.1602114904
H  H414  1  0.78170000  0.56830000  0.43170000  1.0 0.1442708797
H  H415  1  0.06950000  0.18880000  0.43050000  1.0 0.1602114904
H  H416  1  0.12570000  0.23850000  0.37430000  1.0 0.1602114904
H  H417  1  0.06830000  0.28170000  0.43170000  1.0 0.1442708797
H  H418  1  0.06950000  0.68880000  0.93050000  1.0 0.1602114904
H  H419  1  0.12570000  0.73850000  0.87430000  1.0 0.1602114904
H  H420  1  0.06830000  0.78170000  0.93170000  1.0 0.1442708797
H  H421  1  0.06950000  0.81120000  0.56950000  1.0 0.1602114904
H  H422  1  0.12570000  0.76150000  0.62570000  1.0 0.1602114904
H  H423  1  0.06830000  0.71830000  0.56830000  1.0 0.1442708797
H  H424  1  0.06950000  0.31120000  0.06950000  1.0 0.1602114904
H  H425  1  0.12570000  0.26150000  0.12570000  1.0 0.1602114904
H  H426  1  0.06830000  0.21830000  0.06830000  1.0 0.1442708797
H  H427  1  0.93050000  0.81120000  0.43050000  1.0 0.1602114904
H  H428  1  0.87430000  0.76150000  0.37430000  1.0 0.1602114904
H  H429  1  0.93170000  0.71830000  0.43170000  1.0 0.1442708797
H  H430  1  0.93050000  0.31120000  0.93050000  1.0 0.1602114904
H  H431  1  0.87430000  0.26150000  0.87430000  1.0 0.1602114904
H  H432  1  0.93170000  0.21830000  0.93170000  1.0 0.1442708797
H  H433  1  0.43050000  0.31120000  0.43050000  1.0 0.1602114904
H  H434  1  0.37430000  0.26150000  0.37430000  1.0 0.1602114904
H  H435  1  0.43170000  0.21830000  0.43170000  1.0 0.1442708797
H  H436  1  0.93050000  0.18880000  0.56950000  1.0 0.1602114904
H  H437  1  0.87430000  0.23850000  0.62570000  1.0 0.1602114904
H  H438  1  0.93170000  0.28170000  0.56830000  1.0 0.1442708797
H  H439  1  0.93050000  0.68880000  0.06950000  1.0 0.1602114904
H  H440  1  0.87430000  0.73850000  0.12570000  1.0 0.1602114904
H  H441  1  0.93170000  0.78170000  0.06830000  1.0 0.1442708797
H  H442  1  0.43050000  0.18880000  0.06950000  1.0 0.1602114904
H  H443  1  0.37430000  0.23850000  0.12570000  1.0 0.1602114904
H  H444  1  0.43170000  0.28170000  0.06830000  1.0 0.1442708797
H  H445  1  0.43050000  0.06950000  0.18880000  1.0 0.1602114904
H  H446  1  0.37430000  0.12570000  0.23850000  1.0 0.1602114904
H  H447  1  0.43170000  0.06830000  0.28170000  1.0 0.1442708797
H  H448  1  0.43050000  0.56950000  0.68880000  1.0 0.1602114904
H  H449  1  0.37430000  0.62570000  0.73850000  1.0 0.1602114904
H  H450  1  0.43170000  0.56830000  0.78170000  1.0 0.1442708797
H  H451  1  0.56950000  0.06950000  0.81120000  1.0 0.1602114904
H  H452  1  0.62570000  0.12570000  0.76150000  1.0 0.1602114904
H  H453  1  0.56830000  0.06830000  0.71830000  1.0 0.1442708797
H  H454  1  0.56950000  0.56950000  0.31120000  1.0 0.1602114904
H  H455  1  0.62570000  0.62570000  0.26150000  1.0 0.1602114904
H  H456  1  0.56830000  0.56830000  0.21830000  1.0 0.1442708797
H  H457  1  0.06950000  0.06950000  0.31120000  1.0 0.1602114904
H  H458  1  0.12570000  0.12570000  0.26150000  1.0 0.1602114904
H  H459  1  0.06830000  0.06830000  0.21830000  1.0 0.1442708797
H  H460  1  0.43050000  0.93050000  0.81120000  1.0 0.1602114904
H  H461  1  0.37430000  0.87430000  0.76150000  1.0 0.1602114904
H  H462  1  0.43170000  0.93170000  0.71830000  1.0 0.1442708797
H  H463  1  0.43050000  0.43050000  0.31120000  1.0 0.1602114904
H  H464  1  0.37430000  0.37430000  0.26150000  1.0 0.1602114904
H  H465  1  0.43170000  0.43170000  0.21830000  1.0 0.1442708797
H  H466  1  0.56950000  0.93050000  0.18880000  1.0 0.1602114904
H  H467  1  0.62570000  0.87430000  0.23850000  1.0 0.1602114904
H  H468  1  0.56830000  0.93170000  0.28170000  1.0 0.1442708797
H  H469  1  0.56950000  0.43050000  0.68880000  1.0 0.1602114904
H  H470  1  0.62570000  0.37430000  0.73850000  1.0 0.1602114904
H  H471  1  0.56830000  0.43170000  0.78170000  1.0 0.1442708797
H  H472  1  0.06950000  0.43050000  0.18880000  1.0 0.1602114904
H  H473  1  0.12570000  0.37430000  0.23850000  1.0 0.1602114904
H  H474  1  0.06830000  0.43170000  0.28170000  1.0 0.1442708797
H  H475  1  0.43050000  0.18880000  0.93050000  1.0 0.1602114904
H  H476  1  0.37430000  0.23850000  0.87430000  1.0 0.1602114904
H  H477  1  0.43170000  0.28170000  0.93170000  1.0 0.1442708797
H  H478  1  0.43050000  0.68880000  0.43050000  1.0 0.1602114904
H  H479  1  0.37430000  0.73850000  0.37430000  1.0 0.1602114904
H  H480  1  0.43170000  0.78170000  0.43170000  1.0 0.1442708797
H  H481  1  0.56950000  0.81120000  0.93050000  1.0 0.1602114904
H  H482  1  0.62570000  0.76150000  0.87430000  1.0 0.1602114904
H  H483  1  0.56830000  0.71830000  0.93170000  1.0 0.1442708797
H  H484  1  0.56950000  0.31120000  0.43050000  1.0 0.1602114904
H  H485  1  0.62570000  0.26150000  0.37430000  1.0 0.1602114904
H  H486  1  0.56830000  0.21830000  0.43170000  1.0 0.1442708797
H  H487  1  0.06950000  0.81120000  0.43050000  1.0 0.1602114904
H  H488  1  0.12570000  0.76150000  0.37430000  1.0 0.1602114904
H  H489  1  0.06830000  0.71830000  0.43170000  1.0 0.1442708797
H  H490  1  0.43050000  0.81120000  0.06950000  1.0 0.1602114904
H  H491  1  0.37430000  0.76150000  0.12570000  1.0 0.1602114904
H  H492  1  0.43170000  0.71830000  0.06830000  1.0 0.1442708797
H  H493  1  0.43050000  0.31120000  0.56950000  1.0 0.1602114904
H  H494  1  0.37430000  0.26150000  0.62570000  1.0 0.1602114904
H  H495  1  0.43170000  0.21830000  0.56830000  1.0 0.1442708797
H  H496  1  0.56950000  0.18880000  0.06950000  1.0 0.1602114904
H  H497  1  0.62570000  0.23850000  0.12570000  1.0 0.1602114904
H  H498  1  0.56830000  0.28170000  0.06830000  1.0 0.1442708797
H  H499  1  0.56950000  0.68880000  0.56950000  1.0 0.1602114904
H  H500  1  0.62570000  0.73850000  0.62570000  1.0 0.1602114904
H  H501  1  0.56830000  0.78170000  0.56830000  1.0 0.1442708797
H  H502  1  0.06950000  0.68880000  0.06950000  1.0 0.1602114904
H  H503  1  0.12570000  0.73850000  0.12570000  1.0 0.1602114904
H  H504  1  0.06830000  0.78170000  0.06830000  1.0 0.1442708797
H  H505  1  0.18880000  0.06950000  0.56950000  1.0 0.1602114904
H  H506  1  0.23850000  0.12570000  0.62570000  1.0 0.1602114904
H  H507  1  0.28170000  0.06830000  0.56830000  1.0 0.1442708797
H  H508  1  0.68880000  0.06950000  0.06950000  1.0 0.1602114904
H  H509  1  0.73850000  0.12570000  0.12570000  1.0 0.1602114904
H  H510  1  0.78170000  0.06830000  0.06830000  1.0 0.1442708797
H  H511  1  0.81120000  0.06950000  0.43050000  1.0 0.1602114904
H  H512  1  0.76150000  0.12570000  0.37430000  1.0 0.1602114904
H  H513  1  0.71830000  0.06830000  0.43170000  1.0 0.1442708797
H  H514  1  0.31120000  0.06950000  0.93050000  1.0 0.1602114904
H  H515  1  0.26150000  0.12570000  0.87430000  1.0 0.1602114904
H  H516  1  0.21830000  0.06830000  0.93170000  1.0 0.1442708797
H  H517  1  0.81120000  0.93050000  0.56950000  1.0 0.1602114904
H  H518  1  0.76150000  0.87430000  0.62570000  1.0 0.1602114904
H  H519  1  0.71830000  0.93170000  0.56830000  1.0 0.1442708797
H  H520  1  0.81120000  0.43050000  0.06950000  1.0 0.1602114904
H  H521  1  0.76150000  0.37430000  0.12570000  1.0 0.1602114904
H  H522  1  0.71830000  0.43170000  0.06830000  1.0 0.1442708797
H  H523  1  0.31120000  0.93050000  0.06950000  1.0 0.1602114904
H  H524  1  0.26150000  0.87430000  0.12570000  1.0 0.1602114904
H  H525  1  0.21830000  0.93170000  0.06830000  1.0 0.1442708797
H  H526  1  0.18880000  0.93050000  0.43050000  1.0 0.1602114904
H  H527  1  0.23850000  0.87430000  0.37430000  1.0 0.1602114904
H  H528  1  0.28170000  0.93170000  0.43170000  1.0 0.1442708797
H  H529  1  0.68880000  0.93050000  0.93050000  1.0 0.1602114904
H  H530  1  0.73850000  0.87430000  0.87430000  1.0 0.1602114904
H  H531  1  0.78170000  0.93170000  0.93170000  1.0 0.1442708797
H  H532  1  0.68880000  0.43050000  0.43050000  1.0 0.1602114904
H  H533  1  0.73850000  0.37430000  0.37430000  1.0 0.1602114904
H  H534  1  0.78170000  0.43170000  0.43170000  1.0 0.1442708797
H  H535  1  0.06950000  0.43050000  0.81120000  1.0 0.1602114904
H  H536  1  0.12570000  0.37430000  0.76150000  1.0 0.1602114904
H  H537  1  0.06830000  0.43170000  0.71830000  1.0 0.1442708797
H  H538  1  0.06950000  0.93050000  0.31120000  1.0 0.1602114904
H  H539  1  0.12570000  0.87430000  0.26150000  1.0 0.1602114904
H  H540  1  0.06830000  0.93170000  0.21830000  1.0 0.1442708797
H  H541  1  0.06950000  0.56950000  0.18880000  1.0 0.1602114904
H  H542  1  0.12570000  0.62570000  0.23850000  1.0 0.1602114904
H  H543  1  0.06830000  0.56830000  0.28170000  1.0 0.1442708797
H  H544  1  0.06950000  0.06950000  0.68880000  1.0 0.1602114904
H  H545  1  0.12570000  0.12570000  0.73850000  1.0 0.1602114904
H  H546  1  0.06830000  0.06830000  0.78170000  1.0 0.1442708797
H  H547  1  0.93050000  0.43050000  0.18880000  1.0 0.1602114904
H  H548  1  0.87430000  0.37430000  0.23850000  1.0 0.1602114904
H  H549  1  0.93170000  0.43170000  0.28170000  1.0 0.1442708797
H  H550  1  0.93050000  0.93050000  0.68880000  1.0 0.1602114904
H  H551  1  0.87430000  0.87430000  0.73850000  1.0 0.1602114904
H  H552  1  0.93170000  0.93170000  0.78170000  1.0 0.1442708797
H  H553  1  0.43050000  0.43050000  0.68880000  1.0 0.1602114904
H  H554  1  0.37430000  0.37430000  0.73850000  1.0 0.1602114904
H  H555  1  0.43170000  0.43170000  0.78170000  1.0 0.1442708797
H  H556  1  0.93050000  0.56950000  0.81120000  1.0 0.1602114904
H  H557  1  0.87430000  0.62570000  0.76150000  1.0 0.1602114904
H  H558  1  0.93170000  0.56830000  0.71830000  1.0 0.1442708797
H  H559  1  0.93050000  0.06950000  0.31120000  1.0 0.1602114904
H  H560  1  0.87430000  0.12570000  0.26150000  1.0 0.1602114904
H  H561  1  0.93170000  0.06830000  0.21830000  1.0 0.1442708797
H  H562  1  0.43050000  0.06950000  0.81120000  1.0 0.1602114904
H  H563  1  0.37430000  0.12570000  0.76150000  1.0 0.1602114904
H  H564  1  0.43170000  0.06830000  0.71830000  1.0 0.1442708797
H  H565  1  0.81120000  0.56950000  0.93050000  1.0 0.1602114904
H  H566  1  0.76150000  0.62570000  0.87430000  1.0 0.1602114904
H  H567  1  0.71830000  0.56830000  0.93170000  1.0 0.1442708797
H  H568  1  0.31120000  0.56950000  0.43050000  1.0 0.1602114904
H  H569  1  0.26150000  0.62570000  0.37430000  1.0 0.1602114904
H  H570  1  0.21830000  0.56830000  0.43170000  1.0 0.1442708797
H  H571  1  0.18880000  0.43050000  0.93050000  1.0 0.1602114904
H  H572  1  0.23850000  0.37430000  0.87430000  1.0 0.1602114904
H  H573  1  0.28170000  0.43170000  0.93170000  1.0 0.1442708797
H  H574  1  0.18880000  0.56950000  0.06950000  1.0 0.1602114904
H  H575  1  0.23850000  0.62570000  0.12570000  1.0 0.1602114904
H  H576  1  0.28170000  0.56830000  0.06830000  1.0 0.1442708797
H  H577  1  0.68880000  0.56950000  0.56950000  1.0 0.1602114904
H  H578  1  0.73850000  0.62570000  0.62570000  1.0 0.1602114904
H  H579  1  0.78170000  0.56830000  0.56830000  1.0 0.1442708797
H  H580  1  0.31120000  0.43050000  0.56950000  1.0 0.1602114904
H  H581  1  0.26150000  0.37430000  0.62570000  1.0 0.1602114904
H  H582  1  0.21830000  0.43170000  0.56830000  1.0 0.1442708797
H  H583  1  0.93050000  0.81120000  0.56950000  1.0 0.1602114904
H  H584  1  0.87430000  0.76150000  0.62570000  1.0 0.1602114904
H  H585  1  0.93170000  0.71830000  0.56830000  1.0 0.1442708797
H  H586  1  0.93050000  0.31120000  0.06950000  1.0 0.1602114904
H  H587  1  0.87430000  0.26150000  0.12570000  1.0 0.1602114904
H  H588  1  0.93170000  0.21830000  0.06830000  1.0 0.1442708797
H  H589  1  0.93050000  0.18880000  0.43050000  1.0 0.1602114904
H  H590  1  0.87430000  0.23850000  0.37430000  1.0 0.1602114904
H  H591  1  0.93170000  0.28170000  0.43170000  1.0 0.1442708797
H  H592  1  0.93050000  0.68880000  0.93050000  1.0 0.1602114904
H  H593  1  0.87430000  0.73850000  0.87430000  1.0 0.1602114904
H  H594  1  0.93170000  0.78170000  0.93170000  1.0 0.1442708797
H  H595  1  0.06950000  0.18880000  0.56950000  1.0 0.1602114904
H  H596  1  0.12570000  0.23850000  0.62570000  1.0 0.1602114904
H  H597  1  0.06830000  0.28170000  0.56830000  1.0 0.1442708797
H  H598  1  0.06950000  0.31120000  0.93050000  1.0 0.1602114904
H  H599  1  0.12570000  0.26150000  0.87430000  1.0 0.1602114904
H  H600  1  0.06830000  0.21830000  0.93170000  1.0 0.1442708797
H  H601  1  0.56950000  0.93050000  0.81120000  1.0 0.1602114904
H  H602  1  0.62570000  0.87430000  0.76150000  1.0 0.1602114904
H  H603  1  0.56830000  0.93170000  0.71830000  1.0 0.1442708797
H  H604  1  0.56950000  0.43050000  0.31120000  1.0 0.1602114904
H  H605  1  0.62570000  0.37430000  0.26150000  1.0 0.1602114904
H  H606  1  0.56830000  0.43170000  0.21830000  1.0 0.1442708797
H  H607  1  0.43050000  0.93050000  0.18880000  1.0 0.1602114904
H  H608  1  0.37430000  0.87430000  0.23850000  1.0 0.1602114904
H  H609  1  0.43170000  0.93170000  0.28170000  1.0 0.1442708797
H  H610  1  0.56950000  0.06950000  0.18880000  1.0 0.1602114904
H  H611  1  0.62570000  0.12570000  0.23850000  1.0 0.1602114904
H  H612  1  0.56830000  0.06830000  0.28170000  1.0 0.1442708797
H  H613  1  0.56950000  0.56950000  0.68880000  1.0 0.1602114904
H  H614  1  0.62570000  0.62570000  0.73850000  1.0 0.1602114904
H  H615  1  0.56830000  0.56830000  0.78170000  1.0 0.1442708797
H  H616  1  0.43050000  0.56950000  0.31120000  1.0 0.1602114904
H  H617  1  0.37430000  0.62570000  0.26150000  1.0 0.1602114904
H  H618  1  0.43170000  0.56830000  0.21830000  1.0 0.1442708797
H  H619  1  0.56950000  0.81120000  0.06950000  1.0 0.1602114904
H  H620  1  0.62570000  0.76150000  0.12570000  1.0 0.1602114904
H  H621  1  0.56830000  0.71830000  0.06830000  1.0 0.1442708797
H  H622  1  0.56950000  0.31120000  0.56950000  1.0 0.1602114904
H  H623  1  0.62570000  0.26150000  0.62570000  1.0 0.1602114904
H  H624  1  0.56830000  0.21830000  0.56830000  1.0 0.1442708797
H  H625  1  0.43050000  0.68880000  0.56950000  1.0 0.1602114904
H  H626  1  0.37430000  0.73850000  0.62570000  1.0 0.1602114904
H  H627  1  0.43170000  0.78170000  0.56830000  1.0 0.1442708797
H  H628  1  0.56950000  0.18880000  0.93050000  1.0 0.1602114904
H  H629  1  0.62570000  0.23850000  0.87430000  1.0 0.1602114904
H  H630  1  0.56830000  0.28170000  0.93170000  1.0 0.1442708797
H  H631  1  0.56950000  0.68880000  0.43050000  1.0 0.1602114904
H  H632  1  0.62570000  0.73850000  0.37430000  1.0 0.1602114904
H  H633  1  0.56830000  0.78170000  0.43170000  1.0 0.1442708797
H  H634  1  0.43050000  0.81120000  0.93050000  1.0 0.1602114904
H  H635  1  0.37430000  0.76150000  0.87430000  1.0 0.1602114904
H  H636  1  0.43170000  0.71830000  0.93170000  1.0 0.1442708797
H  H637  1  0.81120000  0.93050000  0.43050000  1.0 0.1602114904
H  H638  1  0.76150000  0.87430000  0.37430000  1.0 0.1602114904
H  H639  1  0.71830000  0.93170000  0.43170000  1.0 0.1442708797
H  H640  1  0.31120000  0.93050000  0.93050000  1.0 0.1602114904
H  H641  1  0.26150000  0.87430000  0.87430000  1.0 0.1602114904
H  H642  1  0.21830000  0.93170000  0.93170000  1.0 0.1442708797
H  H643  1  0.18880000  0.93050000  0.56950000  1.0 0.1602114904
H  H644  1  0.23850000  0.87430000  0.62570000  1.0 0.1602114904
H  H645  1  0.28170000  0.93170000  0.56830000  1.0 0.1442708797
H  H646  1  0.68880000  0.93050000  0.06950000  1.0 0.1602114904
H  H647  1  0.73850000  0.87430000  0.12570000  1.0 0.1602114904
H  H648  1  0.78170000  0.93170000  0.06830000  1.0 0.1442708797
H  H649  1  0.68880000  0.06950000  0.93050000  1.0 0.1602114904
H  H650  1  0.73850000  0.12570000  0.87430000  1.0 0.1602114904
H  H651  1  0.78170000  0.06830000  0.93170000  1.0 0.1442708797
H  H652  1  0.81120000  0.06950000  0.56950000  1.0 0.1602114904
H  H653  1  0.76150000  0.12570000  0.62570000  1.0 0.1602114904
H  H654  1  0.71830000  0.06830000  0.56830000  1.0 0.1442708797
H  H655  1  0.93050000  0.56950000  0.18880000  1.0 0.1602114904
H  H656  1  0.87430000  0.62570000  0.23850000  1.0 0.1602114904
H  H657  1  0.93170000  0.56830000  0.28170000  1.0 0.1442708797
H  H658  1  0.93050000  0.06950000  0.68880000  1.0 0.1602114904
H  H659  1  0.87430000  0.12570000  0.73850000  1.0 0.1602114904
H  H660  1  0.93170000  0.06830000  0.78170000  1.0 0.1442708797
H  H661  1  0.93050000  0.43050000  0.81120000  1.0 0.1602114904
H  H662  1  0.87430000  0.37430000  0.76150000  1.0 0.1602114904
H  H663  1  0.93170000  0.43170000  0.71830000  1.0 0.1442708797
H  H664  1  0.93050000  0.93050000  0.31120000  1.0 0.1602114904
H  H665  1  0.87430000  0.87430000  0.26150000  1.0 0.1602114904
H  H666  1  0.93170000  0.93170000  0.21830000  1.0 0.1442708797
H  H667  1  0.06950000  0.56950000  0.81120000  1.0 0.1602114904
H  H668  1  0.12570000  0.62570000  0.76150000  1.0 0.1602114904
H  H669  1  0.06830000  0.56830000  0.71830000  1.0 0.1442708797
H  H670  1  0.06950000  0.93050000  0.68880000  1.0 0.1602114904
H  H671  1  0.12570000  0.87430000  0.73850000  1.0 0.1602114904
H  H672  1  0.06830000  0.93170000  0.78170000  1.0 0.1442708797
H  H673  1  0.32395000  0.32395000  0.08270000  1.0 0.1602114904
H  H674  1  0.32395000  0.82395000  0.58270000  1.0 0.1602114904
H  H675  1  0.82395000  0.32395000  0.58270000  1.0 0.1602114904
H  H676  1  0.82395000  0.82395000  0.08270000  1.0 0.1602114904
H  H677  1  0.67605000  0.67605000  0.08270000  1.0 0.1602114904
H  H678  1  0.67605000  0.17605000  0.58270000  1.0 0.1602114904
H  H679  1  0.17605000  0.67605000  0.58270000  1.0 0.1602114904
H  H680  1  0.17605000  0.17605000  0.08270000  1.0 0.1602114904
H  H681  1  0.67605000  0.32395000  0.91730000  1.0 0.1602114904
H  H682  1  0.67605000  0.82395000  0.41730000  1.0 0.1602114904
H  H683  1  0.17605000  0.32395000  0.41730000  1.0 0.1602114904
H  H684  1  0.17605000  0.82395000  0.91730000  1.0 0.1602114904
H  H685  1  0.32395000  0.67605000  0.91730000  1.0 0.1602114904
H  H686  1  0.32395000  0.17605000  0.41730000  1.0 0.1602114904
H  H687  1  0.82395000  0.67605000  0.41730000  1.0 0.1602114904
H  H688  1  0.82395000  0.17605000  0.91730000  1.0 0.1602114904
H  H689  1  0.08270000  0.32395000  0.32395000  1.0 0.1602114904
H  H690  1  0.08270000  0.82395000  0.82395000  1.0 0.1602114904
H  H691  1  0.58270000  0.32395000  0.82395000  1.0 0.1602114904
H  H692  1  0.58270000  0.82395000  0.32395000  1.0 0.1602114904
H  H693  1  0.08270000  0.67605000  0.67605000  1.0 0.1602114904
H  H694  1  0.08270000  0.17605000  0.17605000  1.0 0.1602114904
H  H695  1  0.58270000  0.67605000  0.17605000  1.0 0.1602114904
H  H696  1  0.58270000  0.17605000  0.67605000  1.0 0.1602114904
H  H697  1  0.91730000  0.67605000  0.32395000  1.0 0.1602114904
H  H698  1  0.91730000  0.17605000  0.82395000  1.0 0.1602114904
H  H699  1  0.41730000  0.67605000  0.82395000  1.0 0.1602114904
H  H700  1  0.41730000  0.17605000  0.32395000  1.0 0.1602114904
H  H701  1  0.91730000  0.32395000  0.67605000  1.0 0.1602114904
H  H702  1  0.91730000  0.82395000  0.17605000  1.0 0.1602114904
H  H703  1  0.41730000  0.32395000  0.17605000  1.0 0.1602114904
H  H704  1  0.41730000  0.82395000  0.67605000  1.0 0.1602114904
H  H705  1  0.32395000  0.08270000  0.32395000  1.0 0.1602114904
H  H706  1  0.32395000  0.58270000  0.82395000  1.0 0.1602114904
H  H707  1  0.82395000  0.08270000  0.82395000  1.0 0.1602114904
H  H708  1  0.82395000  0.58270000  0.32395000  1.0 0.1602114904
H  H709  1  0.67605000  0.08270000  0.67605000  1.0 0.1602114904
H  H710  1  0.67605000  0.58270000  0.17605000  1.0 0.1602114904
H  H711  1  0.17605000  0.08270000  0.17605000  1.0 0.1602114904
H  H712  1  0.17605000  0.58270000  0.67605000  1.0 0.1602114904
H  H713  1  0.32395000  0.91730000  0.67605000  1.0 0.1602114904
H  H714  1  0.32395000  0.41730000  0.17605000  1.0 0.1602114904
H  H715  1  0.82395000  0.91730000  0.17605000  1.0 0.1602114904
H  H716  1  0.82395000  0.41730000  0.67605000  1.0 0.1602114904
H  H717  1  0.67605000  0.91730000  0.32395000  1.0 0.1602114904
H  H718  1  0.67605000  0.41730000  0.82395000  1.0 0.1602114904
H  H719  1  0.17605000  0.91730000  0.82395000  1.0 0.1602114904
H  H720  1  0.17605000  0.41730000  0.32395000  1.0 0.1602114904
H  H721  1  0.32395000  0.32395000  0.91730000  1.0 0.1602114904
H  H722  1  0.32395000  0.82395000  0.41730000  1.0 0.1602114904
H  H723  1  0.82395000  0.32395000  0.41730000  1.0 0.1602114904
H  H724  1  0.82395000  0.82395000  0.91730000  1.0 0.1602114904
H  H725  1  0.67605000  0.67605000  0.91730000  1.0 0.1602114904
H  H726  1  0.67605000  0.17605000  0.41730000  1.0 0.1602114904
H  H727  1  0.17605000  0.67605000  0.41730000  1.0 0.1602114904
H  H728  1  0.17605000  0.17605000  0.91730000  1.0 0.1602114904
H  H729  1  0.32395000  0.67605000  0.08270000  1.0 0.1602114904
H  H730  1  0.32395000  0.17605000  0.58270000  1.0 0.1602114904
H  H731  1  0.82395000  0.67605000  0.58270000  1.0 0.1602114904
H  H732  1  0.82395000  0.17605000  0.08270000  1.0 0.1602114904
H  H733  1  0.67605000  0.32395000  0.08270000  1.0 0.1602114904
H  H734  1  0.67605000  0.82395000  0.58270000  1.0 0.1602114904
H  H735  1  0.17605000  0.32395000  0.58270000  1.0 0.1602114904
H  H736  1  0.17605000  0.82395000  0.08270000  1.0 0.1602114904
H  H737  1  0.32395000  0.08270000  0.67605000  1.0 0.1602114904
H  H738  1  0.32395000  0.58270000  0.17605000  1.0 0.1602114904
H  H739  1  0.82395000  0.08270000  0.17605000  1.0 0.1602114904
H  H740  1  0.82395000  0.58270000  0.67605000  1.0 0.1602114904
H  H741  1  0.67605000  0.08270000  0.32395000  1.0 0.1602114904
H  H742  1  0.67605000  0.58270000  0.82395000  1.0 0.1602114904
H  H743  1  0.17605000  0.08270000  0.82395000  1.0 0.1602114904
H  H744  1  0.17605000  0.58270000  0.32395000  1.0 0.1602114904
H  H745  1  0.67605000  0.91730000  0.67605000  1.0 0.1602114904
H  H746  1  0.67605000  0.41730000  0.17605000  1.0 0.1602114904
H  H747  1  0.17605000  0.91730000  0.17605000  1.0 0.1602114904
H  H748  1  0.17605000  0.41730000  0.67605000  1.0 0.1602114904
H  H749  1  0.32395000  0.91730000  0.32395000  1.0 0.1602114904
H  H750  1  0.32395000  0.41730000  0.82395000  1.0 0.1602114904
H  H751  1  0.82395000  0.91730000  0.82395000  1.0 0.1602114904
H  H752  1  0.82395000  0.41730000  0.32395000  1.0 0.1602114904
H  H753  1  0.08270000  0.32395000  0.67605000  1.0 0.1602114904
H  H754  1  0.08270000  0.82395000  0.17605000  1.0 0.1602114904
H  H755  1  0.58270000  0.32395000  0.17605000  1.0 0.1602114904
H  H756  1  0.58270000  0.82395000  0.67605000  1.0 0.1602114904
H  H757  1  0.08270000  0.67605000  0.32395000  1.0 0.1602114904
H  H758  1  0.08270000  0.17605000  0.82395000  1.0 0.1602114904
H  H759  1  0.58270000  0.67605000  0.82395000  1.0 0.1602114904
H  H760  1  0.58270000  0.17605000  0.32395000  1.0 0.1602114904
H  H761  1  0.91730000  0.32395000  0.32395000  1.0 0.1602114904
H  H762  1  0.91730000  0.82395000  0.82395000  1.0 0.1602114904
H  H763  1  0.41730000  0.32395000  0.82395000  1.0 0.1602114904
H  H764  1  0.41730000  0.82395000  0.32395000  1.0 0.1602114904
H  H765  1  0.91730000  0.67605000  0.67605000  1.0 0.1602114904
H  H766  1  0.91730000  0.17605000  0.17605000  1.0 0.1602114904
H  H767  1  0.41730000  0.67605000  0.17605000  1.0 0.1602114904
H  H768  1  0.41730000  0.17605000  0.67605000  1.0 0.1602114904
H  H1  1  0.32990000  0.35600000  0.06610000  0.5 0.1313720531
H  H2  1  0.31780000  0.42140000  0.10480000  0.5 0.1085470011
H  H3  1  0.32990000  0.85600000  0.56610000  0.5 0.1313720531
H  H4  1  0.31780000  0.92140000  0.60480000  0.5 0.1085470011
H  H5  1  0.82990000  0.35600000  0.56610000  0.5 0.1313720531
H  H6  1  0.81780000  0.42140000  0.60480000  0.5 0.1085470011
H  H7  1  0.82990000  0.85600000  0.06610000  0.5 0.1313720531
H  H8  1  0.81780000  0.92140000  0.10480000  0.5 0.1085470011
H  H9  1  0.67010000  0.64400000  0.06610000  0.5 0.1313720531
H  H10  1  0.68220000  0.57860000  0.10480000  0.5 0.1085470011
H  H11  1  0.67010000  0.14400000  0.56610000  0.5 0.1313720531
H  H12  1  0.68220000  0.07860000  0.60480000  0.5 0.1085470011
H  H13  1  0.17010000  0.64400000  0.56610000  0.5 0.1313720531
H  H14  1  0.18220000  0.57860000  0.60480000  0.5 0.1085470011
H  H15  1  0.17010000  0.14400000  0.06610000  0.5 0.1313720531
H  H16  1  0.18220000  0.07860000  0.10480000  0.5 0.1085470011
H  H17  1  0.67010000  0.35600000  0.93390000  0.5 0.1313720531
H  H18  1  0.68220000  0.42140000  0.89520000  0.5 0.1085470011
H  H19  1  0.67010000  0.85600000  0.43390000  0.5 0.1313720531
H  H20  1  0.68220000  0.92140000  0.39520000  0.5 0.1085470011
H  H21  1  0.17010000  0.35600000  0.43390000  0.5 0.1313720531
H  H22  1  0.18220000  0.42140000  0.39520000  0.5 0.1085470011
H  H23  1  0.17010000  0.85600000  0.93390000  0.5 0.1313720531
H  H24  1  0.18220000  0.92140000  0.89520000  0.5 0.1085470011
H  H25  1  0.32990000  0.64400000  0.93390000  0.5 0.1313720531
H  H26  1  0.31780000  0.57860000  0.89520000  0.5 0.1085470011
H  H27  1  0.32990000  0.14400000  0.43390000  0.5 0.1313720531
H  H28  1  0.31780000  0.07860000  0.39520000  0.5 0.1085470011
H  H29  1  0.82990000  0.64400000  0.43390000  0.5 0.1313720531
H  H30  1  0.81780000  0.57860000  0.39520000  0.5 0.1085470011
H  H31  1  0.82990000  0.14400000  0.93390000  0.5 0.1313720531
H  H32  1  0.81780000  0.07860000  0.89520000  0.5 0.1085470011
H  H33  1  0.06610000  0.32990000  0.35600000  0.5 0.1313720531
H  H34  1  0.10480000  0.31780000  0.42140000  0.5 0.1085470011
H  H35  1  0.06610000  0.82990000  0.85600000  0.5 0.1313720531
H  H36  1  0.10480000  0.81780000  0.92140000  0.5 0.1085470011
H  H37  1  0.56610000  0.32990000  0.85600000  0.5 0.1313720531
H  H38  1  0.60480000  0.31780000  0.92140000  0.5 0.1085470011
H  H39  1  0.56610000  0.82990000  0.35600000  0.5 0.1313720531
H  H40  1  0.60480000  0.81780000  0.42140000  0.5 0.1085470011
H  H41  1  0.06610000  0.67010000  0.64400000  0.5 0.1313720531
H  H42  1  0.10480000  0.68220000  0.57860000  0.5 0.1085470011
H  H43  1  0.06610000  0.17010000  0.14400000  0.5 0.1313720531
H  H44  1  0.10480000  0.18220000  0.07860000  0.5 0.1085470011
H  H45  1  0.56610000  0.67010000  0.14400000  0.5 0.1313720531
H  H46  1  0.60480000  0.68220000  0.07860000  0.5 0.1085470011
H  H47  1  0.56610000  0.17010000  0.64400000  0.5 0.1313720531
H  H48  1  0.60480000  0.18220000  0.57860000  0.5 0.1085470011
H  H49  1  0.93390000  0.67010000  0.35600000  0.5 0.1313720531
H  H50  1  0.89520000  0.68220000  0.42140000  0.5 0.1085470011
H  H51  1  0.93390000  0.17010000  0.85600000  0.5 0.1313720531
H  H52  1  0.89520000  0.18220000  0.92140000  0.5 0.1085470011
H  H53  1  0.43390000  0.67010000  0.85600000  0.5 0.1313720531
H  H54  1  0.39520000  0.68220000  0.92140000  0.5 0.1085470011
H  H55  1  0.43390000  0.17010000  0.35600000  0.5 0.1313720531
H  H56  1  0.39520000  0.18220000  0.42140000  0.5 0.1085470011
H  H57  1  0.93390000  0.32990000  0.64400000  0.5 0.1313720531
H  H58  1  0.89520000  0.31780000  0.57860000  0.5 0.1085470011
H  H59  1  0.93390000  0.82990000  0.14400000  0.5 0.1313720531
H  H60  1  0.89520000  0.81780000  0.07860000  0.5 0.1085470011
H  H61  1  0.43390000  0.32990000  0.14400000  0.5 0.1313720531
H  H62  1  0.39520000  0.31780000  0.07860000  0.5 0.1085470011
H  H63  1  0.43390000  0.82990000  0.64400000  0.5 0.1313720531
H  H64  1  0.39520000  0.81780000  0.57860000  0.5 0.1085470011
H  H65  1  0.35600000  0.06610000  0.32990000  0.5 0.1313720531
H  H66  1  0.42140000  0.10480000  0.31780000  0.5 0.1085470011
H  H67  1  0.35600000  0.56610000  0.82990000  0.5 0.1313720531
H  H68  1  0.42140000  0.60480000  0.81780000  0.5 0.1085470011
H  H69  1  0.85600000  0.06610000  0.82990000  0.5 0.1313720531
H  H70  1  0.92140000  0.10480000  0.81780000  0.5 0.1085470011
H  H71  1  0.85600000  0.56610000  0.32990000  0.5 0.1313720531
H  H72  1  0.92140000  0.60480000  0.31780000  0.5 0.1085470011
H  H73  1  0.64400000  0.06610000  0.67010000  0.5 0.1313720531
H  H74  1  0.57860000  0.10480000  0.68220000  0.5 0.1085470011
H  H75  1  0.64400000  0.56610000  0.17010000  0.5 0.1313720531
H  H76  1  0.57860000  0.60480000  0.18220000  0.5 0.1085470011
H  H77  1  0.14400000  0.06610000  0.17010000  0.5 0.1313720531
H  H78  1  0.07860000  0.10480000  0.18220000  0.5 0.1085470011
H  H79  1  0.14400000  0.56610000  0.67010000  0.5 0.1313720531
H  H80  1  0.07860000  0.60480000  0.68220000  0.5 0.1085470011
H  H81  1  0.35600000  0.93390000  0.67010000  0.5 0.1313720531
H  H82  1  0.42140000  0.89520000  0.68220000  0.5 0.1085470011
H  H83  1  0.35600000  0.43390000  0.17010000  0.5 0.1313720531
H  H84  1  0.42140000  0.39520000  0.18220000  0.5 0.1085470011
H  H85  1  0.85600000  0.93390000  0.17010000  0.5 0.1313720531
H  H86  1  0.92140000  0.89520000  0.18220000  0.5 0.1085470011
H  H87  1  0.85600000  0.43390000  0.67010000  0.5 0.1313720531
H  H88  1  0.92140000  0.39520000  0.68220000  0.5 0.1085470011
H  H89  1  0.64400000  0.93390000  0.32990000  0.5 0.1313720531
H  H90  1  0.57860000  0.89520000  0.31780000  0.5 0.1085470011
H  H91  1  0.64400000  0.43390000  0.82990000  0.5 0.1313720531
H  H92  1  0.57860000  0.39520000  0.81780000  0.5 0.1085470011
H  H93  1  0.14400000  0.93390000  0.82990000  0.5 0.1313720531
H  H94  1  0.07860000  0.89520000  0.81780000  0.5 0.1085470011
H  H95  1  0.14400000  0.43390000  0.32990000  0.5 0.1313720531
H  H96  1  0.07860000  0.39520000  0.31780000  0.5 0.1085470011
H  H97  1  0.35600000  0.32990000  0.93390000  0.5 0.1313720531
H  H98  1  0.42140000  0.31780000  0.89520000  0.5 0.1085470011
H  H99  1  0.35600000  0.82990000  0.43390000  0.5 0.1313720531
H  H100  1  0.42140000  0.81780000  0.39520000  0.5 0.1085470011
H  H101  1  0.85600000  0.32990000  0.43390000  0.5 0.1313720531
H  H102  1  0.92140000  0.31780000  0.39520000  0.5 0.1085470011
H  H103  1  0.85600000  0.82990000  0.93390000  0.5 0.1313720531
H  H104  1  0.92140000  0.81780000  0.89520000  0.5 0.1085470011
H  H105  1  0.64400000  0.67010000  0.93390000  0.5 0.1313720531
H  H106  1  0.57860000  0.68220000  0.89520000  0.5 0.1085470011
H  H107  1  0.64400000  0.17010000  0.43390000  0.5 0.1313720531
H  H108  1  0.57860000  0.18220000  0.39520000  0.5 0.1085470011
H  H109  1  0.14400000  0.67010000  0.43390000  0.5 0.1313720531
H  H110  1  0.07860000  0.68220000  0.39520000  0.5 0.1085470011
H  H111  1  0.14400000  0.17010000  0.93390000  0.5 0.1313720531
H  H112  1  0.07860000  0.18220000  0.89520000  0.5 0.1085470011
H  H113  1  0.35600000  0.67010000  0.06610000  0.5 0.1313720531
H  H114  1  0.42140000  0.68220000  0.10480000  0.5 0.1085470011
H  H115  1  0.35600000  0.17010000  0.56610000  0.5 0.1313720531
H  H116  1  0.42140000  0.18220000  0.60480000  0.5 0.1085470011
H  H117  1  0.85600000  0.67010000  0.56610000  0.5 0.1313720531
H  H118  1  0.92140000  0.68220000  0.60480000  0.5 0.1085470011
H  H119  1  0.85600000  0.17010000  0.06610000  0.5 0.1313720531
H  H120  1  0.92140000  0.18220000  0.10480000  0.5 0.1085470011
H  H121  1  0.64400000  0.32990000  0.06610000  0.5 0.1313720531
H  H122  1  0.57860000  0.31780000  0.10480000  0.5 0.1085470011
H  H123  1  0.64400000  0.82990000  0.56610000  0.5 0.1313720531
H  H124  1  0.57860000  0.81780000  0.60480000  0.5 0.1085470011
H  H125  1  0.14400000  0.32990000  0.56610000  0.5 0.1313720531
H  H126  1  0.07860000  0.31780000  0.60480000  0.5 0.1085470011
H  H127  1  0.14400000  0.82990000  0.06610000  0.5 0.1313720531
H  H128  1  0.07860000  0.81780000  0.10480000  0.5 0.1085470011
H  H129  1  0.32990000  0.06610000  0.64400000  0.5 0.1313720531
H  H130  1  0.31780000  0.10480000  0.57860000  0.5 0.1085470011
H  H131  1  0.32990000  0.56610000  0.14400000  0.5 0.1313720531
H  H132  1  0.31780000  0.60480000  0.07860000  0.5 0.1085470011
H  H133  1  0.82990000  0.06610000  0.14400000  0.5 0.1313720531
H  H134  1  0.81780000  0.10480000  0.07860000  0.5 0.1085470011
H  H135  1  0.82990000  0.56610000  0.64400000  0.5 0.1313720531
H  H136  1  0.81780000  0.60480000  0.57860000  0.5 0.1085470011
H  H137  1  0.67010000  0.06610000  0.35600000  0.5 0.1313720531
H  H138  1  0.68220000  0.10480000  0.42140000  0.5 0.1085470011
H  H139  1  0.67010000  0.56610000  0.85600000  0.5 0.1313720531
H  H140  1  0.68220000  0.60480000  0.92140000  0.5 0.1085470011
H  H141  1  0.17010000  0.06610000  0.85600000  0.5 0.1313720531
H  H142  1  0.18220000  0.10480000  0.92140000  0.5 0.1085470011
H  H143  1  0.17010000  0.56610000  0.35600000  0.5 0.1313720531
H  H144  1  0.18220000  0.60480000  0.42140000  0.5 0.1085470011
H  H145  1  0.67010000  0.93390000  0.64400000  0.5 0.1313720531
H  H146  1  0.68220000  0.89520000  0.57860000  0.5 0.1085470011
H  H147  1  0.67010000  0.43390000  0.14400000  0.5 0.1313720531
H  H148  1  0.68220000  0.39520000  0.07860000  0.5 0.1085470011
H  H149  1  0.17010000  0.93390000  0.14400000  0.5 0.1313720531
H  H150  1  0.18220000  0.89520000  0.07860000  0.5 0.1085470011
H  H151  1  0.17010000  0.43390000  0.64400000  0.5 0.1313720531
H  H152  1  0.18220000  0.39520000  0.57860000  0.5 0.1085470011
H  H153  1  0.32990000  0.93390000  0.35600000  0.5 0.1313720531
H  H154  1  0.31780000  0.89520000  0.42140000  0.5 0.1085470011
H  H155  1  0.32990000  0.43390000  0.85600000  0.5 0.1313720531
H  H156  1  0.31780000  0.39520000  0.92140000  0.5 0.1085470011
H  H157  1  0.82990000  0.93390000  0.85600000  0.5 0.1313720531
H  H158  1  0.81780000  0.89520000  0.92140000  0.5 0.1085470011
H  H159  1  0.82990000  0.43390000  0.35600000  0.5 0.1313720531
H  H160  1  0.81780000  0.39520000  0.42140000  0.5 0.1085470011
H  H161  1  0.06610000  0.35600000  0.67010000  0.5 0.1313720531
H  H162  1  0.10480000  0.42140000  0.68220000  0.5 0.1085470011
H  H163  1  0.06610000  0.85600000  0.17010000  0.5 0.1313720531
H  H164  1  0.10480000  0.92140000  0.18220000  0.5 0.1085470011
H  H165  1  0.56610000  0.35600000  0.17010000  0.5 0.1313720531
H  H166  1  0.60480000  0.42140000  0.18220000  0.5 0.1085470011
H  H167  1  0.56610000  0.85600000  0.67010000  0.5 0.1313720531
H  H168  1  0.60480000  0.92140000  0.68220000  0.5 0.1085470011
H  H169  1  0.06610000  0.64400000  0.32990000  0.5 0.1313720531
H  H170  1  0.10480000  0.57860000  0.31780000  0.5 0.1085470011
H  H171  1  0.06610000  0.14400000  0.82990000  0.5 0.1313720531
H  H172  1  0.10480000  0.07860000  0.81780000  0.5 0.1085470011
H  H173  1  0.56610000  0.64400000  0.82990000  0.5 0.1313720531
H  H174  1  0.60480000  0.57860000  0.81780000  0.5 0.1085470011
H  H175  1  0.56610000  0.14400000  0.32990000  0.5 0.1313720531
H  H176  1  0.60480000  0.07860000  0.31780000  0.5 0.1085470011
H  H177  1  0.93390000  0.35600000  0.32990000  0.5 0.1313720531
H  H178  1  0.89520000  0.42140000  0.31780000  0.5 0.1085470011
H  H179  1  0.93390000  0.85600000  0.82990000  0.5 0.1313720531
H  H180  1  0.89520000  0.92140000  0.81780000  0.5 0.1085470011
H  H181  1  0.43390000  0.35600000  0.82990000  0.5 0.1313720531
H  H182  1  0.39520000  0.42140000  0.81780000  0.5 0.1085470011
H  H183  1  0.43390000  0.85600000  0.32990000  0.5 0.1313720531
H  H184  1  0.39520000  0.92140000  0.31780000  0.5 0.1085470011
H  H185  1  0.93390000  0.64400000  0.67010000  0.5 0.1313720531
H  H186  1  0.89520000  0.57860000  0.68220000  0.5 0.1085470011
H  H187  1  0.93390000  0.14400000  0.17010000  0.5 0.1313720531
H  H188  1  0.89520000  0.07860000  0.18220000  0.5 0.1085470011
H  H189  1  0.43390000  0.64400000  0.17010000  0.5 0.1313720531
H  H190  1  0.39520000  0.57860000  0.18220000  0.5 0.1085470011
H  H191  1  0.43390000  0.14400000  0.67010000  0.5 0.1313720531
H  H192  1  0.39520000  0.07860000  0.68220000  0.5 0.1085470011
H  H193  1  0.67010000  0.64400000  0.93390000  0.5 0.1313720531
H  H194  1  0.68220000  0.57860000  0.89520000  0.5 0.1085470011
H  H195  1  0.67010000  0.14400000  0.43390000  0.5 0.1313720531
H  H196  1  0.68220000  0.07860000  0.39520000  0.5 0.1085470011
H  H197  1  0.17010000  0.64400000  0.43390000  0.5 0.1313720531
H  H198  1  0.18220000  0.57860000  0.39520000  0.5 0.1085470011
H  H199  1  0.17010000  0.14400000  0.93390000  0.5 0.1313720531
H  H200  1  0.18220000  0.07860000  0.89520000  0.5 0.1085470011
H  H201  1  0.32990000  0.35600000  0.93390000  0.5 0.1313720531
H  H202  1  0.31780000  0.42140000  0.89520000  0.5 0.1085470011
H  H203  1  0.32990000  0.85600000  0.43390000  0.5 0.1313720531
H  H204  1  0.31780000  0.92140000  0.39520000  0.5 0.1085470011
H  H205  1  0.82990000  0.35600000  0.43390000  0.5 0.1313720531
H  H206  1  0.81780000  0.42140000  0.39520000  0.5 0.1085470011
H  H207  1  0.82990000  0.85600000  0.93390000  0.5 0.1313720531
H  H208  1  0.81780000  0.92140000  0.89520000  0.5 0.1085470011
H  H209  1  0.32990000  0.64400000  0.06610000  0.5 0.1313720531
H  H210  1  0.31780000  0.57860000  0.10480000  0.5 0.1085470011
H  H211  1  0.32990000  0.14400000  0.56610000  0.5 0.1313720531
H  H212  1  0.31780000  0.07860000  0.60480000  0.5 0.1085470011
H  H213  1  0.82990000  0.64400000  0.56610000  0.5 0.1313720531
H  H214  1  0.81780000  0.57860000  0.60480000  0.5 0.1085470011
H  H215  1  0.82990000  0.14400000  0.06610000  0.5 0.1313720531
H  H216  1  0.81780000  0.07860000  0.10480000  0.5 0.1085470011
H  H217  1  0.67010000  0.35600000  0.06610000  0.5 0.1313720531
H  H218  1  0.68220000  0.42140000  0.10480000  0.5 0.1085470011
H  H219  1  0.67010000  0.85600000  0.56610000  0.5 0.1313720531
H  H220  1  0.68220000  0.92140000  0.60480000  0.5 0.1085470011
H  H221  1  0.17010000  0.35600000  0.56610000  0.5 0.1313720531
H  H222  1  0.18220000  0.42140000  0.60480000  0.5 0.1085470011
H  H223  1  0.17010000  0.85600000  0.06610000  0.5 0.1313720531
H  H224  1  0.18220000  0.92140000  0.10480000  0.5 0.1085470011
H  H225  1  0.93390000  0.67010000  0.64400000  0.5 0.1313720531
H  H226  1  0.89520000  0.68220000  0.57860000  0.5 0.1085470011
H  H227  1  0.93390000  0.17010000  0.14400000  0.5 0.1313720531
H  H228  1  0.89520000  0.18220000  0.07860000  0.5 0.1085470011
H  H229  1  0.43390000  0.67010000  0.14400000  0.5 0.1313720531
H  H230  1  0.39520000  0.68220000  0.07860000  0.5 0.1085470011
H  H231  1  0.43390000  0.17010000  0.64400000  0.5 0.1313720531
H  H232  1  0.39520000  0.18220000  0.57860000  0.5 0.1085470011
H  H233  1  0.93390000  0.32990000  0.35600000  0.5 0.1313720531
H  H234  1  0.89520000  0.31780000  0.42140000  0.5 0.1085470011
H  H235  1  0.93390000  0.82990000  0.85600000  0.5 0.1313720531
H  H236  1  0.89520000  0.81780000  0.92140000  0.5 0.1085470011
H  H237  1  0.43390000  0.32990000  0.85600000  0.5 0.1313720531
H  H238  1  0.39520000  0.31780000  0.92140000  0.5 0.1085470011
H  H239  1  0.43390000  0.82990000  0.35600000  0.5 0.1313720531
H  H240  1  0.39520000  0.81780000  0.42140000  0.5 0.1085470011
H  H241  1  0.06610000  0.32990000  0.64400000  0.5 0.1313720531
H  H242  1  0.10480000  0.31780000  0.57860000  0.5 0.1085470011
H  H243  1  0.06610000  0.82990000  0.14400000  0.5 0.1313720531
H  H244  1  0.10480000  0.81780000  0.07860000  0.5 0.1085470011
H  H245  1  0.56610000  0.32990000  0.14400000  0.5 0.1313720531
H  H246  1  0.60480000  0.31780000  0.07860000  0.5 0.1085470011
H  H247  1  0.56610000  0.82990000  0.64400000  0.5 0.1313720531
H  H248  1  0.60480000  0.81780000  0.57860000  0.5 0.1085470011
H  H249  1  0.06610000  0.67010000  0.35600000  0.5 0.1313720531
H  H250  1  0.10480000  0.68220000  0.42140000  0.5 0.1085470011
H  H251  1  0.06610000  0.17010000  0.85600000  0.5 0.1313720531
H  H252  1  0.10480000  0.18220000  0.92140000  0.5 0.1085470011
H  H253  1  0.56610000  0.67010000  0.85600000  0.5 0.1313720531
H  H254  1  0.60480000  0.68220000  0.92140000  0.5 0.1085470011
H  H255  1  0.56610000  0.17010000  0.35600000  0.5 0.1313720531
H  H256  1  0.60480000  0.18220000  0.42140000  0.5 0.1085470011
H  H257  1  0.64400000  0.93390000  0.67010000  0.5 0.1313720531
H  H258  1  0.57860000  0.89520000  0.68220000  0.5 0.1085470011
H  H259  1  0.64400000  0.43390000  0.17010000  0.5 0.1313720531
H  H260  1  0.57860000  0.39520000  0.18220000  0.5 0.1085470011
H  H261  1  0.14400000  0.93390000  0.17010000  0.5 0.1313720531
H  H262  1  0.07860000  0.89520000  0.18220000  0.5 0.1085470011
H  H263  1  0.14400000  0.43390000  0.67010000  0.5 0.1313720531
H  H264  1  0.07860000  0.39520000  0.68220000  0.5 0.1085470011
H  H265  1  0.35600000  0.93390000  0.32990000  0.5 0.1313720531
H  H266  1  0.42140000  0.89520000  0.31780000  0.5 0.1085470011
H  H267  1  0.35600000  0.43390000  0.82990000  0.5 0.1313720531
H  H268  1  0.42140000  0.39520000  0.81780000  0.5 0.1085470011
H  H269  1  0.85600000  0.93390000  0.82990000  0.5 0.1313720531
H  H270  1  0.92140000  0.89520000  0.81780000  0.5 0.1085470011
H  H271  1  0.85600000  0.43390000  0.32990000  0.5 0.1313720531
H  H272  1  0.92140000  0.39520000  0.31780000  0.5 0.1085470011
H  H273  1  0.64400000  0.06610000  0.32990000  0.5 0.1313720531
H  H274  1  0.57860000  0.10480000  0.31780000  0.5 0.1085470011
H  H275  1  0.64400000  0.56610000  0.82990000  0.5 0.1313720531
H  H276  1  0.57860000  0.60480000  0.81780000  0.5 0.1085470011
H  H277  1  0.14400000  0.06610000  0.82990000  0.5 0.1313720531
H  H278  1  0.07860000  0.10480000  0.81780000  0.5 0.1085470011
H  H279  1  0.14400000  0.56610000  0.32990000  0.5 0.1313720531
H  H280  1  0.07860000  0.60480000  0.31780000  0.5 0.1085470011
H  H281  1  0.35600000  0.06610000  0.67010000  0.5 0.1313720531
H  H282  1  0.42140000  0.10480000  0.68220000  0.5 0.1085470011
H  H283  1  0.35600000  0.56610000  0.17010000  0.5 0.1313720531
H  H284  1  0.42140000  0.60480000  0.18220000  0.5 0.1085470011
H  H285  1  0.85600000  0.06610000  0.17010000  0.5 0.1313720531
H  H286  1  0.92140000  0.10480000  0.18220000  0.5 0.1085470011
H  H287  1  0.85600000  0.56610000  0.67010000  0.5 0.1313720531
H  H288  1  0.92140000  0.60480000  0.68220000  0.5 0.1085470011
H  H289  1  0.64400000  0.67010000  0.06610000  0.5 0.1313720531
H  H290  1  0.57860000  0.68220000  0.10480000  0.5 0.1085470011
H  H291  1  0.64400000  0.17010000  0.56610000  0.5 0.1313720531
H  H292  1  0.57860000  0.18220000  0.60480000  0.5 0.1085470011
H  H293  1  0.14400000  0.67010000  0.56610000  0.5 0.1313720531
H  H294  1  0.07860000  0.68220000  0.60480000  0.5 0.1085470011
H  H295  1  0.14400000  0.17010000  0.06610000  0.5 0.1313720531
H  H296  1  0.07860000  0.18220000  0.10480000  0.5 0.1085470011
H  H297  1  0.35600000  0.32990000  0.06610000  0.5 0.1313720531
H  H298  1  0.42140000  0.31780000  0.10480000  0.5 0.1085470011
H  H299  1  0.35600000  0.82990000  0.56610000  0.5 0.1313720531
H  H300  1  0.42140000  0.81780000  0.60480000  0.5 0.1085470011
H  H301  1  0.85600000  0.32990000  0.56610000  0.5 0.1313720531
H  H302  1  0.92140000  0.31780000  0.60480000  0.5 0.1085470011
H  H303  1  0.85600000  0.82990000  0.06610000  0.5 0.1313720531
H  H304  1  0.92140000  0.81780000  0.10480000  0.5 0.1085470011
H  H305  1  0.64400000  0.32990000  0.93390000  0.5 0.1313720531
H  H306  1  0.57860000  0.31780000  0.89520000  0.5 0.1085470011
H  H307  1  0.64400000  0.82990000  0.43390000  0.5 0.1313720531
H  H308  1  0.57860000  0.81780000  0.39520000  0.5 0.1085470011
H  H309  1  0.14400000  0.32990000  0.43390000  0.5 0.1313720531
H  H310  1  0.07860000  0.31780000  0.39520000  0.5 0.1085470011
H  H311  1  0.14400000  0.82990000  0.93390000  0.5 0.1313720531
H  H312  1  0.07860000  0.81780000  0.89520000  0.5 0.1085470011
H  H313  1  0.35600000  0.67010000  0.93390000  0.5 0.1313720531
H  H314  1  0.42140000  0.68220000  0.89520000  0.5 0.1085470011
H  H315  1  0.35600000  0.17010000  0.43390000  0.5 0.1313720531
H  H316  1  0.42140000  0.18220000  0.39520000  0.5 0.1085470011
H  H317  1  0.85600000  0.67010000  0.43390000  0.5 0.1313720531
H  H318  1  0.92140000  0.68220000  0.39520000  0.5 0.1085470011
H  H319  1  0.85600000  0.17010000  0.93390000  0.5 0.1313720531
H  H320  1  0.92140000  0.18220000  0.89520000  0.5 0.1085470011
H  H321  1  0.67010000  0.93390000  0.35600000  0.5 0.1313720531
H  H322  1  0.68220000  0.89520000  0.42140000  0.5 0.1085470011
H  H323  1  0.67010000  0.43390000  0.85600000  0.5 0.1313720531
H  H324  1  0.68220000  0.39520000  0.92140000  0.5 0.1085470011
H  H325  1  0.17010000  0.93390000  0.85600000  0.5 0.1313720531
H  H326  1  0.18220000  0.89520000  0.92140000  0.5 0.1085470011
H  H327  1  0.17010000  0.43390000  0.35600000  0.5 0.1313720531
H  H328  1  0.18220000  0.39520000  0.42140000  0.5 0.1085470011
H  H329  1  0.32990000  0.93390000  0.64400000  0.5 0.1313720531
H  H330  1  0.31780000  0.89520000  0.57860000  0.5 0.1085470011
H  H331  1  0.32990000  0.43390000  0.14400000  0.5 0.1313720531
H  H332  1  0.31780000  0.39520000  0.07860000  0.5 0.1085470011
H  H333  1  0.82990000  0.93390000  0.14400000  0.5 0.1313720531
H  H334  1  0.81780000  0.89520000  0.07860000  0.5 0.1085470011
H  H335  1  0.82990000  0.43390000  0.64400000  0.5 0.1313720531
H  H336  1  0.81780000  0.39520000  0.57860000  0.5 0.1085470011
H  H337  1  0.32990000  0.06610000  0.35600000  0.5 0.1313720531
H  H338  1  0.31780000  0.10480000  0.42140000  0.5 0.1085470011
H  H339  1  0.32990000  0.56610000  0.85600000  0.5 0.1313720531
H  H340  1  0.31780000  0.60480000  0.92140000  0.5 0.1085470011
H  H341  1  0.82990000  0.06610000  0.85600000  0.5 0.1313720531
H  H342  1  0.81780000  0.10480000  0.92140000  0.5 0.1085470011
H  H343  1  0.82990000  0.56610000  0.35600000  0.5 0.1313720531
H  H344  1  0.81780000  0.60480000  0.42140000  0.5 0.1085470011
H  H345  1  0.67010000  0.06610000  0.64400000  0.5 0.1313720531
H  H346  1  0.68220000  0.10480000  0.57860000  0.5 0.1085470011
H  H347  1  0.67010000  0.56610000  0.14400000  0.5 0.1313720531
H  H348  1  0.68220000  0.60480000  0.07860000  0.5 0.1085470011
H  H349  1  0.17010000  0.06610000  0.14400000  0.5 0.1313720531
H  H350  1  0.18220000  0.10480000  0.07860000  0.5 0.1085470011
H  H351  1  0.17010000  0.56610000  0.64400000  0.5 0.1313720531
H  H352  1  0.18220000  0.60480000  0.57860000  0.5 0.1085470011
H  H353  1  0.93390000  0.64400000  0.32990000  0.5 0.1313720531
H  H354  1  0.89520000  0.57860000  0.31780000  0.5 0.1085470011
H  H355  1  0.93390000  0.14400000  0.82990000  0.5 0.1313720531
H  H356  1  0.89520000  0.07860000  0.81780000  0.5 0.1085470011
H  H357  1  0.43390000  0.64400000  0.82990000  0.5 0.1313720531
H  H358  1  0.39520000  0.57860000  0.81780000  0.5 0.1085470011
H  H359  1  0.43390000  0.14400000  0.32990000  0.5 0.1313720531
H  H360  1  0.39520000  0.07860000  0.31780000  0.5 0.1085470011
H  H361  1  0.93390000  0.35600000  0.67010000  0.5 0.1313720531
H  H362  1  0.89520000  0.42140000  0.68220000  0.5 0.1085470011
H  H363  1  0.93390000  0.85600000  0.17010000  0.5 0.1313720531
H  H364  1  0.89520000  0.92140000  0.18220000  0.5 0.1085470011
H  H365  1  0.43390000  0.35600000  0.17010000  0.5 0.1313720531
H  H366  1  0.39520000  0.42140000  0.18220000  0.5 0.1085470011
H  H367  1  0.43390000  0.85600000  0.67010000  0.5 0.1313720531
H  H368  1  0.39520000  0.92140000  0.68220000  0.5 0.1085470011
H  H369  1  0.06610000  0.64400000  0.67010000  0.5 0.1313720531
H  H370  1  0.10480000  0.57860000  0.68220000  0.5 0.1085470011
H  H371  1  0.06610000  0.14400000  0.17010000  0.5 0.1313720531
H  H372  1  0.10480000  0.07860000  0.18220000  0.5 0.1085470011
H  H373  1  0.56610000  0.64400000  0.17010000  0.5 0.1313720531
H  H374  1  0.60480000  0.57860000  0.18220000  0.5 0.1085470011
H  H375  1  0.56610000  0.14400000  0.67010000  0.5 0.1313720531
H  H376  1  0.60480000  0.07860000  0.68220000  0.5 0.1085470011
H  H377  1  0.06610000  0.35600000  0.32990000  0.5 0.1313720531
H  H378  1  0.10480000  0.42140000  0.31780000  0.5 0.1085470011
H  H379  1  0.06610000  0.85600000  0.82990000  0.5 0.1313720531
H  H380  1  0.10480000  0.92140000  0.81780000  0.5 0.1085470011
H  H381  1  0.56610000  0.35600000  0.82990000  0.5 0.1313720531
H  H382  1  0.60480000  0.42140000  0.81780000  0.5 0.1085470011
H  H383  1  0.56610000  0.85600000  0.32990000  0.5 0.1313720531
H  H384  1  0.60480000  0.92140000  0.31780000  0.5 0.1085470011
C  C1  1  0.17820000  0.38740000  0.11260000  1.0 0.5373439913
C  C2  1  0.23510000  0.43413000  0.06587000  1.0 -0.0143681436
C  C3  1  0.20760000  0.40000000  0.10000000  1.0 0.0032646371
C  C4  1  0.20770000  0.42280000  0.07720000  1.0 -0.0857681707
C  C5  1  0.23730000  0.38970000  0.11030000  1.0 -0.177585125
C  C6  1  0.26310000  0.42370000  0.07630000  1.0 -0.1937142114
C  C7  1  0.26360000  0.40180000  0.09820000  1.0 0.2118387157
C  C8  1  0.23560000  0.45780000  0.04220000  1.0 0.5941596701
C  C9  1  0.33980000  0.37870000  0.12130000  1.0 -0.1012081281
C  C10  1  0.31550000  0.39920000  0.10080000  1.0 0.043489831
C  C11  1  0.67820000  0.38740000  0.61260000  1.0 0.5373439913
C  C12  1  0.73510000  0.43413000  0.56587000  1.0 -0.0143681436
C  C13  1  0.70760000  0.40000000  0.60000000  1.0 0.0032646371
C  C14  1  0.70770000  0.42280000  0.57720000  1.0 -0.0849570781
C  C15  1  0.73730000  0.38970000  0.61030000  1.0 -0.177585125
C  C16  1  0.76310000  0.42370000  0.57630000  1.0 -0.1937142114
C  C17  1  0.76360000  0.40180000  0.59820000  1.0 0.2118387157
C  C18  1  0.73560000  0.45780000  0.54220000  1.0 0.5941596701
C  C19  1  0.83980000  0.37870000  0.62130000  1.0 -0.1012081281
C  C20  1  0.81550000  0.39920000  0.60080000  1.0 0.043489831
C  C21  1  0.82180000  0.61260000  0.11260000  1.0 0.5373439913
C  C22  1  0.76490000  0.56587000  0.06587000  1.0 -0.0143681436
C  C23  1  0.79240000  0.60000000  0.10000000  1.0 0.0032646371
C  C24  1  0.79230000  0.57720000  0.07720000  1.0 -0.0857681707
C  C25  1  0.76270000  0.61030000  0.11030000  1.0 -0.177585125
C  C26  1  0.73690000  0.57630000  0.07630000  1.0 -0.1937142114
C  C27  1  0.73640000  0.59820000  0.09820000  1.0 0.2118387157
C  C28  1  0.76440000  0.54220000  0.04220000  1.0 0.5941596701
C  C29  1  0.66020000  0.62130000  0.12130000  1.0 -0.1012081281
C  C30  1  0.68450000  0.60080000  0.10080000  1.0 0.043489831
C  C31  1  0.32180000  0.61260000  0.61260000  1.0 0.5373439913
C  C32  1  0.26490000  0.56587000  0.56587000  1.0 -0.0143681436
C  C33  1  0.29240000  0.60000000  0.60000000  1.0 0.0032646371
C  C34  1  0.29230000  0.57720000  0.57720000  1.0 -0.0849570781
C  C35  1  0.26270000  0.61030000  0.61030000  1.0 -0.177585125
C  C36  1  0.23690000  0.57630000  0.57630000  1.0 -0.1937142114
C  C37  1  0.23640000  0.59820000  0.59820000  1.0 0.2118387157
C  C38  1  0.26440000  0.54220000  0.54220000  1.0 0.5941596701
C  C39  1  0.16020000  0.62130000  0.62130000  1.0 -0.1012081281
C  C40  1  0.18450000  0.60080000  0.60080000  1.0 0.043489831
C  C41  1  0.32180000  0.11260000  0.11260000  1.0 0.5373439913
C  C42  1  0.26490000  0.06587000  0.06587000  1.0 -0.0143681436
C  C43  1  0.29240000  0.10000000  0.10000000  1.0 0.0032646371
C  C44  1  0.29230000  0.07720000  0.07720000  1.0 -0.0857681707
C  C45  1  0.26270000  0.11030000  0.11030000  1.0 -0.177585125
C  C46  1  0.23690000  0.07630000  0.07630000  1.0 -0.1937142114
C  C47  1  0.23640000  0.09820000  0.09820000  1.0 0.2118387157
C  C48  1  0.26440000  0.04220000  0.04220000  1.0 0.5941596701
C  C49  1  0.16020000  0.12130000  0.12130000  1.0 -0.1012081281
C  C50  1  0.18450000  0.10080000  0.10080000  1.0 0.043489831
C  C51  1  0.82180000  0.38740000  0.88740000  1.0 0.5373439913
C  C52  1  0.76490000  0.43413000  0.93413000  1.0 -0.0143681436
C  C53  1  0.79240000  0.40000000  0.90000000  1.0 0.0032646371
C  C54  1  0.79230000  0.42280000  0.92280000  1.0 -0.0849570781
C  C55  1  0.76270000  0.38970000  0.88970000  1.0 -0.177585125
C  C56  1  0.73690000  0.42370000  0.92370000  1.0 -0.1937142114
C  C57  1  0.73640000  0.40180000  0.90180000  1.0 0.2118387157
C  C58  1  0.76440000  0.45780000  0.95780000  1.0 0.5941596701
C  C59  1  0.66020000  0.37870000  0.87870000  1.0 -0.1012081281
C  C60  1  0.68450000  0.39920000  0.89920000  1.0 0.043489831
C  C61  1  0.32180000  0.38740000  0.38740000  1.0 0.5373439913
C  C62  1  0.26490000  0.43413000  0.43413000  1.0 -0.0143681436
C  C63  1  0.29240000  0.40000000  0.40000000  1.0 0.0032646371
C  C64  1  0.29230000  0.42280000  0.42280000  1.0 -0.0857681707
C  C65  1  0.26270000  0.38970000  0.38970000  1.0 -0.177585125
C  C66  1  0.23690000  0.42370000  0.42370000  1.0 -0.1937142114
C  C67  1  0.23640000  0.40180000  0.40180000  1.0 0.2118387157
C  C68  1  0.26440000  0.45780000  0.45780000  1.0 0.5941596701
C  C69  1  0.16020000  0.37870000  0.37870000  1.0 -0.1012081281
C  C70  1  0.18450000  0.39920000  0.39920000  1.0 0.043489831
C  C71  1  0.17820000  0.61260000  0.88740000  1.0 0.5373439913
C  C72  1  0.23510000  0.56587000  0.93413000  1.0 -0.0143681436
C  C73  1  0.20760000  0.60000000  0.90000000  1.0 0.0032646371
C  C74  1  0.20770000  0.57720000  0.92280000  1.0 -0.0849570781
C  C75  1  0.23730000  0.61030000  0.88970000  1.0 -0.177585125
C  C76  1  0.26310000  0.57630000  0.92370000  1.0 -0.1937142114
C  C77  1  0.26360000  0.59820000  0.90180000  1.0 0.2118387157
C  C78  1  0.23560000  0.54220000  0.95780000  1.0 0.5941596701
C  C79  1  0.33980000  0.62130000  0.87870000  1.0 -0.1012081281
C  C80  1  0.31550000  0.60080000  0.89920000  1.0 0.043489831
C  C81  1  0.17820000  0.11260000  0.38740000  1.0 0.5373439913
C  C82  1  0.23510000  0.06587000  0.43413000  1.0 -0.0143681436
C  C83  1  0.20760000  0.10000000  0.40000000  1.0 0.0032646371
C  C84  1  0.20770000  0.07720000  0.42280000  1.0 -0.0857681707
C  C85  1  0.23730000  0.11030000  0.38970000  1.0 -0.177585125
C  C86  1  0.26310000  0.07630000  0.42370000  1.0 -0.1937142114
C  C87  1  0.26360000  0.09820000  0.40180000  1.0 0.2118387157
C  C88  1  0.23560000  0.04220000  0.45780000  1.0 0.5941596701
C  C89  1  0.33980000  0.12130000  0.37870000  1.0 -0.1012081281
C  C90  1  0.31550000  0.10080000  0.39920000  1.0 0.043489831
C  C91  1  0.67820000  0.61260000  0.38740000  1.0 0.5373439913
C  C92  1  0.73510000  0.56587000  0.43413000  1.0 -0.0143681436
C  C93  1  0.70760000  0.60000000  0.40000000  1.0 0.0032646371
C  C94  1  0.70770000  0.57720000  0.42280000  1.0 -0.0857681707
C  C95  1  0.73730000  0.61030000  0.38970000  1.0 -0.177585125
C  C96  1  0.76310000  0.57630000  0.42370000  1.0 -0.1937142114
C  C97  1  0.76360000  0.59820000  0.40180000  1.0 0.2118387157
C  C98  1  0.73560000  0.54220000  0.45780000  1.0 0.5941596701
C  C99  1  0.83980000  0.62130000  0.37870000  1.0 -0.1012081281
C  C100  1  0.81550000  0.60080000  0.39920000  1.0 0.043489831
C  C101  1  0.11260000  0.17820000  0.38740000  1.0 0.5373439913
C  C102  1  0.06587000  0.23510000  0.43413000  1.0 -0.0143681436
C  C103  1  0.10000000  0.20760000  0.40000000  1.0 0.0032646371
C  C104  1  0.07720000  0.20770000  0.42280000  1.0 -0.0857681707
C  C105  1  0.11030000  0.23730000  0.38970000  1.0 -0.177585125
C  C106  1  0.07630000  0.26310000  0.42370000  1.0 -0.1937142114
C  C107  1  0.09820000  0.26360000  0.40180000  1.0 0.2118387157
C  C108  1  0.04220000  0.23560000  0.45780000  1.0 0.5941596701
C  C109  1  0.12130000  0.33980000  0.37870000  1.0 -0.1012081281
C  C110  1  0.10080000  0.31550000  0.39920000  1.0 0.043489831
C  C111  1  0.11260000  0.67820000  0.88740000  1.0 0.5373439913
C  C112  1  0.06587000  0.73510000  0.93413000  1.0 -0.0143681436
C  C113  1  0.10000000  0.70760000  0.90000000  1.0 0.0032646371
C  C114  1  0.07720000  0.70770000  0.92280000  1.0 -0.0849570781
C  C115  1  0.11030000  0.73730000  0.88970000  1.0 -0.177585125
C  C116  1  0.07630000  0.76310000  0.92370000  1.0 -0.1937142114
C  C117  1  0.09820000  0.76360000  0.90180000  1.0 0.2118387157
C  C118  1  0.04220000  0.73560000  0.95780000  1.0 0.5941596701
C  C119  1  0.12130000  0.83980000  0.87870000  1.0 -0.1012081281
C  C120  1  0.10080000  0.81550000  0.89920000  1.0 0.043489831
C  C121  1  0.11260000  0.82180000  0.61260000  1.0 0.5373439913
C  C122  1  0.06587000  0.76490000  0.56587000  1.0 -0.0143681436
C  C123  1  0.10000000  0.79240000  0.60000000  1.0 0.0032646371
C  C124  1  0.07720000  0.79230000  0.57720000  1.0 -0.0857681707
C  C125  1  0.11030000  0.76270000  0.61030000  1.0 -0.177585125
C  C126  1  0.07630000  0.73690000  0.57630000  1.0 -0.1937142114
C  C127  1  0.09820000  0.73640000  0.59820000  1.0 0.2118387157
C  C128  1  0.04220000  0.76440000  0.54220000  1.0 0.5941596701
C  C129  1  0.12130000  0.66020000  0.62130000  1.0 -0.1012081281
C  C130  1  0.10080000  0.68450000  0.60080000  1.0 0.043489831
C  C131  1  0.11260000  0.32180000  0.11260000  1.0 0.5373439913
C  C132  1  0.06587000  0.26490000  0.06587000  1.0 -0.0143681436
C  C133  1  0.10000000  0.29240000  0.10000000  1.0 0.0032646371
C  C134  1  0.07720000  0.29230000  0.07720000  1.0 -0.0857681707
C  C135  1  0.11030000  0.26270000  0.11030000  1.0 -0.177585125
C  C136  1  0.07630000  0.23690000  0.07630000  1.0 -0.1937142114
C  C137  1  0.09820000  0.23640000  0.09820000  1.0 0.2118387157
C  C138  1  0.04220000  0.26440000  0.04220000  1.0 0.5941596701
C  C139  1  0.12130000  0.16020000  0.12130000  1.0 -0.1012081281
C  C140  1  0.10080000  0.18450000  0.10080000  1.0 0.043489831
C  C141  1  0.88740000  0.82180000  0.38740000  1.0 0.5373439913
C  C142  1  0.93413000  0.76490000  0.43413000  1.0 -0.0143681436
C  C143  1  0.90000000  0.79240000  0.40000000  1.0 0.0032646371
C  C144  1  0.92280000  0.79230000  0.42280000  1.0 -0.0857681707
C  C145  1  0.88970000  0.76270000  0.38970000  1.0 -0.177585125
C  C146  1  0.92370000  0.73690000  0.42370000  1.0 -0.1937142114
C  C147  1  0.90180000  0.73640000  0.40180000  1.0 0.2118387157
C  C148  1  0.95780000  0.76440000  0.45780000  1.0 0.5941596701
C  C149  1  0.87870000  0.66020000  0.37870000  1.0 -0.1012081281
C  C150  1  0.89920000  0.68450000  0.39920000  1.0 0.043489831
C  C151  1  0.88740000  0.32180000  0.88740000  1.0 0.5373439913
C  C152  1  0.93413000  0.26490000  0.93413000  1.0 -0.0143681436
C  C153  1  0.90000000  0.29240000  0.90000000  1.0 0.0032646371
C  C154  1  0.92280000  0.29230000  0.92280000  1.0 -0.0849570781
C  C155  1  0.88970000  0.26270000  0.88970000  1.0 -0.177585125
C  C156  1  0.92370000  0.23690000  0.92370000  1.0 -0.1937142114
C  C157  1  0.90180000  0.23640000  0.90180000  1.0 0.2118387157
C  C158  1  0.95780000  0.26440000  0.95780000  1.0 0.5941596701
C  C159  1  0.87870000  0.16020000  0.87870000  1.0 -0.1012081281
C  C160  1  0.89920000  0.18450000  0.89920000  1.0 0.043489831
C  C161  1  0.38740000  0.32180000  0.38740000  1.0 0.5373439913
C  C162  1  0.43413000  0.26490000  0.43413000  1.0 -0.0143681436
C  C163  1  0.40000000  0.29240000  0.40000000  1.0 0.0032646371
C  C164  1  0.42280000  0.29230000  0.42280000  1.0 -0.0857681707
C  C165  1  0.38970000  0.26270000  0.38970000  1.0 -0.177585125
C  C166  1  0.42370000  0.23690000  0.42370000  1.0 -0.1937142114
C  C167  1  0.40180000  0.23640000  0.40180000  1.0 0.2118387157
C  C168  1  0.45780000  0.26440000  0.45780000  1.0 0.5941596701
C  C169  1  0.37870000  0.16020000  0.37870000  1.0 -0.1012081281
C  C170  1  0.39920000  0.18450000  0.39920000  1.0 0.043489831
C  C171  1  0.88740000  0.17820000  0.61260000  1.0 0.5373439913
C  C172  1  0.93413000  0.23510000  0.56587000  1.0 -0.0143681436
C  C173  1  0.90000000  0.20760000  0.60000000  1.0 0.0032646371
C  C174  1  0.92280000  0.20770000  0.57720000  1.0 -0.0849570781
C  C175  1  0.88970000  0.23730000  0.61030000  1.0 -0.177585125
C  C176  1  0.92370000  0.26310000  0.57630000  1.0 -0.1937142114
C  C177  1  0.90180000  0.26360000  0.59820000  1.0 0.2118387157
C  C178  1  0.95780000  0.23560000  0.54220000  1.0 0.5941596701
C  C179  1  0.87870000  0.33980000  0.62130000  1.0 -0.1012081281
C  C180  1  0.89920000  0.31550000  0.60080000  1.0 0.043489831
C  C181  1  0.88740000  0.67820000  0.11260000  1.0 0.5373439913
C  C182  1  0.93413000  0.73510000  0.06587000  1.0 -0.0143681436
C  C183  1  0.90000000  0.70760000  0.10000000  1.0 0.0032646371
C  C184  1  0.92280000  0.70770000  0.07720000  1.0 -0.0857681707
C  C185  1  0.88970000  0.73730000  0.11030000  1.0 -0.177585125
C  C186  1  0.92370000  0.76310000  0.07630000  1.0 -0.1937142114
C  C187  1  0.90180000  0.76360000  0.09820000  1.0 0.2118387157
C  C188  1  0.95780000  0.73560000  0.04220000  1.0 0.5941596701
C  C189  1  0.87870000  0.83980000  0.12130000  1.0 -0.1012081281
C  C190  1  0.89920000  0.81550000  0.10080000  1.0 0.043489831
C  C191  1  0.38740000  0.17820000  0.11260000  1.0 0.5373439913
C  C192  1  0.43413000  0.23510000  0.06587000  1.0 -0.0143681436
C  C193  1  0.40000000  0.20760000  0.10000000  1.0 0.0032646371
C  C194  1  0.42280000  0.20770000  0.07720000  1.0 -0.0857681707
C  C195  1  0.38970000  0.23730000  0.11030000  1.0 -0.177585125
C  C196  1  0.42370000  0.26310000  0.07630000  1.0 -0.1937142114
C  C197  1  0.40180000  0.26360000  0.09820000  1.0 0.2118387157
C  C198  1  0.45780000  0.23560000  0.04220000  1.0 0.5941596701
C  C199  1  0.37870000  0.33980000  0.12130000  1.0 -0.1012081281
C  C200  1  0.39920000  0.31550000  0.10080000  1.0 0.043489831
C  C201  1  0.38740000  0.11260000  0.17820000  1.0 0.5373439913
C  C202  1  0.43413000  0.06587000  0.23510000  1.0 -0.0143681436
C  C203  1  0.40000000  0.10000000  0.20760000  1.0 0.0032646371
C  C204  1  0.42280000  0.07720000  0.20770000  1.0 -0.0857681707
C  C205  1  0.38970000  0.11030000  0.23730000  1.0 -0.177585125
C  C206  1  0.42370000  0.07630000  0.26310000  1.0 -0.1937142114
C  C207  1  0.40180000  0.09820000  0.26360000  1.0 0.2118387157
C  C208  1  0.45780000  0.04220000  0.23560000  1.0 0.5941596701
C  C209  1  0.37870000  0.12130000  0.33980000  1.0 -0.1012081281
C  C210  1  0.39920000  0.10080000  0.31550000  1.0 0.043489831
C  C211  1  0.38740000  0.61260000  0.67820000  1.0 0.5373439913
C  C212  1  0.43413000  0.56587000  0.73510000  1.0 -0.0143681436
C  C213  1  0.40000000  0.60000000  0.70760000  1.0 0.0032646371
C  C214  1  0.42280000  0.57720000  0.70770000  1.0 -0.0849570781
C  C215  1  0.38970000  0.61030000  0.73730000  1.0 -0.177585125
C  C216  1  0.42370000  0.57630000  0.76310000  1.0 -0.1937142114
C  C217  1  0.40180000  0.59820000  0.76360000  1.0 0.2118387157
C  C218  1  0.45780000  0.54220000  0.73560000  1.0 0.5941596701
C  C219  1  0.37870000  0.62130000  0.83980000  1.0 -0.1012081281
C  C220  1  0.39920000  0.60080000  0.81550000  1.0 0.043489831
C  C221  1  0.61260000  0.11260000  0.82180000  1.0 0.5373439913
C  C222  1  0.56587000  0.06587000  0.76490000  1.0 -0.0143681436
C  C223  1  0.60000000  0.10000000  0.79240000  1.0 0.0032646371
C  C224  1  0.57720000  0.07720000  0.79230000  1.0 -0.0849570781
C  C225  1  0.61030000  0.11030000  0.76270000  1.0 -0.177585125
C  C226  1  0.57630000  0.07630000  0.73690000  1.0 -0.1937142114
C  C227  1  0.59820000  0.09820000  0.73640000  1.0 0.2118387157
C  C228  1  0.54220000  0.04220000  0.76440000  1.0 0.5941596701
C  C229  1  0.62130000  0.12130000  0.66020000  1.0 -0.1012081281
C  C230  1  0.60080000  0.10080000  0.68450000  1.0 0.043489831
C  C231  1  0.61260000  0.61260000  0.32180000  1.0 0.5373439913
C  C232  1  0.56587000  0.56587000  0.26490000  1.0 -0.0143681436
C  C233  1  0.60000000  0.60000000  0.29240000  1.0 0.0032646371
C  C234  1  0.57720000  0.57720000  0.29230000  1.0 -0.0857681707
C  C235  1  0.61030000  0.61030000  0.26270000  1.0 -0.177585125
C  C236  1  0.57630000  0.57630000  0.23690000  1.0 -0.1937142114
C  C237  1  0.59820000  0.59820000  0.23640000  1.0 0.2118387157
C  C238  1  0.54220000  0.54220000  0.26440000  1.0 0.5941596701
C  C239  1  0.62130000  0.62130000  0.16020000  1.0 -0.1012081281
C  C240  1  0.60080000  0.60080000  0.18450000  1.0 0.043489831
C  C241  1  0.11260000  0.11260000  0.32180000  1.0 0.5373439913
C  C242  1  0.06587000  0.06587000  0.26490000  1.0 -0.0143681436
C  C243  1  0.10000000  0.10000000  0.29240000  1.0 0.0032646371
C  C244  1  0.07720000  0.07720000  0.29230000  1.0 -0.0857681707
C  C245  1  0.11030000  0.11030000  0.26270000  1.0 -0.177585125
C  C246  1  0.07630000  0.07630000  0.23690000  1.0 -0.1937142114
C  C247  1  0.09820000  0.09820000  0.23640000  1.0 0.2118387157
C  C248  1  0.04220000  0.04220000  0.26440000  1.0 0.5941596701
C  C249  1  0.12130000  0.12130000  0.16020000  1.0 -0.1012081281
C  C250  1  0.10080000  0.10080000  0.18450000  1.0 0.043489831
C  C251  1  0.38740000  0.88740000  0.82180000  1.0 0.5373439913
C  C252  1  0.43413000  0.93413000  0.76490000  1.0 -0.0143681436
C  C253  1  0.40000000  0.90000000  0.79240000  1.0 0.0032646371
C  C254  1  0.42280000  0.92280000  0.79230000  1.0 -0.0849570781
C  C255  1  0.38970000  0.88970000  0.76270000  1.0 -0.177585125
C  C256  1  0.42370000  0.92370000  0.73690000  1.0 -0.1937142114
C  C257  1  0.40180000  0.90180000  0.73640000  1.0 0.2118387157
C  C258  1  0.45780000  0.95780000  0.76440000  1.0 0.5941596701
C  C259  1  0.37870000  0.87870000  0.66020000  1.0 -0.1012081281
C  C260  1  0.39920000  0.89920000  0.68450000  1.0 0.043489831
C  C261  1  0.38740000  0.38740000  0.32180000  1.0 0.5373439913
C  C262  1  0.43413000  0.43413000  0.26490000  1.0 -0.0143681436
C  C263  1  0.40000000  0.40000000  0.29240000  1.0 0.0032646371
C  C264  1  0.42280000  0.42280000  0.29230000  1.0 -0.0857681707
C  C265  1  0.38970000  0.38970000  0.26270000  1.0 -0.177585125
C  C266  1  0.42370000  0.42370000  0.23690000  1.0 -0.1937142114
C  C267  1  0.40180000  0.40180000  0.23640000  1.0 0.2118387157
C  C268  1  0.45780000  0.45780000  0.26440000  1.0 0.5941596701
C  C269  1  0.37870000  0.37870000  0.16020000  1.0 -0.1012081281
C  C270  1  0.39920000  0.39920000  0.18450000  1.0 0.043489831
C  C271  1  0.61260000  0.88740000  0.17820000  1.0 0.5373439913
C  C272  1  0.56587000  0.93413000  0.23510000  1.0 -0.0143681436
C  C273  1  0.60000000  0.90000000  0.20760000  1.0 0.0032646371
C  C274  1  0.57720000  0.92280000  0.20770000  1.0 -0.0857681707
C  C275  1  0.61030000  0.88970000  0.23730000  1.0 -0.177585125
C  C276  1  0.57630000  0.92370000  0.26310000  1.0 -0.1937142114
C  C277  1  0.59820000  0.90180000  0.26360000  1.0 0.2118387157
C  C278  1  0.54220000  0.95780000  0.23560000  1.0 0.5941596701
C  C279  1  0.62130000  0.87870000  0.33980000  1.0 -0.1012081281
C  C280  1  0.60080000  0.89920000  0.31550000  1.0 0.043489831
C  C281  1  0.61260000  0.38740000  0.67820000  1.0 0.5373439913
C  C282  1  0.56587000  0.43413000  0.73510000  1.0 -0.0143681436
C  C283  1  0.60000000  0.40000000  0.70760000  1.0 0.0032646371
C  C284  1  0.57720000  0.42280000  0.70770000  1.0 -0.0849570781
C  C285  1  0.61030000  0.38970000  0.73730000  1.0 -0.177585125
C  C286  1  0.57630000  0.42370000  0.76310000  1.0 -0.1937142114
C  C287  1  0.59820000  0.40180000  0.76360000  1.0 0.2118387157
C  C288  1  0.54220000  0.45780000  0.73560000  1.0 0.5941596701
C  C289  1  0.62130000  0.37870000  0.83980000  1.0 -0.1012081281
C  C290  1  0.60080000  0.39920000  0.81550000  1.0 0.043489831
C  C291  1  0.11260000  0.38740000  0.17820000  1.0 0.5373439913
C  C292  1  0.06587000  0.43413000  0.23510000  1.0 -0.0143681436
C  C293  1  0.10000000  0.40000000  0.20760000  1.0 0.0032646371
C  C294  1  0.07720000  0.42280000  0.20770000  1.0 -0.0857681707
C  C295  1  0.11030000  0.38970000  0.23730000  1.0 -0.177585125
C  C296  1  0.07630000  0.42370000  0.26310000  1.0 -0.1937142114
C  C297  1  0.09820000  0.40180000  0.26360000  1.0 0.2118387157
C  C298  1  0.04220000  0.45780000  0.23560000  1.0 0.5941596701
C  C299  1  0.12130000  0.37870000  0.33980000  1.0 -0.1012081281
C  C300  1  0.10080000  0.39920000  0.31550000  1.0 0.043489831
C  C301  1  0.38740000  0.17820000  0.88740000  1.0 0.5373439913
C  C302  1  0.43413000  0.23510000  0.93413000  1.0 -0.0143681436
C  C303  1  0.40000000  0.20760000  0.90000000  1.0 0.0032646371
C  C304  1  0.42280000  0.20770000  0.92280000  1.0 -0.0849570781
C  C305  1  0.38970000  0.23730000  0.88970000  1.0 -0.177585125
C  C306  1  0.42370000  0.26310000  0.92370000  1.0 -0.1937142114
C  C307  1  0.40180000  0.26360000  0.90180000  1.0 0.2118387157
C  C308  1  0.45780000  0.23560000  0.95780000  1.0 0.5941596701
C  C309  1  0.37870000  0.33980000  0.87870000  1.0 -0.1012081281
C  C310  1  0.39920000  0.31550000  0.89920000  1.0 0.043489831
C  C311  1  0.38740000  0.67820000  0.38740000  1.0 0.5373439913
C  C312  1  0.43413000  0.73510000  0.43413000  1.0 -0.0143681436
C  C313  1  0.40000000  0.70760000  0.40000000  1.0 0.0032646371
C  C314  1  0.42280000  0.70770000  0.42280000  1.0 -0.0857681707
C  C315  1  0.38970000  0.73730000  0.38970000  1.0 -0.177585125
C  C316  1  0.42370000  0.76310000  0.42370000  1.0 -0.1937142114
C  C317  1  0.40180000  0.76360000  0.40180000  1.0 0.2118387157
C  C318  1  0.45780000  0.73560000  0.45780000  1.0 0.5941596701
C  C319  1  0.37870000  0.83980000  0.37870000  1.0 -0.1012081281
C  C320  1  0.39920000  0.81550000  0.39920000  1.0 0.043489831
C  C321  1  0.61260000  0.82180000  0.88740000  1.0 0.5373439913
C  C322  1  0.56587000  0.76490000  0.93413000  1.0 -0.0143681436
C  C323  1  0.60000000  0.79240000  0.90000000  1.0 0.0032646371
C  C324  1  0.57720000  0.79230000  0.92280000  1.0 -0.0849570781
C  C325  1  0.61030000  0.76270000  0.88970000  1.0 -0.177585125
C  C326  1  0.57630000  0.73690000  0.92370000  1.0 -0.1937142114
C  C327  1  0.59820000  0.73640000  0.90180000  1.0 0.2118387157
C  C328  1  0.54220000  0.76440000  0.95780000  1.0 0.5941596701
C  C329  1  0.62130000  0.66020000  0.87870000  1.0 -0.1012081281
C  C330  1  0.60080000  0.68450000  0.89920000  1.0 0.043489831
C  C331  1  0.61260000  0.32180000  0.38740000  1.0 0.5373439913
C  C332  1  0.56587000  0.26490000  0.43413000  1.0 -0.0143681436
C  C333  1  0.60000000  0.29240000  0.40000000  1.0 0.0032646371
C  C334  1  0.57720000  0.29230000  0.42280000  1.0 -0.0857681707
C  C335  1  0.61030000  0.26270000  0.38970000  1.0 -0.177585125
C  C336  1  0.57630000  0.23690000  0.42370000  1.0 -0.1937142114
C  C337  1  0.59820000  0.23640000  0.40180000  1.0 0.2118387157
C  C338  1  0.54220000  0.26440000  0.45780000  1.0 0.5941596701
C  C339  1  0.62130000  0.16020000  0.37870000  1.0 -0.1012081281
C  C340  1  0.60080000  0.18450000  0.39920000  1.0 0.043489831
C  C341  1  0.11260000  0.82180000  0.38740000  1.0 0.5373439913
C  C342  1  0.06587000  0.76490000  0.43413000  1.0 -0.0143681436
C  C343  1  0.10000000  0.79240000  0.40000000  1.0 0.0032646371
C  C344  1  0.07720000  0.79230000  0.42280000  1.0 -0.0857681707
C  C345  1  0.11030000  0.76270000  0.38970000  1.0 -0.177585125
C  C346  1  0.07630000  0.73690000  0.42370000  1.0 -0.1937142114
C  C347  1  0.09820000  0.73640000  0.40180000  1.0 0.2118387157
C  C348  1  0.04220000  0.76440000  0.45780000  1.0 0.5941596701
C  C349  1  0.12130000  0.66020000  0.37870000  1.0 -0.1012081281
C  C350  1  0.10080000  0.68450000  0.39920000  1.0 0.043489831
C  C351  1  0.38740000  0.82180000  0.11260000  1.0 0.5373439913
C  C352  1  0.43413000  0.76490000  0.06587000  1.0 -0.0143681436
C  C353  1  0.40000000  0.79240000  0.10000000  1.0 0.0032646371
C  C354  1  0.42280000  0.79230000  0.07720000  1.0 -0.0857681707
C  C355  1  0.38970000  0.76270000  0.11030000  1.0 -0.177585125
C  C356  1  0.42370000  0.73690000  0.07630000  1.0 -0.1937142114
C  C357  1  0.40180000  0.73640000  0.09820000  1.0 0.2118387157
C  C358  1  0.45780000  0.76440000  0.04220000  1.0 0.5941596701
C  C359  1  0.37870000  0.66020000  0.12130000  1.0 -0.1012081281
C  C360  1  0.39920000  0.68450000  0.10080000  1.0 0.043489831
C  C361  1  0.38740000  0.32180000  0.61260000  1.0 0.5373439913
C  C362  1  0.43413000  0.26490000  0.56587000  1.0 -0.0143681436
C  C363  1  0.40000000  0.29240000  0.60000000  1.0 0.0032646371
C  C364  1  0.42280000  0.29230000  0.57720000  1.0 -0.0849570781
C  C365  1  0.38970000  0.26270000  0.61030000  1.0 -0.177585125
C  C366  1  0.42370000  0.23690000  0.57630000  1.0 -0.1937142114
C  C367  1  0.40180000  0.23640000  0.59820000  1.0 0.2118387157
C  C368  1  0.45780000  0.26440000  0.54220000  1.0 0.5941596701
C  C369  1  0.37870000  0.16020000  0.62130000  1.0 -0.1012081281
C  C370  1  0.39920000  0.18450000  0.60080000  1.0 0.043489831
C  C371  1  0.61260000  0.17820000  0.11260000  1.0 0.5373439913
C  C372  1  0.56587000  0.23510000  0.06587000  1.0 -0.0143681436
C  C373  1  0.60000000  0.20760000  0.10000000  1.0 0.0032646371
C  C374  1  0.57720000  0.20770000  0.07720000  1.0 -0.0857681707
C  C375  1  0.61030000  0.23730000  0.11030000  1.0 -0.177585125
C  C376  1  0.57630000  0.26310000  0.07630000  1.0 -0.1937142114
C  C377  1  0.59820000  0.26360000  0.09820000  1.0 0.2118387157
C  C378  1  0.54220000  0.23560000  0.04220000  1.0 0.5941596701
C  C379  1  0.62130000  0.33980000  0.12130000  1.0 -0.1012081281
C  C380  1  0.60080000  0.31550000  0.10080000  1.0 0.043489831
C  C381  1  0.61260000  0.67820000  0.61260000  1.0 0.5373439913
C  C382  1  0.56587000  0.73510000  0.56587000  1.0 -0.0143681436
C  C383  1  0.60000000  0.70760000  0.60000000  1.0 0.0032646371
C  C384  1  0.57720000  0.70770000  0.57720000  1.0 -0.0849570781
C  C385  1  0.61030000  0.73730000  0.61030000  1.0 -0.177585125
C  C386  1  0.57630000  0.76310000  0.57630000  1.0 -0.1937142114
C  C387  1  0.59820000  0.76360000  0.59820000  1.0 0.2118387157
C  C388  1  0.54220000  0.73560000  0.54220000  1.0 0.5941596701
C  C389  1  0.62130000  0.83980000  0.62130000  1.0 -0.1012081281
C  C390  1  0.60080000  0.81550000  0.60080000  1.0 0.043489831
C  C391  1  0.11260000  0.67820000  0.11260000  1.0 0.5373439913
C  C392  1  0.06587000  0.73510000  0.06587000  1.0 -0.0143681436
C  C393  1  0.10000000  0.70760000  0.10000000  1.0 0.0032646371
C  C394  1  0.07720000  0.70770000  0.07720000  1.0 -0.0857681707
C  C395  1  0.11030000  0.73730000  0.11030000  1.0 -0.177585125
C  C396  1  0.07630000  0.76310000  0.07630000  1.0 -0.1937142114
C  C397  1  0.09820000  0.76360000  0.09820000  1.0 0.2118387157
C  C398  1  0.04220000  0.73560000  0.04220000  1.0 0.5941596701
C  C399  1  0.12130000  0.83980000  0.12130000  1.0 -0.1012081281
C  C400  1  0.10080000  0.81550000  0.10080000  1.0 0.043489831
C  C401  1  0.17820000  0.11260000  0.61260000  1.0 0.5373439913
C  C402  1  0.23510000  0.06587000  0.56587000  1.0 -0.0143681436
C  C403  1  0.20760000  0.10000000  0.60000000  1.0 0.0032646371
C  C404  1  0.20770000  0.07720000  0.57720000  1.0 -0.0849570781
C  C405  1  0.23730000  0.11030000  0.61030000  1.0 -0.177585125
C  C406  1  0.26310000  0.07630000  0.57630000  1.0 -0.1937142114
C  C407  1  0.26360000  0.09820000  0.59820000  1.0 0.2118387157
C  C408  1  0.23560000  0.04220000  0.54220000  1.0 0.5941596701
C  C409  1  0.33980000  0.12130000  0.62130000  1.0 -0.1012081281
C  C410  1  0.31550000  0.10080000  0.60080000  1.0 0.043489831
C  C411  1  0.67820000  0.11260000  0.11260000  1.0 0.5373439913
C  C412  1  0.73510000  0.06587000  0.06587000  1.0 -0.0143681436
C  C413  1  0.70760000  0.10000000  0.10000000  1.0 0.0032646371
C  C414  1  0.70770000  0.07720000  0.07720000  1.0 -0.0857681707
C  C415  1  0.73730000  0.11030000  0.11030000  1.0 -0.177585125
C  C416  1  0.76310000  0.07630000  0.07630000  1.0 -0.1937142114
C  C417  1  0.76360000  0.09820000  0.09820000  1.0 0.2118387157
C  C418  1  0.73560000  0.04220000  0.04220000  1.0 0.5941596701
C  C419  1  0.83980000  0.12130000  0.12130000  1.0 -0.1012081281
C  C420  1  0.81550000  0.10080000  0.10080000  1.0 0.043489831
C  C421  1  0.82180000  0.11260000  0.38740000  1.0 0.5373439913
C  C422  1  0.76490000  0.06587000  0.43413000  1.0 -0.0143681436
C  C423  1  0.79240000  0.10000000  0.40000000  1.0 0.0032646371
C  C424  1  0.79230000  0.07720000  0.42280000  1.0 -0.0857681707
C  C425  1  0.76270000  0.11030000  0.38970000  1.0 -0.177585125
C  C426  1  0.73690000  0.07630000  0.42370000  1.0 -0.1937142114
C  C427  1  0.73640000  0.09820000  0.40180000  1.0 0.2118387157
C  C428  1  0.76440000  0.04220000  0.45780000  1.0 0.5941596701
C  C429  1  0.66020000  0.12130000  0.37870000  1.0 -0.1012081281
C  C430  1  0.68450000  0.10080000  0.39920000  1.0 0.043489831
C  C431  1  0.32180000  0.11260000  0.88740000  1.0 0.5373439913
C  C432  1  0.26490000  0.06587000  0.93413000  1.0 -0.0143681436
C  C433  1  0.29240000  0.10000000  0.90000000  1.0 0.0032646371
C  C434  1  0.29230000  0.07720000  0.92280000  1.0 -0.0849570781
C  C435  1  0.26270000  0.11030000  0.88970000  1.0 -0.177585125
C  C436  1  0.23690000  0.07630000  0.92370000  1.0 -0.1937142114
C  C437  1  0.23640000  0.09820000  0.90180000  1.0 0.2118387157
C  C438  1  0.26440000  0.04220000  0.95780000  1.0 0.5941596701
C  C439  1  0.16020000  0.12130000  0.87870000  1.0 -0.1012081281
C  C440  1  0.18450000  0.10080000  0.89920000  1.0 0.043489831
C  C441  1  0.82180000  0.88740000  0.61260000  1.0 0.5373439913
C  C442  1  0.76490000  0.93413000  0.56587000  1.0 -0.0143681436
C  C443  1  0.79240000  0.90000000  0.60000000  1.0 0.0032646371
C  C444  1  0.79230000  0.92280000  0.57720000  1.0 -0.0849570781
C  C445  1  0.76270000  0.88970000  0.61030000  1.0 -0.177585125
C  C446  1  0.73690000  0.92370000  0.57630000  1.0 -0.1937142114
C  C447  1  0.73640000  0.90180000  0.59820000  1.0 0.2118387157
C  C448  1  0.76440000  0.95780000  0.54220000  1.0 0.5941596701
C  C449  1  0.66020000  0.87870000  0.62130000  1.0 -0.1012081281
C  C450  1  0.68450000  0.89920000  0.60080000  1.0 0.043489831
C  C451  1  0.82180000  0.38740000  0.11260000  1.0 0.5373439913
C  C452  1  0.76490000  0.43413000  0.06587000  1.0 -0.0143681436
C  C453  1  0.79240000  0.40000000  0.10000000  1.0 0.0032646371
C  C454  1  0.79230000  0.42280000  0.07720000  1.0 -0.0857681707
C  C455  1  0.76270000  0.38970000  0.11030000  1.0 -0.177585125
C  C456  1  0.73690000  0.42370000  0.07630000  1.0 -0.1937142114
C  C457  1  0.73640000  0.40180000  0.09820000  1.0 0.2118387157
C  C458  1  0.76440000  0.45780000  0.04220000  1.0 0.5941596701
C  C459  1  0.66020000  0.37870000  0.12130000  1.0 -0.1012081281
C  C460  1  0.68450000  0.39920000  0.10080000  1.0 0.043489831
C  C461  1  0.32180000  0.88740000  0.11260000  1.0 0.5373439913
C  C462  1  0.26490000  0.93413000  0.06587000  1.0 -0.0143681436
C  C463  1  0.29240000  0.90000000  0.10000000  1.0 0.0032646371
C  C464  1  0.29230000  0.92280000  0.07720000  1.0 -0.0857681707
C  C465  1  0.26270000  0.88970000  0.11030000  1.0 -0.177585125
C  C466  1  0.23690000  0.92370000  0.07630000  1.0 -0.1937142114
C  C467  1  0.23640000  0.90180000  0.09820000  1.0 0.2118387157
C  C468  1  0.26440000  0.95780000  0.04220000  1.0 0.5941596701
C  C469  1  0.16020000  0.87870000  0.12130000  1.0 -0.1012081281
C  C470  1  0.18450000  0.89920000  0.10080000  1.0 0.043489831
C  C471  1  0.17820000  0.88740000  0.38740000  1.0 0.5373439913
C  C472  1  0.23510000  0.93413000  0.43413000  1.0 -0.0143681436
C  C473  1  0.20760000  0.90000000  0.40000000  1.0 0.0032646371
C  C474  1  0.20770000  0.92280000  0.42280000  1.0 -0.0857681707
C  C475  1  0.23730000  0.88970000  0.38970000  1.0 -0.177585125
C  C476  1  0.26310000  0.92370000  0.42370000  1.0 -0.1937142114
C  C477  1  0.26360000  0.90180000  0.40180000  1.0 0.2118387157
C  C478  1  0.23560000  0.95780000  0.45780000  1.0 0.5941596701
C  C479  1  0.33980000  0.87870000  0.37870000  1.0 -0.1012081281
C  C480  1  0.31550000  0.89920000  0.39920000  1.0 0.043489831
C  C481  1  0.67820000  0.88740000  0.88740000  1.0 0.5373439913
C  C482  1  0.73510000  0.93413000  0.93413000  1.0 -0.0143681436
C  C483  1  0.70760000  0.90000000  0.90000000  1.0 0.0032646371
C  C484  1  0.70770000  0.92280000  0.92280000  1.0 -0.0849570781
C  C485  1  0.73730000  0.88970000  0.88970000  1.0 -0.177585125
C  C486  1  0.76310000  0.92370000  0.92370000  1.0 -0.1937142114
C  C487  1  0.76360000  0.90180000  0.90180000  1.0 0.2118387157
C  C488  1  0.73560000  0.95780000  0.95780000  1.0 0.5941596701
C  C489  1  0.83980000  0.87870000  0.87870000  1.0 -0.1012081281
C  C490  1  0.81550000  0.89920000  0.89920000  1.0 0.043489831
C  C491  1  0.67820000  0.38740000  0.38740000  1.0 0.5373439913
C  C492  1  0.73510000  0.43413000  0.43413000  1.0 -0.0143681436
C  C493  1  0.70760000  0.40000000  0.40000000  1.0 0.0032646371
C  C494  1  0.70770000  0.42280000  0.42280000  1.0 -0.0857681707
C  C495  1  0.73730000  0.38970000  0.38970000  1.0 -0.177585125
C  C496  1  0.76310000  0.42370000  0.42370000  1.0 -0.1937142114
C  C497  1  0.76360000  0.40180000  0.40180000  1.0 0.2118387157
C  C498  1  0.73560000  0.45780000  0.45780000  1.0 0.5941596701
C  C499  1  0.83980000  0.37870000  0.37870000  1.0 -0.1012081281
C  C500  1  0.81550000  0.39920000  0.39920000  1.0 0.043489831
C  C501  1  0.11260000  0.38740000  0.82180000  1.0 0.5373439913
C  C502  1  0.06587000  0.43413000  0.76490000  1.0 -0.0143681436
C  C503  1  0.10000000  0.40000000  0.79240000  1.0 0.0032646371
C  C504  1  0.07720000  0.42280000  0.79230000  1.0 -0.0849570781
C  C505  1  0.11030000  0.38970000  0.76270000  1.0 -0.177585125
C  C506  1  0.07630000  0.42370000  0.73690000  1.0 -0.1937142114
C  C507  1  0.09820000  0.40180000  0.73640000  1.0 0.2118387157
C  C508  1  0.04220000  0.45780000  0.76440000  1.0 0.5941596701
C  C509  1  0.12130000  0.37870000  0.66020000  1.0 -0.1012081281
C  C510  1  0.10080000  0.39920000  0.68450000  1.0 0.043489831
C  C511  1  0.11260000  0.88740000  0.32180000  1.0 0.5373439913
C  C512  1  0.06587000  0.93413000  0.26490000  1.0 -0.0143681436
C  C513  1  0.10000000  0.90000000  0.29240000  1.0 0.0032646371
C  C514  1  0.07720000  0.92280000  0.29230000  1.0 -0.0857681707
C  C515  1  0.11030000  0.88970000  0.26270000  1.0 -0.177585125
C  C516  1  0.07630000  0.92370000  0.23690000  1.0 -0.1937142114
C  C517  1  0.09820000  0.90180000  0.23640000  1.0 0.2118387157
C  C518  1  0.04220000  0.95780000  0.26440000  1.0 0.5941596701
C  C519  1  0.12130000  0.87870000  0.16020000  1.0 -0.1012081281
C  C520  1  0.10080000  0.89920000  0.18450000  1.0 0.043489831
C  C521  1  0.11260000  0.61260000  0.17820000  1.0 0.5373439913
C  C522  1  0.06587000  0.56587000  0.23510000  1.0 -0.0143681436
C  C523  1  0.10000000  0.60000000  0.20760000  1.0 0.0032646371
C  C524  1  0.07720000  0.57720000  0.20770000  1.0 -0.0857681707
C  C525  1  0.11030000  0.61030000  0.23730000  1.0 -0.177585125
C  C526  1  0.07630000  0.57630000  0.26310000  1.0 -0.1937142114
C  C527  1  0.09820000  0.59820000  0.26360000  1.0 0.2118387157
C  C528  1  0.04220000  0.54220000  0.23560000  1.0 0.5941596701
C  C529  1  0.12130000  0.62130000  0.33980000  1.0 -0.1012081281
C  C530  1  0.10080000  0.60080000  0.31550000  1.0 0.043489831
C  C531  1  0.11260000  0.11260000  0.67820000  1.0 0.5373439913
C  C532  1  0.06587000  0.06587000  0.73510000  1.0 -0.0143681436
C  C533  1  0.10000000  0.10000000  0.70760000  1.0 0.0032646371
C  C534  1  0.07720000  0.07720000  0.70770000  1.0 -0.0849570781
C  C535  1  0.11030000  0.11030000  0.73730000  1.0 -0.177585125
C  C536  1  0.07630000  0.07630000  0.76310000  1.0 -0.1937142114
C  C537  1  0.09820000  0.09820000  0.76360000  1.0 0.2118387157
C  C538  1  0.04220000  0.04220000  0.73560000  1.0 0.5941596701
C  C539  1  0.12130000  0.12130000  0.83980000  1.0 -0.1012081281
C  C540  1  0.10080000  0.10080000  0.81550000  1.0 0.043489831
C  C541  1  0.88740000  0.38740000  0.17820000  1.0 0.5373439913
C  C542  1  0.93413000  0.43413000  0.23510000  1.0 -0.0143681436
C  C543  1  0.90000000  0.40000000  0.20760000  1.0 0.0032646371
C  C544  1  0.92280000  0.42280000  0.20770000  1.0 -0.0857681707
C  C545  1  0.88970000  0.38970000  0.23730000  1.0 -0.177585125
C  C546  1  0.92370000  0.42370000  0.26310000  1.0 -0.1937142114
C  C547  1  0.90180000  0.40180000  0.26360000  1.0 0.2118387157
C  C548  1  0.95780000  0.45780000  0.23560000  1.0 0.5941596701
C  C549  1  0.87870000  0.37870000  0.33980000  1.0 -0.1012081281
C  C550  1  0.89920000  0.39920000  0.31550000  1.0 0.043489831
C  C551  1  0.88740000  0.88740000  0.67820000  1.0 0.5373439913
C  C552  1  0.93413000  0.93413000  0.73510000  1.0 -0.0143681436
C  C553  1  0.90000000  0.90000000  0.70760000  1.0 0.0032646371
C  C554  1  0.92280000  0.92280000  0.70770000  1.0 -0.0849570781
C  C555  1  0.88970000  0.88970000  0.73730000  1.0 -0.177585125
C  C556  1  0.92370000  0.92370000  0.76310000  1.0 -0.1937142114
C  C557  1  0.90180000  0.90180000  0.76360000  1.0 0.2118387157
C  C558  1  0.95780000  0.95780000  0.73560000  1.0 0.5941596701
C  C559  1  0.87870000  0.87870000  0.83980000  1.0 -0.1012081281
C  C560  1  0.89920000  0.89920000  0.81550000  1.0 0.043489831
C  C561  1  0.38740000  0.38740000  0.67820000  1.0 0.5373439913
C  C562  1  0.43413000  0.43413000  0.73510000  1.0 -0.0143681436
C  C563  1  0.40000000  0.40000000  0.70760000  1.0 0.0032646371
C  C564  1  0.42280000  0.42280000  0.70770000  1.0 -0.0849570781
C  C565  1  0.38970000  0.38970000  0.73730000  1.0 -0.177585125
C  C566  1  0.42370000  0.42370000  0.76310000  1.0 -0.1937142114
C  C567  1  0.40180000  0.40180000  0.76360000  1.0 0.2118387157
C  C568  1  0.45780000  0.45780000  0.73560000  1.0 0.5941596701
C  C569  1  0.37870000  0.37870000  0.83980000  1.0 -0.1012081281
C  C570  1  0.39920000  0.39920000  0.81550000  1.0 0.043489831
C  C571  1  0.88740000  0.61260000  0.82180000  1.0 0.5373439913
C  C572  1  0.93413000  0.56587000  0.76490000  1.0 -0.0143681436
C  C573  1  0.90000000  0.60000000  0.79240000  1.0 0.0032646371
C  C574  1  0.92280000  0.57720000  0.79230000  1.0 -0.0849570781
C  C575  1  0.88970000  0.61030000  0.76270000  1.0 -0.177585125
C  C576  1  0.92370000  0.57630000  0.73690000  1.0 -0.1937142114
C  C577  1  0.90180000  0.59820000  0.73640000  1.0 0.2118387157
C  C578  1  0.95780000  0.54220000  0.76440000  1.0 0.5941596701
C  C579  1  0.87870000  0.62130000  0.66020000  1.0 -0.1012081281
C  C580  1  0.89920000  0.60080000  0.68450000  1.0 0.043489831
C  C581  1  0.88740000  0.11260000  0.32180000  1.0 0.5373439913
C  C582  1  0.93413000  0.06587000  0.26490000  1.0 -0.0143681436
C  C583  1  0.90000000  0.10000000  0.29240000  1.0 0.0032646371
C  C584  1  0.92280000  0.07720000  0.29230000  1.0 -0.0857681707
C  C585  1  0.88970000  0.11030000  0.26270000  1.0 -0.177585125
C  C586  1  0.92370000  0.07630000  0.23690000  1.0 -0.1937142114
C  C587  1  0.90180000  0.09820000  0.23640000  1.0 0.2118387157
C  C588  1  0.95780000  0.04220000  0.26440000  1.0 0.5941596701
C  C589  1  0.87870000  0.12130000  0.16020000  1.0 -0.1012081281
C  C590  1  0.89920000  0.10080000  0.18450000  1.0 0.043489831
C  C591  1  0.38740000  0.11260000  0.82180000  1.0 0.5373439913
C  C592  1  0.43413000  0.06587000  0.76490000  1.0 -0.0143681436
C  C593  1  0.40000000  0.10000000  0.79240000  1.0 0.0032646371
C  C594  1  0.42280000  0.07720000  0.79230000  1.0 -0.0849570781
C  C595  1  0.38970000  0.11030000  0.76270000  1.0 -0.177585125
C  C596  1  0.42370000  0.07630000  0.73690000  1.0 -0.1937142114
C  C597  1  0.40180000  0.09820000  0.73640000  1.0 0.2118387157
C  C598  1  0.45780000  0.04220000  0.76440000  1.0 0.5941596701
C  C599  1  0.37870000  0.12130000  0.66020000  1.0 -0.1012081281
C  C600  1  0.39920000  0.10080000  0.68450000  1.0 0.043489831
C  C601  1  0.82180000  0.61260000  0.88740000  1.0 0.5373439913
C  C602  1  0.76490000  0.56587000  0.93413000  1.0 -0.0143681436
C  C603  1  0.79240000  0.60000000  0.90000000  1.0 0.0032646371
C  C604  1  0.79230000  0.57720000  0.92280000  1.0 -0.0849570781
C  C605  1  0.76270000  0.61030000  0.88970000  1.0 -0.177585125
C  C606  1  0.73690000  0.57630000  0.92370000  1.0 -0.1937142114
C  C607  1  0.73640000  0.59820000  0.90180000  1.0 0.2118387157
C  C608  1  0.76440000  0.54220000  0.95780000  1.0 0.5941596701
C  C609  1  0.66020000  0.62130000  0.87870000  1.0 -0.1012081281
C  C610  1  0.68450000  0.60080000  0.89920000  1.0 0.043489831
C  C611  1  0.32180000  0.61260000  0.38740000  1.0 0.5373439913
C  C612  1  0.26490000  0.56587000  0.43413000  1.0 -0.0143681436
C  C613  1  0.29240000  0.60000000  0.40000000  1.0 0.0032646371
C  C614  1  0.29230000  0.57720000  0.42280000  1.0 -0.0857681707
C  C615  1  0.26270000  0.61030000  0.38970000  1.0 -0.177585125
C  C616  1  0.23690000  0.57630000  0.42370000  1.0 -0.1937142114
C  C617  1  0.23640000  0.59820000  0.40180000  1.0 0.2118387157
C  C618  1  0.26440000  0.54220000  0.45780000  1.0 0.5941596701
C  C619  1  0.16020000  0.62130000  0.37870000  1.0 -0.1012081281
C  C620  1  0.18450000  0.60080000  0.39920000  1.0 0.043489831
C  C621  1  0.17820000  0.38740000  0.88740000  1.0 0.5373439913
C  C622  1  0.23510000  0.43413000  0.93413000  1.0 -0.0143681436
C  C623  1  0.20760000  0.40000000  0.90000000  1.0 0.0032646371
C  C624  1  0.20770000  0.42280000  0.92280000  1.0 -0.0849570781
C  C625  1  0.23730000  0.38970000  0.88970000  1.0 -0.177585125
C  C626  1  0.26310000  0.42370000  0.92370000  1.0 -0.1937142114
C  C627  1  0.26360000  0.40180000  0.90180000  1.0 0.2118387157
C  C628  1  0.23560000  0.45780000  0.95780000  1.0 0.5941596701
C  C629  1  0.33980000  0.37870000  0.87870000  1.0 -0.1012081281
C  C630  1  0.31550000  0.39920000  0.89920000  1.0 0.043489831
C  C631  1  0.17820000  0.61260000  0.11260000  1.0 0.5373439913
C  C632  1  0.23510000  0.56587000  0.06587000  1.0 -0.0143681436
C  C633  1  0.20760000  0.60000000  0.10000000  1.0 0.0032646371
C  C634  1  0.20770000  0.57720000  0.07720000  1.0 -0.0857681707
C  C635  1  0.23730000  0.61030000  0.11030000  1.0 -0.177585125
C  C636  1  0.26310000  0.57630000  0.07630000  1.0 -0.1937142114
C  C637  1  0.26360000  0.59820000  0.09820000  1.0 0.2118387157
C  C638  1  0.23560000  0.54220000  0.04220000  1.0 0.5941596701
C  C639  1  0.33980000  0.62130000  0.12130000  1.0 -0.1012081281
C  C640  1  0.31550000  0.60080000  0.10080000  1.0 0.043489831
C  C641  1  0.67820000  0.61260000  0.61260000  1.0 0.5373439913
C  C642  1  0.73510000  0.56587000  0.56587000  1.0 -0.0143681436
C  C643  1  0.70760000  0.60000000  0.60000000  1.0 0.0032646371
C  C644  1  0.70770000  0.57720000  0.57720000  1.0 -0.0849570781
C  C645  1  0.73730000  0.61030000  0.61030000  1.0 -0.177585125
C  C646  1  0.76310000  0.57630000  0.57630000  1.0 -0.1937142114
C  C647  1  0.76360000  0.59820000  0.59820000  1.0 0.2118387157
C  C648  1  0.73560000  0.54220000  0.54220000  1.0 0.5941596701
C  C649  1  0.83980000  0.62130000  0.62130000  1.0 -0.1012081281
C  C650  1  0.81550000  0.60080000  0.60080000  1.0 0.043489831
C  C651  1  0.32180000  0.38740000  0.61260000  1.0 0.5373439913
C  C652  1  0.26490000  0.43413000  0.56587000  1.0 -0.0143681436
C  C653  1  0.29240000  0.40000000  0.60000000  1.0 0.0032646371
C  C654  1  0.29230000  0.42280000  0.57720000  1.0 -0.0849570781
C  C655  1  0.26270000  0.38970000  0.61030000  1.0 -0.177585125
C  C656  1  0.23690000  0.42370000  0.57630000  1.0 -0.1937142114
C  C657  1  0.23640000  0.40180000  0.59820000  1.0 0.2118387157
C  C658  1  0.26440000  0.45780000  0.54220000  1.0 0.5941596701
C  C659  1  0.16020000  0.37870000  0.62130000  1.0 -0.1012081281
C  C660  1  0.18450000  0.39920000  0.60080000  1.0 0.043489831
C  C661  1  0.88740000  0.82180000  0.61260000  1.0 0.5373439913
C  C662  1  0.93413000  0.76490000  0.56587000  1.0 -0.0143681436
C  C663  1  0.90000000  0.79240000  0.60000000  1.0 0.0032646371
C  C664  1  0.92280000  0.79230000  0.57720000  1.0 -0.0849570781
C  C665  1  0.88970000  0.76270000  0.61030000  1.0 -0.177585125
C  C666  1  0.92370000  0.73690000  0.57630000  1.0 -0.1937142114
C  C667  1  0.90180000  0.73640000  0.59820000  1.0 0.2118387157
C  C668  1  0.95780000  0.76440000  0.54220000  1.0 0.5941596701
C  C669  1  0.87870000  0.66020000  0.62130000  1.0 -0.1012081281
C  C670  1  0.89920000  0.68450000  0.60080000  1.0 0.043489831
C  C671  1  0.88740000  0.32180000  0.11260000  1.0 0.5373439913
C  C672  1  0.93413000  0.26490000  0.06587000  1.0 -0.0143681436
C  C673  1  0.90000000  0.29240000  0.10000000  1.0 0.0032646371
C  C674  1  0.92280000  0.29230000  0.07720000  1.0 -0.0857681707
C  C675  1  0.88970000  0.26270000  0.11030000  1.0 -0.177585125
C  C676  1  0.92370000  0.23690000  0.07630000  1.0 -0.1937142114
C  C677  1  0.90180000  0.23640000  0.09820000  1.0 0.2118387157
C  C678  1  0.95780000  0.26440000  0.04220000  1.0 0.5941596701
C  C679  1  0.87870000  0.16020000  0.12130000  1.0 -0.1012081281
C  C680  1  0.89920000  0.18450000  0.10080000  1.0 0.043489831
C  C681  1  0.88740000  0.17820000  0.38740000  1.0 0.5373439913
C  C682  1  0.93413000  0.23510000  0.43413000  1.0 -0.0143681436
C  C683  1  0.90000000  0.20760000  0.40000000  1.0 0.0032646371
C  C684  1  0.92280000  0.20770000  0.42280000  1.0 -0.0857681707
C  C685  1  0.88970000  0.23730000  0.38970000  1.0 -0.177585125
C  C686  1  0.92370000  0.26310000  0.42370000  1.0 -0.1937142114
C  C687  1  0.90180000  0.26360000  0.40180000  1.0 0.2118387157
C  C688  1  0.95780000  0.23560000  0.45780000  1.0 0.5941596701
C  C689  1  0.87870000  0.33980000  0.37870000  1.0 -0.1012081281
C  C690  1  0.89920000  0.31550000  0.39920000  1.0 0.043489831
C  C691  1  0.88740000  0.67820000  0.88740000  1.0 0.5373439913
C  C692  1  0.93413000  0.73510000  0.93413000  1.0 -0.0143681436
C  C693  1  0.90000000  0.70760000  0.90000000  1.0 0.0032646371
C  C694  1  0.92280000  0.70770000  0.92280000  1.0 -0.0849570781
C  C695  1  0.88970000  0.73730000  0.88970000  1.0 -0.177585125
C  C696  1  0.92370000  0.76310000  0.92370000  1.0 -0.1937142114
C  C697  1  0.90180000  0.76360000  0.90180000  1.0 0.2118387157
C  C698  1  0.95780000  0.73560000  0.95780000  1.0 0.5941596701
C  C699  1  0.87870000  0.83980000  0.87870000  1.0 -0.1012081281
C  C700  1  0.89920000  0.81550000  0.89920000  1.0 0.043489831
C  C701  1  0.11260000  0.17820000  0.61260000  1.0 0.5373439913
C  C702  1  0.06587000  0.23510000  0.56587000  1.0 -0.0143681436
C  C703  1  0.10000000  0.20760000  0.60000000  1.0 0.0032646371
C  C704  1  0.07720000  0.20770000  0.57720000  1.0 -0.0849570781
C  C705  1  0.11030000  0.23730000  0.61030000  1.0 -0.177585125
C  C706  1  0.07630000  0.26310000  0.57630000  1.0 -0.1937142114
C  C707  1  0.09820000  0.26360000  0.59820000  1.0 0.2118387157
C  C708  1  0.04220000  0.23560000  0.54220000  1.0 0.5941596701
C  C709  1  0.12130000  0.33980000  0.62130000  1.0 -0.1012081281
C  C710  1  0.10080000  0.31550000  0.60080000  1.0 0.043489831
C  C711  1  0.11260000  0.32180000  0.88740000  1.0 0.5373439913
C  C712  1  0.06587000  0.26490000  0.93413000  1.0 -0.0143681436
C  C713  1  0.10000000  0.29240000  0.90000000  1.0 0.0032646371
C  C714  1  0.07720000  0.29230000  0.92280000  1.0 -0.0849570781
C  C715  1  0.11030000  0.26270000  0.88970000  1.0 -0.177585125
C  C716  1  0.07630000  0.23690000  0.92370000  1.0 -0.1937142114
C  C717  1  0.09820000  0.23640000  0.90180000  1.0 0.2118387157
C  C718  1  0.04220000  0.26440000  0.95780000  1.0 0.5941596701
C  C719  1  0.12130000  0.16020000  0.87870000  1.0 -0.1012081281
C  C720  1  0.10080000  0.18450000  0.89920000  1.0 0.043489831
C  C721  1  0.61260000  0.88740000  0.82180000  1.0 0.5373439913
C  C722  1  0.56587000  0.93413000  0.76490000  1.0 -0.0143681436
C  C723  1  0.60000000  0.90000000  0.79240000  1.0 0.0032646371
C  C724  1  0.57720000  0.92280000  0.79230000  1.0 -0.0849570781
C  C725  1  0.61030000  0.88970000  0.76270000  1.0 -0.177585125
C  C726  1  0.57630000  0.92370000  0.73690000  1.0 -0.1937142114
C  C727  1  0.59820000  0.90180000  0.73640000  1.0 0.2118387157
C  C728  1  0.54220000  0.95780000  0.76440000  1.0 0.5941596701
C  C729  1  0.62130000  0.87870000  0.66020000  1.0 -0.1012081281
C  C730  1  0.60080000  0.89920000  0.68450000  1.0 0.043489831
C  C731  1  0.61260000  0.38740000  0.32180000  1.0 0.5373439913
C  C732  1  0.56587000  0.43413000  0.26490000  1.0 -0.0143681436
C  C733  1  0.60000000  0.40000000  0.29240000  1.0 0.0032646371
C  C734  1  0.57720000  0.42280000  0.29230000  1.0 -0.0857681707
C  C735  1  0.61030000  0.38970000  0.26270000  1.0 -0.177585125
C  C736  1  0.57630000  0.42370000  0.23690000  1.0 -0.1937142114
C  C737  1  0.59820000  0.40180000  0.23640000  1.0 0.2118387157
C  C738  1  0.54220000  0.45780000  0.26440000  1.0 0.5941596701
C  C739  1  0.62130000  0.37870000  0.16020000  1.0 -0.1012081281
C  C740  1  0.60080000  0.39920000  0.18450000  1.0 0.043489831
C  C741  1  0.38740000  0.88740000  0.17820000  1.0 0.5373439913
C  C742  1  0.43413000  0.93413000  0.23510000  1.0 -0.0143681436
C  C743  1  0.40000000  0.90000000  0.20760000  1.0 0.0032646371
C  C744  1  0.42280000  0.92280000  0.20770000  1.0 -0.0857681707
C  C745  1  0.38970000  0.88970000  0.23730000  1.0 -0.177585125
C  C746  1  0.42370000  0.92370000  0.26310000  1.0 -0.1937142114
C  C747  1  0.40180000  0.90180000  0.26360000  1.0 0.2118387157
C  C748  1  0.45780000  0.95780000  0.23560000  1.0 0.5941596701
C  C749  1  0.37870000  0.87870000  0.33980000  1.0 -0.1012081281
C  C750  1  0.39920000  0.89920000  0.31550000  1.0 0.043489831
C  C751  1  0.61260000  0.11260000  0.17820000  1.0 0.5373439913
C  C752  1  0.56587000  0.06587000  0.23510000  1.0 -0.0143681436
C  C753  1  0.60000000  0.10000000  0.20760000  1.0 0.0032646371
C  C754  1  0.57720000  0.07720000  0.20770000  1.0 -0.0857681707
C  C755  1  0.61030000  0.11030000  0.23730000  1.0 -0.177585125
C  C756  1  0.57630000  0.07630000  0.26310000  1.0 -0.1937142114
C  C757  1  0.59820000  0.09820000  0.26360000  1.0 0.2118387157
C  C758  1  0.54220000  0.04220000  0.23560000  1.0 0.5941596701
C  C759  1  0.62130000  0.12130000  0.33980000  1.0 -0.1012081281
C  C760  1  0.60080000  0.10080000  0.31550000  1.0 0.043489831
C  C761  1  0.61260000  0.61260000  0.67820000  1.0 0.5373439913
C  C762  1  0.56587000  0.56587000  0.73510000  1.0 -0.0143681436
C  C763  1  0.60000000  0.60000000  0.70760000  1.0 0.0032646371
C  C764  1  0.57720000  0.57720000  0.70770000  1.0 -0.0849570781
C  C765  1  0.61030000  0.61030000  0.73730000  1.0 -0.177585125
C  C766  1  0.57630000  0.57630000  0.76310000  1.0 -0.1937142114
C  C767  1  0.59820000  0.59820000  0.76360000  1.0 0.2118387157
C  C768  1  0.54220000  0.54220000  0.73560000  1.0 0.5941596701
C  C769  1  0.62130000  0.62130000  0.83980000  1.0 -0.1012081281
C  C770  1  0.60080000  0.60080000  0.81550000  1.0 0.043489831
C  C771  1  0.38740000  0.61260000  0.32180000  1.0 0.5373439913
C  C772  1  0.43413000  0.56587000  0.26490000  1.0 -0.0143681436
C  C773  1  0.40000000  0.60000000  0.29240000  1.0 0.0032646371
C  C774  1  0.42280000  0.57720000  0.29230000  1.0 -0.0857681707
C  C775  1  0.38970000  0.61030000  0.26270000  1.0 -0.177585125
C  C776  1  0.42370000  0.57630000  0.23690000  1.0 -0.1937142114
C  C777  1  0.40180000  0.59820000  0.23640000  1.0 0.2118387157
C  C778  1  0.45780000  0.54220000  0.26440000  1.0 0.5941596701
C  C779  1  0.37870000  0.62130000  0.16020000  1.0 -0.1012081281
C  C780  1  0.39920000  0.60080000  0.18450000  1.0 0.043489831
C  C781  1  0.61260000  0.82180000  0.11260000  1.0 0.5373439913
C  C782  1  0.56587000  0.76490000  0.06587000  1.0 -0.0143681436
C  C783  1  0.60000000  0.79240000  0.10000000  1.0 0.0032646371
C  C784  1  0.57720000  0.79230000  0.07720000  1.0 -0.0857681707
C  C785  1  0.61030000  0.76270000  0.11030000  1.0 -0.177585125
C  C786  1  0.57630000  0.73690000  0.07630000  1.0 -0.1937142114
C  C787  1  0.59820000  0.73640000  0.09820000  1.0 0.2118387157
C  C788  1  0.54220000  0.76440000  0.04220000  1.0 0.5941596701
C  C789  1  0.62130000  0.66020000  0.12130000  1.0 -0.1012081281
C  C790  1  0.60080000  0.68450000  0.10080000  1.0 0.043489831
C  C791  1  0.61260000  0.32180000  0.61260000  1.0 0.5373439913
C  C792  1  0.56587000  0.26490000  0.56587000  1.0 -0.0143681436
C  C793  1  0.60000000  0.29240000  0.60000000  1.0 0.0032646371
C  C794  1  0.57720000  0.29230000  0.57720000  1.0 -0.0849570781
C  C795  1  0.61030000  0.26270000  0.61030000  1.0 -0.177585125
C  C796  1  0.57630000  0.23690000  0.57630000  1.0 -0.1937142114
C  C797  1  0.59820000  0.23640000  0.59820000  1.0 0.2118387157
C  C798  1  0.54220000  0.26440000  0.54220000  1.0 0.5941596701
C  C799  1  0.62130000  0.16020000  0.62130000  1.0 -0.1012081281
C  C800  1  0.60080000  0.18450000  0.60080000  1.0 0.043489831
C  C801  1  0.38740000  0.67820000  0.61260000  1.0 0.5373439913
C  C802  1  0.43413000  0.73510000  0.56587000  1.0 -0.0143681436
C  C803  1  0.40000000  0.70760000  0.60000000  1.0 0.0032646371
C  C804  1  0.42280000  0.70770000  0.57720000  1.0 -0.0849570781
C  C805  1  0.38970000  0.73730000  0.61030000  1.0 -0.177585125
C  C806  1  0.42370000  0.76310000  0.57630000  1.0 -0.1937142114
C  C807  1  0.40180000  0.76360000  0.59820000  1.0 0.2118387157
C  C808  1  0.45780000  0.73560000  0.54220000  1.0 0.5941596701
C  C809  1  0.37870000  0.83980000  0.62130000  1.0 -0.1012081281
C  C810  1  0.39920000  0.81550000  0.60080000  1.0 0.043489831
C  C811  1  0.61260000  0.17820000  0.88740000  1.0 0.5373439913
C  C812  1  0.56587000  0.23510000  0.93413000  1.0 -0.0143681436
C  C813  1  0.60000000  0.20760000  0.90000000  1.0 0.0032646371
C  C814  1  0.57720000  0.20770000  0.92280000  1.0 -0.0849570781
C  C815  1  0.61030000  0.23730000  0.88970000  1.0 -0.177585125
C  C816  1  0.57630000  0.26310000  0.92370000  1.0 -0.1937142114
C  C817  1  0.59820000  0.26360000  0.90180000  1.0 0.2118387157
C  C818  1  0.54220000  0.23560000  0.95780000  1.0 0.5941596701
C  C819  1  0.62130000  0.33980000  0.87870000  1.0 -0.1012081281
C  C820  1  0.60080000  0.31550000  0.89920000  1.0 0.043489831
C  C821  1  0.61260000  0.67820000  0.38740000  1.0 0.5373439913
C  C822  1  0.56587000  0.73510000  0.43413000  1.0 -0.0143681436
C  C823  1  0.60000000  0.70760000  0.40000000  1.0 0.0032646371
C  C824  1  0.57720000  0.70770000  0.42280000  1.0 -0.0857681707
C  C825  1  0.61030000  0.73730000  0.38970000  1.0 -0.177585125
C  C826  1  0.57630000  0.76310000  0.42370000  1.0 -0.1937142114
C  C827  1  0.59820000  0.76360000  0.40180000  1.0 0.2118387157
C  C828  1  0.54220000  0.73560000  0.45780000  1.0 0.5941596701
C  C829  1  0.62130000  0.83980000  0.37870000  1.0 -0.1012081281
C  C830  1  0.60080000  0.81550000  0.39920000  1.0 0.043489831
C  C831  1  0.38740000  0.82180000  0.88740000  1.0 0.5373439913
C  C832  1  0.43413000  0.76490000  0.93413000  1.0 -0.0143681436
C  C833  1  0.40000000  0.79240000  0.90000000  1.0 0.0032646371
C  C834  1  0.42280000  0.79230000  0.92280000  1.0 -0.0849570781
C  C835  1  0.38970000  0.76270000  0.88970000  1.0 -0.177585125
C  C836  1  0.42370000  0.73690000  0.92370000  1.0 -0.1937142114
C  C837  1  0.40180000  0.73640000  0.90180000  1.0 0.2118387157
C  C838  1  0.45780000  0.76440000  0.95780000  1.0 0.5941596701
C  C839  1  0.37870000  0.66020000  0.87870000  1.0 -0.1012081281
C  C840  1  0.39920000  0.68450000  0.89920000  1.0 0.043489831
C  C841  1  0.82180000  0.88740000  0.38740000  1.0 0.5373439913
C  C842  1  0.76490000  0.93413000  0.43413000  1.0 -0.0143681436
C  C843  1  0.79240000  0.90000000  0.40000000  1.0 0.0032646371
C  C844  1  0.79230000  0.92280000  0.42280000  1.0 -0.0857681707
C  C845  1  0.76270000  0.88970000  0.38970000  1.0 -0.177585125
C  C846  1  0.73690000  0.92370000  0.42370000  1.0 -0.1937142114
C  C847  1  0.73640000  0.90180000  0.40180000  1.0 0.2118387157
C  C848  1  0.76440000  0.95780000  0.45780000  1.0 0.5941596701
C  C849  1  0.66020000  0.87870000  0.37870000  1.0 -0.1012081281
C  C850  1  0.68450000  0.89920000  0.39920000  1.0 0.043489831
C  C851  1  0.32180000  0.88740000  0.88740000  1.0 0.5373439913
C  C852  1  0.26490000  0.93413000  0.93413000  1.0 -0.0143681436
C  C853  1  0.29240000  0.90000000  0.90000000  1.0 0.0032646371
C  C854  1  0.29230000  0.92280000  0.92280000  1.0 -0.0849570781
C  C855  1  0.26270000  0.88970000  0.88970000  1.0 -0.177585125
C  C856  1  0.23690000  0.92370000  0.92370000  1.0 -0.1937142114
C  C857  1  0.23640000  0.90180000  0.90180000  1.0 0.2118387157
C  C858  1  0.26440000  0.95780000  0.95780000  1.0 0.5941596701
C  C859  1  0.16020000  0.87870000  0.87870000  1.0 -0.1012081281
C  C860  1  0.18450000  0.89920000  0.89920000  1.0 0.043489831
C  C861  1  0.17820000  0.88740000  0.61260000  1.0 0.5373439913
C  C862  1  0.23510000  0.93413000  0.56587000  1.0 -0.0143681436
C  C863  1  0.20760000  0.90000000  0.60000000  1.0 0.0032646371
C  C864  1  0.20770000  0.92280000  0.57720000  1.0 -0.0849570781
C  C865  1  0.23730000  0.88970000  0.61030000  1.0 -0.177585125
C  C866  1  0.26310000  0.92370000  0.57630000  1.0 -0.1937142114
C  C867  1  0.26360000  0.90180000  0.59820000  1.0 0.2118387157
C  C868  1  0.23560000  0.95780000  0.54220000  1.0 0.5941596701
C  C869  1  0.33980000  0.87870000  0.62130000  1.0 -0.1012081281
C  C870  1  0.31550000  0.89920000  0.60080000  1.0 0.043489831
C  C871  1  0.67820000  0.88740000  0.11260000  1.0 0.5373439913
C  C872  1  0.73510000  0.93413000  0.06587000  1.0 -0.0143681436
C  C873  1  0.70760000  0.90000000  0.10000000  1.0 0.0032646371
C  C874  1  0.70770000  0.92280000  0.07720000  1.0 -0.0857681707
C  C875  1  0.73730000  0.88970000  0.11030000  1.0 -0.177585125
C  C876  1  0.76310000  0.92370000  0.07630000  1.0 -0.1937142114
C  C877  1  0.76360000  0.90180000  0.09820000  1.0 0.2118387157
C  C878  1  0.73560000  0.95780000  0.04220000  1.0 0.5941596701
C  C879  1  0.83980000  0.87870000  0.12130000  1.0 -0.1012081281
C  C880  1  0.81550000  0.89920000  0.10080000  1.0 0.043489831
C  C881  1  0.67820000  0.11260000  0.88740000  1.0 0.5373439913
C  C882  1  0.73510000  0.06587000  0.93413000  1.0 -0.0143681436
C  C883  1  0.70760000  0.10000000  0.90000000  1.0 0.0032646371
C  C884  1  0.70770000  0.07720000  0.92280000  1.0 -0.0849570781
C  C885  1  0.73730000  0.11030000  0.88970000  1.0 -0.177585125
C  C886  1  0.76310000  0.07630000  0.92370000  1.0 -0.1937142114
C  C887  1  0.76360000  0.09820000  0.90180000  1.0 0.2118387157
C  C888  1  0.73560000  0.04220000  0.95780000  1.0 0.5941596701
C  C889  1  0.83980000  0.12130000  0.87870000  1.0 -0.1012081281
C  C890  1  0.81550000  0.10080000  0.89920000  1.0 0.043489831
C  C891  1  0.82180000  0.11260000  0.61260000  1.0 0.5373439913
C  C892  1  0.76490000  0.06587000  0.56587000  1.0 -0.0143681436
C  C893  1  0.79240000  0.10000000  0.60000000  1.0 0.0032646371
C  C894  1  0.79230000  0.07720000  0.57720000  1.0 -0.0849570781
C  C895  1  0.76270000  0.11030000  0.61030000  1.0 -0.177585125
C  C896  1  0.73690000  0.07630000  0.57630000  1.0 -0.1937142114
C  C897  1  0.73640000  0.09820000  0.59820000  1.0 0.2118387157
C  C898  1  0.76440000  0.04220000  0.54220000  1.0 0.5941596701
C  C899  1  0.66020000  0.12130000  0.62130000  1.0 -0.1012081281
C  C900  1  0.68450000  0.10080000  0.60080000  1.0 0.043489831
C  C901  1  0.88740000  0.61260000  0.17820000  1.0 0.5373439913
C  C902  1  0.93413000  0.56587000  0.23510000  1.0 -0.0143681436
C  C903  1  0.90000000  0.60000000  0.20760000  1.0 0.0032646371
C  C904  1  0.92280000  0.57720000  0.20770000  1.0 -0.0857681707
C  C905  1  0.88970000  0.61030000  0.23730000  1.0 -0.177585125
C  C906  1  0.92370000  0.57630000  0.26310000  1.0 -0.1937142114
C  C907  1  0.90180000  0.59820000  0.26360000  1.0 0.2118387157
C  C908  1  0.95780000  0.54220000  0.23560000  1.0 0.5941596701
C  C909  1  0.87870000  0.62130000  0.33980000  1.0 -0.1012081281
C  C910  1  0.89920000  0.60080000  0.31550000  1.0 0.043489831
C  C911  1  0.88740000  0.11260000  0.67820000  1.0 0.5373439913
C  C912  1  0.93413000  0.06587000  0.73510000  1.0 -0.0143681436
C  C913  1  0.90000000  0.10000000  0.70760000  1.0 0.0032646371
C  C914  1  0.92280000  0.07720000  0.70770000  1.0 -0.0849570781
C  C915  1  0.88970000  0.11030000  0.73730000  1.0 -0.177585125
C  C916  1  0.92370000  0.07630000  0.76310000  1.0 -0.1937142114
C  C917  1  0.90180000  0.09820000  0.76360000  1.0 0.2118387157
C  C918  1  0.95780000  0.04220000  0.73560000  1.0 0.5941596701
C  C919  1  0.87870000  0.12130000  0.83980000  1.0 -0.1012081281
C  C920  1  0.89920000  0.10080000  0.81550000  1.0 0.043489831
C  C921  1  0.88740000  0.38740000  0.82180000  1.0 0.5373439913
C  C922  1  0.93413000  0.43413000  0.76490000  1.0 -0.0143681436
C  C923  1  0.90000000  0.40000000  0.79240000  1.0 0.0032646371
C  C924  1  0.92280000  0.42280000  0.79230000  1.0 -0.0849570781
C  C925  1  0.88970000  0.38970000  0.76270000  1.0 -0.177585125
C  C926  1  0.92370000  0.42370000  0.73690000  1.0 -0.1937142114
C  C927  1  0.90180000  0.40180000  0.73640000  1.0 0.2118387157
C  C928  1  0.95780000  0.45780000  0.76440000  1.0 0.5941596701
C  C929  1  0.87870000  0.37870000  0.66020000  1.0 -0.1012081281
C  C930  1  0.89920000  0.39920000  0.68450000  1.0 0.043489831
C  C931  1  0.88740000  0.88740000  0.32180000  1.0 0.5373439913
C  C932  1  0.93413000  0.93413000  0.26490000  1.0 -0.0143681436
C  C933  1  0.90000000  0.90000000  0.29240000  1.0 0.0032646371
C  C934  1  0.92280000  0.92280000  0.29230000  1.0 -0.0857681707
C  C935  1  0.88970000  0.88970000  0.26270000  1.0 -0.177585125
C  C936  1  0.92370000  0.92370000  0.23690000  1.0 -0.1937142114
C  C937  1  0.90180000  0.90180000  0.23640000  1.0 0.2118387157
C  C938  1  0.95780000  0.95780000  0.26440000  1.0 0.5941596701
C  C939  1  0.87870000  0.87870000  0.16020000  1.0 -0.1012081281
C  C940  1  0.89920000  0.89920000  0.18450000  1.0 0.043489831
C  C941  1  0.11260000  0.61260000  0.82180000  1.0 0.5373439913
C  C942  1  0.06587000  0.56587000  0.76490000  1.0 -0.0143681436
C  C943  1  0.10000000  0.60000000  0.79240000  1.0 0.0032646371
C  C944  1  0.07720000  0.57720000  0.79230000  1.0 -0.0849570781
C  C945  1  0.11030000  0.61030000  0.76270000  1.0 -0.177585125
C  C946  1  0.07630000  0.57630000  0.73690000  1.0 -0.1937142114
C  C947  1  0.09820000  0.59820000  0.73640000  1.0 0.2118387157
C  C948  1  0.04220000  0.54220000  0.76440000  1.0 0.5941596701
C  C949  1  0.12130000  0.62130000  0.66020000  1.0 -0.1012081281
C  C950  1  0.10080000  0.60080000  0.68450000  1.0 0.043489831
C  C951  1  0.11260000  0.88740000  0.67820000  1.0 0.5373439913
C  C952  1  0.06587000  0.93413000  0.73510000  1.0 -0.0143681436
C  C953  1  0.10000000  0.90000000  0.70760000  1.0 0.0032646371
C  C954  1  0.07720000  0.92280000  0.70770000  1.0 -0.0849570781
C  C955  1  0.11030000  0.88970000  0.73730000  1.0 -0.177585125
C  C956  1  0.07630000  0.92370000  0.76310000  1.0 -0.1937142114
C  C957  1  0.09820000  0.90180000  0.76360000  1.0 0.2118387157
C  C958  1  0.04220000  0.95780000  0.73560000  1.0 0.5941596701
C  C959  1  0.12130000  0.87870000  0.83980000  1.0 -0.1012081281
C  C960  1  0.10080000  0.89920000  0.81550000  1.0 0.043489831
C  C961  1  0.35270000  0.35270000  0.10820000  1.0 0.122481684
C  C962  1  0.33950000  0.33950000  0.07790000  1.0 -0.422970412
C  C963  1  0.35270000  0.85270000  0.60820000  1.0 0.122481684
C  C964  1  0.33950000  0.83950000  0.57790000  1.0 -0.422970412
C  C965  1  0.85270000  0.35270000  0.60820000  1.0 0.122481684
C  C966  1  0.83950000  0.33950000  0.57790000  1.0 -0.422970412
C  C967  1  0.85270000  0.85270000  0.10820000  1.0 0.122481684
C  C968  1  0.83950000  0.83950000  0.07790000  1.0 -0.422970412
C  C969  1  0.64730000  0.64730000  0.10820000  1.0 0.122481684
C  C970  1  0.66050000  0.66050000  0.07790000  1.0 -0.422970412
C  C971  1  0.64730000  0.14730000  0.60820000  1.0 0.122481684
C  C972  1  0.66050000  0.16050000  0.57790000  1.0 -0.422970412
C  C973  1  0.14730000  0.64730000  0.60820000  1.0 0.122481684
C  C974  1  0.16050000  0.66050000  0.57790000  1.0 -0.422970412
C  C975  1  0.14730000  0.14730000  0.10820000  1.0 0.122481684
C  C976  1  0.16050000  0.16050000  0.07790000  1.0 -0.422970412
C  C977  1  0.64730000  0.35270000  0.89180000  1.0 0.122481684
C  C978  1  0.66050000  0.33950000  0.92210000  1.0 -0.422970412
C  C979  1  0.64730000  0.85270000  0.39180000  1.0 0.122481684
C  C980  1  0.66050000  0.83950000  0.42210000  1.0 -0.422970412
C  C981  1  0.14730000  0.35270000  0.39180000  1.0 0.122481684
C  C982  1  0.16050000  0.33950000  0.42210000  1.0 -0.422970412
C  C983  1  0.14730000  0.85270000  0.89180000  1.0 0.122481684
C  C984  1  0.16050000  0.83950000  0.92210000  1.0 -0.422970412
C  C985  1  0.35270000  0.64730000  0.89180000  1.0 0.122481684
C  C986  1  0.33950000  0.66050000  0.92210000  1.0 -0.422970412
C  C987  1  0.35270000  0.14730000  0.39180000  1.0 0.122481684
C  C988  1  0.33950000  0.16050000  0.42210000  1.0 -0.422970412
C  C989  1  0.85270000  0.64730000  0.39180000  1.0 0.122481684
C  C990  1  0.83950000  0.66050000  0.42210000  1.0 -0.422970412
C  C991  1  0.85270000  0.14730000  0.89180000  1.0 0.122481684
C  C992  1  0.83950000  0.16050000  0.92210000  1.0 -0.422970412
C  C993  1  0.10820000  0.35270000  0.35270000  1.0 0.122481684
C  C994  1  0.07790000  0.33950000  0.33950000  1.0 -0.422970412
C  C995  1  0.10820000  0.85270000  0.85270000  1.0 0.122481684
C  C996  1  0.07790000  0.83950000  0.83950000  1.0 -0.422970412
C  C997  1  0.60820000  0.35270000  0.85270000  1.0 0.122481684
C  C998  1  0.57790000  0.33950000  0.83950000  1.0 -0.422970412
C  C999  1  0.60820000  0.85270000  0.35270000  1.0 0.122481684
C  C1000  1  0.57790000  0.83950000  0.33950000  1.0 -0.422970412
C  C1001  1  0.10820000  0.64730000  0.64730000  1.0 0.122481684
C  C1002  1  0.07790000  0.66050000  0.66050000  1.0 -0.422970412
C  C1003  1  0.10820000  0.14730000  0.14730000  1.0 0.122481684
C  C1004  1  0.07790000  0.16050000  0.16050000  1.0 -0.422970412
C  C1005  1  0.60820000  0.64730000  0.14730000  1.0 0.122481684
C  C1006  1  0.57790000  0.66050000  0.16050000  1.0 -0.422970412
C  C1007  1  0.60820000  0.14730000  0.64730000  1.0 0.122481684
C  C1008  1  0.57790000  0.16050000  0.66050000  1.0 -0.422970412
C  C1009  1  0.89180000  0.64730000  0.35270000  1.0 0.122481684
C  C1010  1  0.92210000  0.66050000  0.33950000  1.0 -0.422970412
C  C1011  1  0.89180000  0.14730000  0.85270000  1.0 0.122481684
C  C1012  1  0.92210000  0.16050000  0.83950000  1.0 -0.422970412
C  C1013  1  0.39180000  0.64730000  0.85270000  1.0 0.122481684
C  C1014  1  0.42210000  0.66050000  0.83950000  1.0 -0.422970412
C  C1015  1  0.39180000  0.14730000  0.35270000  1.0 0.122481684
C  C1016  1  0.42210000  0.16050000  0.33950000  1.0 -0.422970412
C  C1017  1  0.89180000  0.35270000  0.64730000  1.0 0.122481684
C  C1018  1  0.92210000  0.33950000  0.66050000  1.0 -0.422970412
C  C1019  1  0.89180000  0.85270000  0.14730000  1.0 0.122481684
C  C1020  1  0.92210000  0.83950000  0.16050000  1.0 -0.422970412
C  C1021  1  0.39180000  0.35270000  0.14730000  1.0 0.122481684
C  C1022  1  0.42210000  0.33950000  0.16050000  1.0 -0.422970412
C  C1023  1  0.39180000  0.85270000  0.64730000  1.0 0.122481684
C  C1024  1  0.42210000  0.83950000  0.66050000  1.0 -0.422970412
C  C1025  1  0.35270000  0.10820000  0.35270000  1.0 0.122481684
C  C1026  1  0.33950000  0.07790000  0.33950000  1.0 -0.422970412
C  C1027  1  0.35270000  0.60820000  0.85270000  1.0 0.122481684
C  C1028  1  0.33950000  0.57790000  0.83950000  1.0 -0.422970412
C  C1029  1  0.85270000  0.10820000  0.85270000  1.0 0.122481684
C  C1030  1  0.83950000  0.07790000  0.83950000  1.0 -0.422970412
C  C1031  1  0.85270000  0.60820000  0.35270000  1.0 0.122481684
C  C1032  1  0.83950000  0.57790000  0.33950000  1.0 -0.422970412
C  C1033  1  0.64730000  0.10820000  0.64730000  1.0 0.122481684
C  C1034  1  0.66050000  0.07790000  0.66050000  1.0 -0.422970412
C  C1035  1  0.64730000  0.60820000  0.14730000  1.0 0.122481684
C  C1036  1  0.66050000  0.57790000  0.16050000  1.0 -0.422970412
C  C1037  1  0.14730000  0.10820000  0.14730000  1.0 0.122481684
C  C1038  1  0.16050000  0.07790000  0.16050000  1.0 -0.422970412
C  C1039  1  0.14730000  0.60820000  0.64730000  1.0 0.122481684
C  C1040  1  0.16050000  0.57790000  0.66050000  1.0 -0.422970412
C  C1041  1  0.35270000  0.89180000  0.64730000  1.0 0.122481684
C  C1042  1  0.33950000  0.92210000  0.66050000  1.0 -0.422970412
C  C1043  1  0.35270000  0.39180000  0.14730000  1.0 0.122481684
C  C1044  1  0.33950000  0.42210000  0.16050000  1.0 -0.422970412
C  C1045  1  0.85270000  0.89180000  0.14730000  1.0 0.122481684
C  C1046  1  0.83950000  0.92210000  0.16050000  1.0 -0.422970412
C  C1047  1  0.85270000  0.39180000  0.64730000  1.0 0.122481684
C  C1048  1  0.83950000  0.42210000  0.66050000  1.0 -0.422970412
C  C1049  1  0.64730000  0.89180000  0.35270000  1.0 0.122481684
C  C1050  1  0.66050000  0.92210000  0.33950000  1.0 -0.422970412
C  C1051  1  0.64730000  0.39180000  0.85270000  1.0 0.122481684
C  C1052  1  0.66050000  0.42210000  0.83950000  1.0 -0.422970412
C  C1053  1  0.14730000  0.89180000  0.85270000  1.0 0.122481684
C  C1054  1  0.16050000  0.92210000  0.83950000  1.0 -0.422970412
C  C1055  1  0.14730000  0.39180000  0.35270000  1.0 0.122481684
C  C1056  1  0.16050000  0.42210000  0.33950000  1.0 -0.422970412
C  C1057  1  0.35270000  0.35270000  0.89180000  1.0 0.122481684
C  C1058  1  0.33950000  0.33950000  0.92210000  1.0 -0.422970412
C  C1059  1  0.35270000  0.85270000  0.39180000  1.0 0.122481684
C  C1060  1  0.33950000  0.83950000  0.42210000  1.0 -0.422970412
C  C1061  1  0.85270000  0.35270000  0.39180000  1.0 0.122481684
C  C1062  1  0.83950000  0.33950000  0.42210000  1.0 -0.422970412
C  C1063  1  0.85270000  0.85270000  0.89180000  1.0 0.122481684
C  C1064  1  0.83950000  0.83950000  0.92210000  1.0 -0.422970412
C  C1065  1  0.64730000  0.64730000  0.89180000  1.0 0.122481684
C  C1066  1  0.66050000  0.66050000  0.92210000  1.0 -0.422970412
C  C1067  1  0.64730000  0.14730000  0.39180000  1.0 0.122481684
C  C1068  1  0.66050000  0.16050000  0.42210000  1.0 -0.422970412
C  C1069  1  0.14730000  0.64730000  0.39180000  1.0 0.122481684
C  C1070  1  0.16050000  0.66050000  0.42210000  1.0 -0.422970412
C  C1071  1  0.14730000  0.14730000  0.89180000  1.0 0.122481684
C  C1072  1  0.16050000  0.16050000  0.92210000  1.0 -0.422970412
C  C1073  1  0.35270000  0.64730000  0.10820000  1.0 0.122481684
C  C1074  1  0.33950000  0.66050000  0.07790000  1.0 -0.422970412
C  C1075  1  0.35270000  0.14730000  0.60820000  1.0 0.122481684
C  C1076  1  0.33950000  0.16050000  0.57790000  1.0 -0.422970412
C  C1077  1  0.85270000  0.64730000  0.60820000  1.0 0.122481684
C  C1078  1  0.83950000  0.66050000  0.57790000  1.0 -0.422970412
C  C1079  1  0.85270000  0.14730000  0.10820000  1.0 0.122481684
C  C1080  1  0.83950000  0.16050000  0.07790000  1.0 -0.422970412
C  C1081  1  0.64730000  0.35270000  0.10820000  1.0 0.122481684
C  C1082  1  0.66050000  0.33950000  0.07790000  1.0 -0.422970412
C  C1083  1  0.64730000  0.85270000  0.60820000  1.0 0.122481684
C  C1084  1  0.66050000  0.83950000  0.57790000  1.0 -0.422970412
C  C1085  1  0.14730000  0.35270000  0.60820000  1.0 0.122481684
C  C1086  1  0.16050000  0.33950000  0.57790000  1.0 -0.422970412
C  C1087  1  0.14730000  0.85270000  0.10820000  1.0 0.122481684
C  C1088  1  0.16050000  0.83950000  0.07790000  1.0 -0.422970412
C  C1089  1  0.35270000  0.10820000  0.64730000  1.0 0.122481684
C  C1090  1  0.33950000  0.07790000  0.66050000  1.0 -0.422970412
C  C1091  1  0.35270000  0.60820000  0.14730000  1.0 0.122481684
C  C1092  1  0.33950000  0.57790000  0.16050000  1.0 -0.422970412
C  C1093  1  0.85270000  0.10820000  0.14730000  1.0 0.122481684
C  C1094  1  0.83950000  0.07790000  0.16050000  1.0 -0.422970412
C  C1095  1  0.85270000  0.60820000  0.64730000  1.0 0.122481684
C  C1096  1  0.83950000  0.57790000  0.66050000  1.0 -0.422970412
C  C1097  1  0.64730000  0.10820000  0.35270000  1.0 0.122481684
C  C1098  1  0.66050000  0.07790000  0.33950000  1.0 -0.422970412
C  C1099  1  0.64730000  0.60820000  0.85270000  1.0 0.122481684
C  C1100  1  0.66050000  0.57790000  0.83950000  1.0 -0.422970412
C  C1101  1  0.14730000  0.10820000  0.85270000  1.0 0.122481684
C  C1102  1  0.16050000  0.07790000  0.83950000  1.0 -0.422970412
C  C1103  1  0.14730000  0.60820000  0.35270000  1.0 0.122481684
C  C1104  1  0.16050000  0.57790000  0.33950000  1.0 -0.422970412
C  C1105  1  0.64730000  0.89180000  0.64730000  1.0 0.122481684
C  C1106  1  0.66050000  0.92210000  0.66050000  1.0 -0.422970412
C  C1107  1  0.64730000  0.39180000  0.14730000  1.0 0.122481684
C  C1108  1  0.66050000  0.42210000  0.16050000  1.0 -0.422970412
C  C1109  1  0.14730000  0.89180000  0.14730000  1.0 0.122481684
C  C1110  1  0.16050000  0.92210000  0.16050000  1.0 -0.422970412
C  C1111  1  0.14730000  0.39180000  0.64730000  1.0 0.122481684
C  C1112  1  0.16050000  0.42210000  0.66050000  1.0 -0.422970412
C  C1113  1  0.35270000  0.89180000  0.35270000  1.0 0.122481684
C  C1114  1  0.33950000  0.92210000  0.33950000  1.0 -0.422970412
C  C1115  1  0.35270000  0.39180000  0.85270000  1.0 0.122481684
C  C1116  1  0.33950000  0.42210000  0.83950000  1.0 -0.422970412
C  C1117  1  0.85270000  0.89180000  0.85270000  1.0 0.122481684
C  C1118  1  0.83950000  0.92210000  0.83950000  1.0 -0.422970412
C  C1119  1  0.85270000  0.39180000  0.35270000  1.0 0.122481684
C  C1120  1  0.83950000  0.42210000  0.33950000  1.0 -0.422970412
C  C1121  1  0.10820000  0.35270000  0.64730000  1.0 0.122481684
C  C1122  1  0.07790000  0.33950000  0.66050000  1.0 -0.422970412
C  C1123  1  0.10820000  0.85270000  0.14730000  1.0 0.122481684
C  C1124  1  0.07790000  0.83950000  0.16050000  1.0 -0.422970412
C  C1125  1  0.60820000  0.35270000  0.14730000  1.0 0.122481684
C  C1126  1  0.57790000  0.33950000  0.16050000  1.0 -0.422970412
C  C1127  1  0.60820000  0.85270000  0.64730000  1.0 0.122481684
C  C1128  1  0.57790000  0.83950000  0.66050000  1.0 -0.422970412
C  C1129  1  0.10820000  0.64730000  0.35270000  1.0 0.122481684
C  C1130  1  0.07790000  0.66050000  0.33950000  1.0 -0.422970412
C  C1131  1  0.10820000  0.14730000  0.85270000  1.0 0.122481684
C  C1132  1  0.07790000  0.16050000  0.83950000  1.0 -0.422970412
C  C1133  1  0.60820000  0.64730000  0.85270000  1.0 0.122481684
C  C1134  1  0.57790000  0.66050000  0.83950000  1.0 -0.422970412
C  C1135  1  0.60820000  0.14730000  0.35270000  1.0 0.122481684
C  C1136  1  0.57790000  0.16050000  0.33950000  1.0 -0.422970412
C  C1137  1  0.89180000  0.35270000  0.35270000  1.0 0.122481684
C  C1138  1  0.92210000  0.33950000  0.33950000  1.0 -0.422970412
C  C1139  1  0.89180000  0.85270000  0.85270000  1.0 0.122481684
C  C1140  1  0.92210000  0.83950000  0.83950000  1.0 -0.422970412
C  C1141  1  0.39180000  0.35270000  0.85270000  1.0 0.122481684
C  C1142  1  0.42210000  0.33950000  0.83950000  1.0 -0.422970412
C  C1143  1  0.39180000  0.85270000  0.35270000  1.0 0.122481684
C  C1144  1  0.42210000  0.83950000  0.33950000  1.0 -0.422970412
C  C1145  1  0.89180000  0.64730000  0.64730000  1.0 0.122481684
C  C1146  1  0.92210000  0.66050000  0.66050000  1.0 -0.422970412
C  C1147  1  0.89180000  0.14730000  0.14730000  1.0 0.122481684
C  C1148  1  0.92210000  0.16050000  0.16050000  1.0 -0.422970412
C  C1149  1  0.39180000  0.64730000  0.14730000  1.0 0.122481684
C  C1150  1  0.42210000  0.66050000  0.16050000  1.0 -0.422970412
C  C1151  1  0.39180000  0.14730000  0.64730000  1.0 0.122481684
C  C1152  1  0.42210000  0.16050000  0.66050000  1.0 -0.422970412
O  O1  1  0.31440000  0.50000000  0.00000000  1.0 -0.5239541923
O  O2  1  0.15570000  0.50000000  0.00000000  1.0 -0.4142610295
O  O3  1  0.81440000  0.50000000  0.50000000  1.0 -0.5239541923
O  O4  1  0.65570000  0.50000000  0.50000000  1.0 -0.4142610295
O  O5  1  0.68560000  0.50000000  0.00000000  1.0 -0.5239541923
O  O6  1  0.84430000  0.50000000  0.00000000  1.0 -0.4142610295
O  O7  1  0.68560000  0.00000000  0.50000000  1.0 -0.5239541923
O  O8  1  0.84430000  0.00000000  0.50000000  1.0 -0.4142610295
O  O9  1  0.18560000  0.50000000  0.50000000  1.0 -0.5239541923
O  O10  1  0.34430000  0.50000000  0.50000000  1.0 -0.4142610295
O  O11  1  0.81440000  0.00000000  0.00000000  1.0 -0.5239541923
O  O12  1  0.65570000  0.00000000  0.00000000  1.0 -0.4142610295
O  O13  1  0.00000000  0.31440000  0.50000000  1.0 -0.5239541923
O  O14  1  0.00000000  0.15570000  0.50000000  1.0 -0.4142610295
O  O15  1  0.00000000  0.81440000  0.00000000  1.0 -0.5331231909
O  O16  1  0.00000000  0.65570000  0.00000000  1.0 -0.4142610295
O  O17  1  0.50000000  0.81440000  0.50000000  1.0 -0.5239541923
O  O18  1  0.50000000  0.65570000  0.50000000  1.0 -0.4142610295
O  O19  1  0.00000000  0.68560000  0.50000000  1.0 -0.5239541923
O  O20  1  0.00000000  0.84430000  0.50000000  1.0 -0.4142610295
O  O21  1  0.00000000  0.18560000  0.00000000  1.0 -0.5239541923
O  O22  1  0.00000000  0.34430000  0.00000000  1.0 -0.4142610295
O  O23  1  0.50000000  0.31440000  0.00000000  1.0 -0.5239541923
O  O24  1  0.50000000  0.15570000  0.00000000  1.0 -0.4142610295
O  O25  1  0.50000000  0.00000000  0.31440000  1.0 -0.5239541923
O  O26  1  0.50000000  0.00000000  0.15570000  1.0 -0.4142610295
O  O27  1  0.50000000  0.50000000  0.81440000  1.0 -0.5239541923
O  O28  1  0.50000000  0.50000000  0.65570000  1.0 -0.4142610295
O  O29  1  0.50000000  0.00000000  0.68560000  1.0 -0.5239541923
O  O30  1  0.50000000  0.00000000  0.84430000  1.0 -0.4142610295
O  O31  1  0.50000000  0.50000000  0.18560000  1.0 -0.5239541923
O  O32  1  0.50000000  0.50000000  0.34430000  1.0 -0.4142610295
O  O33  1  0.00000000  0.50000000  0.68560000  1.0 -0.5239541923
O  O34  1  0.00000000  0.50000000  0.84430000  1.0 -0.4142610295
O  O35  1  0.00000000  0.00000000  0.81440000  1.0 -0.5239541923
O  O36  1  0.00000000  0.00000000  0.65570000  1.0 -0.4142610295
O  O37  1  0.50000000  0.68560000  0.00000000  1.0 -0.5239541923
O  O38  1  0.50000000  0.84430000  0.00000000  1.0 -0.4142610295
O  O39  1  0.50000000  0.18560000  0.50000000  1.0 -0.5239541923
O  O40  1  0.50000000  0.34430000  0.50000000  1.0 -0.4142610295
O  O41  1  0.31440000  0.00000000  0.50000000  1.0 -0.5239541923
O  O42  1  0.15570000  0.00000000  0.50000000  1.0 -0.4142610295
O  O43  1  0.18560000  0.00000000  0.00000000  1.0 -0.5239541923
O  O44  1  0.34430000  0.00000000  0.00000000  1.0 -0.4142610295
O  O45  1  0.00000000  0.00000000  0.18560000  1.0 -0.5239541923
O  O46  1  0.00000000  0.00000000  0.34430000  1.0 -0.4142610295
O  O47  1  0.00000000  0.50000000  0.31440000  1.0 -0.5239541923
O  O48  1  0.00000000  0.50000000  0.15570000  1.0 -0.4142610295
O  O49  1  0.08740000  0.41260000  0.08740000  1.0 -0.7027574089
O  O50  1  0.91260000  0.58740000  0.08740000  1.0 -0.7027574089
O  O51  1  0.41260000  0.08740000  0.08740000  1.0 -0.7027574089
O  O52  1  0.91260000  0.41260000  0.91260000  1.0 -0.7027574089
O  O53  1  0.41260000  0.41260000  0.41260000  1.0 -0.7027574089
O  O54  1  0.08740000  0.58740000  0.91260000  1.0 -0.7027574089
O  O55  1  0.08740000  0.08740000  0.41260000  1.0 -0.7027574089
O  O56  1  0.08740000  0.91260000  0.58740000  1.0 -0.7027574089
O  O57  1  0.91260000  0.91260000  0.41260000  1.0 -0.7027574089
O  O58  1  0.91260000  0.08740000  0.58740000  1.0 -0.7027574089
O  O59  1  0.41260000  0.58740000  0.58740000  1.0 -0.7027574089
O  O60  1  0.58740000  0.08740000  0.91260000  1.0 -0.7027574089
O  O61  1  0.58740000  0.58740000  0.41260000  1.0 -0.7027574089
O  O62  1  0.41260000  0.91260000  0.91260000  1.0 -0.7027574089
O  O63  1  0.58740000  0.91260000  0.08740000  1.0 -0.7027574089
O  O64  1  0.58740000  0.41260000  0.58740000  1.0 -0.7027574089
O  O65  1  0.41260000  0.08740000  0.91260000  1.0 -0.7027574089
O  O66  1  0.41260000  0.58740000  0.41260000  1.0 -0.7027574089
O  O67  1  0.58740000  0.91260000  0.91260000  1.0 -0.7027574089
O  O68  1  0.58740000  0.41260000  0.41260000  1.0 -0.7027574089
O  O69  1  0.08740000  0.91260000  0.41260000  1.0 -0.7027574089
O  O70  1  0.08740000  0.41260000  0.91260000  1.0 -0.7027574089
O  O71  1  0.41260000  0.91260000  0.08740000  1.0 -0.7027574089
O  O72  1  0.41260000  0.41260000  0.58740000  1.0 -0.7027574089
O  O73  1  0.58740000  0.08740000  0.08740000  1.0 -0.7027574089
O  O74  1  0.58740000  0.58740000  0.58740000  1.0 -0.7027574089
O  O75  1  0.08740000  0.08740000  0.58740000  1.0 -0.7027574089
O  O76  1  0.91260000  0.08740000  0.41260000  1.0 -0.7027574089
O  O77  1  0.91260000  0.91260000  0.58740000  1.0 -0.7027574089
O  O78  1  0.91260000  0.41260000  0.08740000  1.0 -0.7027574089
O  O79  1  0.08740000  0.58740000  0.08740000  1.0 -0.7027574089
O  O80  1  0.91260000  0.58740000  0.91260000  1.0 -0.7027574089
O  O81  1  0.29030000  0.38880000  0.11120000  1.0 -0.1226862626
O  O82  1  0.25970000  0.46755000  0.03245000  1.0 -0.4791554325
O  O83  1  0.20910000  0.46734000  0.03266000  1.0 -0.5041110181
O  O84  1  0.15580000  0.39677000  0.10323000  1.0 -0.453281059
O  O85  1  0.18270000  0.36750000  0.13250000  1.0 -0.5331231909
O  O86  1  0.79030000  0.38880000  0.61120000  1.0 -0.1226862626
O  O87  1  0.75970000  0.46755000  0.53245000  1.0 -0.4791554325
O  O88  1  0.70910000  0.46734000  0.53266000  1.0 -0.5041110181
O  O89  1  0.65580000  0.39677000  0.60323000  1.0 -0.453281059
O  O90  1  0.68270000  0.36750000  0.63250000  1.0 -0.5331231909
O  O91  1  0.70970000  0.61120000  0.11120000  1.0 -0.1226862626
O  O92  1  0.74030000  0.53245000  0.03245000  1.0 -0.4791554325
O  O93  1  0.79090000  0.53266000  0.03266000  1.0 -0.5041110181
O  O94  1  0.84420000  0.60323000  0.10323000  1.0 -0.453281059
O  O95  1  0.81730000  0.63250000  0.13250000  1.0 -0.5331231909
O  O96  1  0.20970000  0.61120000  0.61120000  1.0 -0.1226862626
O  O97  1  0.24030000  0.53245000  0.53245000  1.0 -0.4791554325
O  O98  1  0.29090000  0.53266000  0.53266000  1.0 -0.5041110181
O  O99  1  0.34420000  0.60323000  0.60323000  1.0 -0.453281059
O  O100  1  0.31730000  0.63250000  0.63250000  1.0 -0.5331231909
O  O101  1  0.20970000  0.11120000  0.11120000  1.0 -0.1226862626
O  O102  1  0.24030000  0.03245000  0.03245000  1.0 -0.4791554325
O  O103  1  0.29090000  0.03266000  0.03266000  1.0 -0.5041110181
O  O104  1  0.34420000  0.10323000  0.10323000  1.0 -0.453281059
O  O105  1  0.31730000  0.13250000  0.13250000  1.0 -0.5331231909
O  O106  1  0.70970000  0.38880000  0.88880000  1.0 -0.1226862626
O  O107  1  0.74030000  0.46755000  0.96755000  1.0 -0.4791554325
O  O108  1  0.79090000  0.46734000  0.96734000  1.0 -0.5041110181
O  O109  1  0.84420000  0.39677000  0.89677000  1.0 -0.453281059
O  O110  1  0.81730000  0.36750000  0.86750000  1.0 -0.5331231909
O  O111  1  0.20970000  0.38880000  0.38880000  1.0 -0.1226862626
O  O112  1  0.24030000  0.46755000  0.46755000  1.0 -0.4791554325
O  O113  1  0.29090000  0.46734000  0.46734000  1.0 -0.5041110181
O  O114  1  0.34420000  0.39677000  0.39677000  1.0 -0.453281059
O  O115  1  0.31730000  0.36750000  0.36750000  1.0 -0.5331231909
O  O116  1  0.29030000  0.61120000  0.88880000  1.0 -0.1226862626
O  O117  1  0.25970000  0.53245000  0.96755000  1.0 -0.4791554325
O  O118  1  0.20910000  0.53266000  0.96734000  1.0 -0.5041110181
O  O119  1  0.15580000  0.60323000  0.89677000  1.0 -0.453281059
O  O120  1  0.18270000  0.63250000  0.86750000  1.0 -0.5331231909
O  O121  1  0.29030000  0.11120000  0.38880000  1.0 -0.1226862626
O  O122  1  0.25970000  0.03245000  0.46755000  1.0 -0.4791554325
O  O123  1  0.20910000  0.03266000  0.46734000  1.0 -0.5041110181
O  O124  1  0.15580000  0.10323000  0.39677000  1.0 -0.453281059
O  O125  1  0.18270000  0.13250000  0.36750000  1.0 -0.5331231909
O  O126  1  0.79030000  0.61120000  0.38880000  1.0 -0.1226862626
O  O127  1  0.75970000  0.53245000  0.46755000  1.0 -0.4791554325
O  O128  1  0.70910000  0.53266000  0.46734000  1.0 -0.5041110181
O  O129  1  0.65580000  0.60323000  0.39677000  1.0 -0.453281059
O  O130  1  0.68270000  0.63250000  0.36750000  1.0 -0.5331231909
O  O131  1  0.11120000  0.29030000  0.38880000  1.0 -0.1226862626
O  O132  1  0.03245000  0.25970000  0.46755000  1.0 -0.4791554325
O  O133  1  0.03266000  0.20910000  0.46734000  1.0 -0.5041110181
O  O134  1  0.10323000  0.15580000  0.39677000  1.0 -0.453281059
O  O135  1  0.13250000  0.18270000  0.36750000  1.0 -0.5331231909
O  O136  1  0.11120000  0.79030000  0.88880000  1.0 -0.1226862626
O  O137  1  0.03245000  0.75970000  0.96755000  1.0 -0.4791554325
O  O138  1  0.03266000  0.70910000  0.96734000  1.0 -0.5041110181
O  O139  1  0.10323000  0.65580000  0.89677000  1.0 -0.453281059
O  O140  1  0.13250000  0.68270000  0.86750000  1.0 -0.5331231909
O  O141  1  0.11120000  0.70970000  0.61120000  1.0 -0.1226862626
O  O142  1  0.03245000  0.74030000  0.53245000  1.0 -0.4791554325
O  O143  1  0.03266000  0.79090000  0.53266000  1.0 -0.5041110181
O  O144  1  0.10323000  0.84420000  0.60323000  1.0 -0.453281059
O  O145  1  0.13250000  0.81730000  0.63250000  1.0 -0.5331231909
O  O146  1  0.11120000  0.20970000  0.11120000  1.0 -0.1226862626
O  O147  1  0.03245000  0.24030000  0.03245000  1.0 -0.4791554325
O  O148  1  0.03266000  0.29090000  0.03266000  1.0 -0.5041110181
O  O149  1  0.10323000  0.34420000  0.10323000  1.0 -0.453281059
O  O150  1  0.13250000  0.31730000  0.13250000  1.0 -0.5331231909
O  O151  1  0.88880000  0.70970000  0.38880000  1.0 -0.1226862626
O  O152  1  0.96755000  0.74030000  0.46755000  1.0 -0.4791554325
O  O153  1  0.96734000  0.79090000  0.46734000  1.0 -0.5041110181
O  O154  1  0.89677000  0.84420000  0.39677000  1.0 -0.453281059
O  O155  1  0.86750000  0.81730000  0.36750000  1.0 -0.5331231909
O  O156  1  0.88880000  0.20970000  0.88880000  1.0 -0.1226862626
O  O157  1  0.96755000  0.24030000  0.96755000  1.0 -0.4791554325
O  O158  1  0.96734000  0.29090000  0.96734000  1.0 -0.5041110181
O  O159  1  0.89677000  0.34420000  0.89677000  1.0 -0.453281059
O  O160  1  0.86750000  0.31730000  0.86750000  1.0 -0.5331231909
O  O161  1  0.38880000  0.20970000  0.38880000  1.0 -0.1226862626
O  O162  1  0.46755000  0.24030000  0.46755000  1.0 -0.4791554325
O  O163  1  0.46734000  0.29090000  0.46734000  1.0 -0.5041110181
O  O164  1  0.39677000  0.34420000  0.39677000  1.0 -0.453281059
O  O165  1  0.36750000  0.31730000  0.36750000  1.0 -0.5331231909
O  O166  1  0.88880000  0.29030000  0.61120000  1.0 -0.1226862626
O  O167  1  0.96755000  0.25970000  0.53245000  1.0 -0.4791554325
O  O168  1  0.96734000  0.20910000  0.53266000  1.0 -0.5041110181
O  O169  1  0.89677000  0.15580000  0.60323000  1.0 -0.453281059
O  O170  1  0.86750000  0.18270000  0.63250000  1.0 -0.5331231909
O  O171  1  0.88880000  0.79030000  0.11120000  1.0 -0.1226862626
O  O172  1  0.96755000  0.75970000  0.03245000  1.0 -0.4791554325
O  O173  1  0.96734000  0.70910000  0.03266000  1.0 -0.5041110181
O  O174  1  0.89677000  0.65580000  0.10323000  1.0 -0.453281059
O  O175  1  0.86750000  0.68270000  0.13250000  1.0 -0.5331231909
O  O176  1  0.38880000  0.29030000  0.11120000  1.0 -0.1226862626
O  O177  1  0.46755000  0.25970000  0.03245000  1.0 -0.4791554325
O  O178  1  0.46734000  0.20910000  0.03266000  1.0 -0.5041110181
O  O179  1  0.39677000  0.15580000  0.10323000  1.0 -0.453281059
O  O180  1  0.36750000  0.18270000  0.13250000  1.0 -0.5331231909
O  O181  1  0.38880000  0.11120000  0.29030000  1.0 -0.1226862626
O  O182  1  0.46755000  0.03245000  0.25970000  1.0 -0.4791554325
O  O183  1  0.46734000  0.03266000  0.20910000  1.0 -0.5041110181
O  O184  1  0.39677000  0.10323000  0.15580000  1.0 -0.453281059
O  O185  1  0.36750000  0.13250000  0.18270000  1.0 -0.5331231909
O  O186  1  0.38880000  0.61120000  0.79030000  1.0 -0.1226862626
O  O187  1  0.46755000  0.53245000  0.75970000  1.0 -0.4791554325
O  O188  1  0.46734000  0.53266000  0.70910000  1.0 -0.5041110181
O  O189  1  0.39677000  0.60323000  0.65580000  1.0 -0.453281059
O  O190  1  0.36750000  0.63250000  0.68270000  1.0 -0.5331231909
O  O191  1  0.61120000  0.11120000  0.70970000  1.0 -0.1226862626
O  O192  1  0.53245000  0.03245000  0.74030000  1.0 -0.4791554325
O  O193  1  0.53266000  0.03266000  0.79090000  1.0 -0.5041110181
O  O194  1  0.60323000  0.10323000  0.84420000  1.0 -0.453281059
O  O195  1  0.63250000  0.13250000  0.81730000  1.0 -0.5331231909
O  O196  1  0.61120000  0.61120000  0.20970000  1.0 -0.1226862626
O  O197  1  0.53245000  0.53245000  0.24030000  1.0 -0.4791554325
O  O198  1  0.53266000  0.53266000  0.29090000  1.0 -0.5041110181
O  O199  1  0.60323000  0.60323000  0.34420000  1.0 -0.453281059
O  O200  1  0.63250000  0.63250000  0.31730000  1.0 -0.5331231909
O  O201  1  0.11120000  0.11120000  0.20970000  1.0 -0.1226862626
O  O202  1  0.03245000  0.03245000  0.24030000  1.0 -0.4791554325
O  O203  1  0.03266000  0.03266000  0.29090000  1.0 -0.5041110181
O  O204  1  0.10323000  0.10323000  0.34420000  1.0 -0.453281059
O  O205  1  0.13250000  0.13250000  0.31730000  1.0 -0.5331231909
O  O206  1  0.38880000  0.88880000  0.70970000  1.0 -0.1226862626
O  O207  1  0.46755000  0.96755000  0.74030000  1.0 -0.4791554325
O  O208  1  0.46734000  0.96734000  0.79090000  1.0 -0.5041110181
O  O209  1  0.39677000  0.89677000  0.84420000  1.0 -0.453281059
O  O210  1  0.36750000  0.86750000  0.81730000  1.0 -0.5331231909
O  O211  1  0.38880000  0.38880000  0.20970000  1.0 -0.1226862626
O  O212  1  0.46755000  0.46755000  0.24030000  1.0 -0.4791554325
O  O213  1  0.46734000  0.46734000  0.29090000  1.0 -0.5041110181
O  O214  1  0.39677000  0.39677000  0.34420000  1.0 -0.453281059
O  O215  1  0.36750000  0.36750000  0.31730000  1.0 -0.5331231909
O  O216  1  0.61120000  0.88880000  0.29030000  1.0 -0.1226862626
O  O217  1  0.53245000  0.96755000  0.25970000  1.0 -0.4791554325
O  O218  1  0.53266000  0.96734000  0.20910000  1.0 -0.5041110181
O  O219  1  0.60323000  0.89677000  0.15580000  1.0 -0.453281059
O  O220  1  0.63250000  0.86750000  0.18270000  1.0 -0.5331231909
O  O221  1  0.61120000  0.38880000  0.79030000  1.0 -0.1226862626
O  O222  1  0.53245000  0.46755000  0.75970000  1.0 -0.4791554325
O  O223  1  0.53266000  0.46734000  0.70910000  1.0 -0.5041110181
O  O224  1  0.60323000  0.39677000  0.65580000  1.0 -0.453281059
O  O225  1  0.63250000  0.36750000  0.68270000  1.0 -0.5331231909
O  O226  1  0.11120000  0.38880000  0.29030000  1.0 -0.1226862626
O  O227  1  0.03245000  0.46755000  0.25970000  1.0 -0.4791554325
O  O228  1  0.03266000  0.46734000  0.20910000  1.0 -0.5041110181
O  O229  1  0.10323000  0.39677000  0.15580000  1.0 -0.453281059
O  O230  1  0.13250000  0.36750000  0.18270000  1.0 -0.5331231909
O  O231  1  0.38880000  0.29030000  0.88880000  1.0 -0.1226862626
O  O232  1  0.46755000  0.25970000  0.96755000  1.0 -0.4791554325
O  O233  1  0.46734000  0.20910000  0.96734000  1.0 -0.5041110181
O  O234  1  0.39677000  0.15580000  0.89677000  1.0 -0.453281059
O  O235  1  0.36750000  0.18270000  0.86750000  1.0 -0.5331231909
O  O236  1  0.38880000  0.79030000  0.38880000  1.0 -0.1226862626
O  O237  1  0.46755000  0.75970000  0.46755000  1.0 -0.4791554325
O  O238  1  0.46734000  0.70910000  0.46734000  1.0 -0.5041110181
O  O239  1  0.39677000  0.65580000  0.39677000  1.0 -0.453281059
O  O240  1  0.36750000  0.68270000  0.36750000  1.0 -0.5331231909
O  O241  1  0.61120000  0.70970000  0.88880000  1.0 -0.1226862626
O  O242  1  0.53245000  0.74030000  0.96755000  1.0 -0.4791554325
O  O243  1  0.53266000  0.79090000  0.96734000  1.0 -0.5041110181
O  O244  1  0.60323000  0.84420000  0.89677000  1.0 -0.453281059
O  O245  1  0.63250000  0.81730000  0.86750000  1.0 -0.5331231909
O  O246  1  0.61120000  0.20970000  0.38880000  1.0 -0.1226862626
O  O247  1  0.53245000  0.24030000  0.46755000  1.0 -0.4791554325
O  O248  1  0.53266000  0.29090000  0.46734000  1.0 -0.5041110181
O  O249  1  0.60323000  0.34420000  0.39677000  1.0 -0.453281059
O  O250  1  0.63250000  0.31730000  0.36750000  1.0 -0.5331231909
O  O251  1  0.11120000  0.70970000  0.38880000  1.0 -0.1226862626
O  O252  1  0.03245000  0.74030000  0.46755000  1.0 -0.4791554325
O  O253  1  0.03266000  0.79090000  0.46734000  1.0 -0.5041110181
O  O254  1  0.10323000  0.84420000  0.39677000  1.0 -0.453281059
O  O255  1  0.13250000  0.81730000  0.36750000  1.0 -0.5331231909
O  O256  1  0.38880000  0.70970000  0.11120000  1.0 -0.1226862626
O  O257  1  0.46755000  0.74030000  0.03245000  1.0 -0.4791554325
O  O258  1  0.46734000  0.79090000  0.03266000  1.0 -0.5041110181
O  O259  1  0.39677000  0.84420000  0.10323000  1.0 -0.453281059
O  O260  1  0.36750000  0.81730000  0.13250000  1.0 -0.5331231909
O  O261  1  0.38880000  0.20970000  0.61120000  1.0 -0.1226862626
O  O262  1  0.46755000  0.24030000  0.53245000  1.0 -0.4791554325
O  O263  1  0.46734000  0.29090000  0.53266000  1.0 -0.5041110181
O  O264  1  0.39677000  0.34420000  0.60323000  1.0 -0.453281059
O  O265  1  0.36750000  0.31730000  0.63250000  1.0 -0.5331231909
O  O266  1  0.61120000  0.29030000  0.11120000  1.0 -0.1226862626
O  O267  1  0.53245000  0.25970000  0.03245000  1.0 -0.4791554325
O  O268  1  0.53266000  0.20910000  0.03266000  1.0 -0.5041110181
O  O269  1  0.60323000  0.15580000  0.10323000  1.0 -0.453281059
O  O270  1  0.63250000  0.18270000  0.13250000  1.0 -0.5331231909
O  O271  1  0.61120000  0.79030000  0.61120000  1.0 -0.1226862626
O  O272  1  0.53245000  0.75970000  0.53245000  1.0 -0.4791554325
O  O273  1  0.53266000  0.70910000  0.53266000  1.0 -0.5041110181
O  O274  1  0.60323000  0.65580000  0.60323000  1.0 -0.453281059
O  O275  1  0.63250000  0.68270000  0.63250000  1.0 -0.5331231909
O  O276  1  0.11120000  0.79030000  0.11120000  1.0 -0.1226862626
O  O277  1  0.03245000  0.75970000  0.03245000  1.0 -0.4791554325
O  O278  1  0.03266000  0.70910000  0.03266000  1.0 -0.5041110181
O  O279  1  0.10323000  0.65580000  0.10323000  1.0 -0.453281059
O  O280  1  0.13250000  0.68270000  0.13250000  1.0 -0.5331231909
O  O281  1  0.29030000  0.11120000  0.61120000  1.0 -0.1226862626
O  O282  1  0.25970000  0.03245000  0.53245000  1.0 -0.4791554325
O  O283  1  0.20910000  0.03266000  0.53266000  1.0 -0.5041110181
O  O284  1  0.15580000  0.10323000  0.60323000  1.0 -0.453281059
O  O285  1  0.18270000  0.13250000  0.63250000  1.0 -0.5331231909
O  O286  1  0.79030000  0.11120000  0.11120000  1.0 -0.1226862626
O  O287  1  0.75970000  0.03245000  0.03245000  1.0 -0.4791554325
O  O288  1  0.70910000  0.03266000  0.03266000  1.0 -0.5041110181
O  O289  1  0.65580000  0.10323000  0.10323000  1.0 -0.453281059
O  O290  1  0.68270000  0.13250000  0.13250000  1.0 -0.5331231909
O  O291  1  0.70970000  0.11120000  0.38880000  1.0 -0.1226862626
O  O292  1  0.74030000  0.03245000  0.46755000  1.0 -0.4791554325
O  O293  1  0.79090000  0.03266000  0.46734000  1.0 -0.5041110181
O  O294  1  0.84420000  0.10323000  0.39677000  1.0 -0.453281059
O  O295  1  0.81730000  0.13250000  0.36750000  1.0 -0.5331231909
O  O296  1  0.20970000  0.11120000  0.88880000  1.0 -0.1226862626
O  O297  1  0.24030000  0.03245000  0.96755000  1.0 -0.4791554325
O  O298  1  0.29090000  0.03266000  0.96734000  1.0 -0.5041110181
O  O299  1  0.34420000  0.10323000  0.89677000  1.0 -0.453281059
O  O300  1  0.31730000  0.13250000  0.86750000  1.0 -0.5331231909
O  O301  1  0.70970000  0.88880000  0.61120000  1.0 -0.1226862626
O  O302  1  0.74030000  0.96755000  0.53245000  1.0 -0.4791554325
O  O303  1  0.79090000  0.96734000  0.53266000  1.0 -0.5041110181
O  O304  1  0.84420000  0.89677000  0.60323000  1.0 -0.453281059
O  O305  1  0.81730000  0.86750000  0.63250000  1.0 -0.5331231909
O  O306  1  0.70970000  0.38880000  0.11120000  1.0 -0.1226862626
O  O307  1  0.74030000  0.46755000  0.03245000  1.0 -0.4791554325
O  O308  1  0.79090000  0.46734000  0.03266000  1.0 -0.5041110181
O  O309  1  0.84420000  0.39677000  0.10323000  1.0 -0.453281059
O  O310  1  0.81730000  0.36750000  0.13250000  1.0 -0.5331231909
O  O311  1  0.20970000  0.88880000  0.11120000  1.0 -0.1226862626
O  O312  1  0.24030000  0.96755000  0.03245000  1.0 -0.4791554325
O  O313  1  0.29090000  0.96734000  0.03266000  1.0 -0.5041110181
O  O314  1  0.34420000  0.89677000  0.10323000  1.0 -0.453281059
O  O315  1  0.31730000  0.86750000  0.13250000  1.0 -0.5331231909
O  O316  1  0.29030000  0.88880000  0.38880000  1.0 -0.1226862626
O  O317  1  0.25970000  0.96755000  0.46755000  1.0 -0.4791554325
O  O318  1  0.20910000  0.96734000  0.46734000  1.0 -0.5041110181
O  O319  1  0.15580000  0.89677000  0.39677000  1.0 -0.453281059
O  O320  1  0.18270000  0.86750000  0.36750000  1.0 -0.5331231909
O  O321  1  0.79030000  0.88880000  0.88880000  1.0 -0.1226862626
O  O322  1  0.75970000  0.96755000  0.96755000  1.0 -0.4791554325
O  O323  1  0.70910000  0.96734000  0.96734000  1.0 -0.5041110181
O  O324  1  0.65580000  0.89677000  0.89677000  1.0 -0.453281059
O  O325  1  0.68270000  0.86750000  0.86750000  1.0 -0.5331231909
O  O326  1  0.79030000  0.38880000  0.38880000  1.0 -0.1226862626
O  O327  1  0.75970000  0.46755000  0.46755000  1.0 -0.4791554325
O  O328  1  0.70910000  0.46734000  0.46734000  1.0 -0.5041110181
O  O329  1  0.65580000  0.39677000  0.39677000  1.0 -0.453281059
O  O330  1  0.68270000  0.36750000  0.36750000  1.0 -0.5331231909
O  O331  1  0.11120000  0.38880000  0.70970000  1.0 -0.1226862626
O  O332  1  0.03245000  0.46755000  0.74030000  1.0 -0.4791554325
O  O333  1  0.03266000  0.46734000  0.79090000  1.0 -0.5041110181
O  O334  1  0.10323000  0.39677000  0.84420000  1.0 -0.453281059
O  O335  1  0.13250000  0.36750000  0.81730000  1.0 -0.5331231909
O  O336  1  0.11120000  0.88880000  0.20970000  1.0 -0.1226862626
O  O337  1  0.03245000  0.96755000  0.24030000  1.0 -0.4791554325
O  O338  1  0.03266000  0.96734000  0.29090000  1.0 -0.5041110181
O  O339  1  0.10323000  0.89677000  0.34420000  1.0 -0.453281059
O  O340  1  0.13250000  0.86750000  0.31730000  1.0 -0.5331231909
O  O341  1  0.11120000  0.61120000  0.29030000  1.0 -0.1226862626
O  O342  1  0.03245000  0.53245000  0.25970000  1.0 -0.4791554325
O  O343  1  0.03266000  0.53266000  0.20910000  1.0 -0.5041110181
O  O344  1  0.10323000  0.60323000  0.15580000  1.0 -0.453281059
O  O345  1  0.13250000  0.63250000  0.18270000  1.0 -0.5331231909
O  O346  1  0.11120000  0.11120000  0.79030000  1.0 -0.1226862626
O  O347  1  0.03245000  0.03245000  0.75970000  1.0 -0.4791554325
O  O348  1  0.03266000  0.03266000  0.70910000  1.0 -0.5041110181
O  O349  1  0.10323000  0.10323000  0.65580000  1.0 -0.453281059
O  O350  1  0.13250000  0.13250000  0.68270000  1.0 -0.5331231909
O  O351  1  0.88880000  0.38880000  0.29030000  1.0 -0.1226862626
O  O352  1  0.96755000  0.46755000  0.25970000  1.0 -0.4791554325
O  O353  1  0.96734000  0.46734000  0.20910000  1.0 -0.5041110181
O  O354  1  0.89677000  0.39677000  0.15580000  1.0 -0.453281059
O  O355  1  0.86750000  0.36750000  0.18270000  1.0 -0.5331231909
O  O356  1  0.88880000  0.88880000  0.79030000  1.0 -0.1226862626
O  O357  1  0.96755000  0.96755000  0.75970000  1.0 -0.4791554325
O  O358  1  0.96734000  0.96734000  0.70910000  1.0 -0.5041110181
O  O359  1  0.89677000  0.89677000  0.65580000  1.0 -0.453281059
O  O360  1  0.86750000  0.86750000  0.68270000  1.0 -0.5331231909
O  O361  1  0.38880000  0.38880000  0.79030000  1.0 -0.1226862626
O  O362  1  0.46755000  0.46755000  0.75970000  1.0 -0.4791554325
O  O363  1  0.46734000  0.46734000  0.70910000  1.0 -0.5041110181
O  O364  1  0.39677000  0.39677000  0.65580000  1.0 -0.453281059
O  O365  1  0.36750000  0.36750000  0.68270000  1.0 -0.5331231909
O  O366  1  0.88880000  0.61120000  0.70970000  1.0 -0.1226862626
O  O367  1  0.96755000  0.53245000  0.74030000  1.0 -0.4791554325
O  O368  1  0.96734000  0.53266000  0.79090000  1.0 -0.5041110181
O  O369  1  0.89677000  0.60323000  0.84420000  1.0 -0.453281059
O  O370  1  0.86750000  0.63250000  0.81730000  1.0 -0.5331231909
O  O371  1  0.88880000  0.11120000  0.20970000  1.0 -0.1226862626
O  O372  1  0.96755000  0.03245000  0.24030000  1.0 -0.4791554325
O  O373  1  0.96734000  0.03266000  0.29090000  1.0 -0.5041110181
O  O374  1  0.89677000  0.10323000  0.34420000  1.0 -0.453281059
O  O375  1  0.86750000  0.13250000  0.31730000  1.0 -0.5331231909
O  O376  1  0.38880000  0.11120000  0.70970000  1.0 -0.1226862626
O  O377  1  0.46755000  0.03245000  0.74030000  1.0 -0.4791554325
O  O378  1  0.46734000  0.03266000  0.79090000  1.0 -0.5041110181
O  O379  1  0.39677000  0.10323000  0.84420000  1.0 -0.453281059
O  O380  1  0.36750000  0.13250000  0.81730000  1.0 -0.5331231909
O  O381  1  0.70970000  0.61120000  0.88880000  1.0 -0.1226862626
O  O382  1  0.74030000  0.53245000  0.96755000  1.0 -0.4791554325
O  O383  1  0.79090000  0.53266000  0.96734000  1.0 -0.5041110181
O  O384  1  0.84420000  0.60323000  0.89677000  1.0 -0.453281059
O  O385  1  0.81730000  0.63250000  0.86750000  1.0 -0.5331231909
O  O386  1  0.20970000  0.61120000  0.38880000  1.0 -0.1226862626
O  O387  1  0.24030000  0.53245000  0.46755000  1.0 -0.4791554325
O  O388  1  0.29090000  0.53266000  0.46734000  1.0 -0.5041110181
O  O389  1  0.34420000  0.60323000  0.39677000  1.0 -0.453281059
O  O390  1  0.31730000  0.63250000  0.36750000  1.0 -0.5331231909
O  O391  1  0.29030000  0.38880000  0.88880000  1.0 -0.1226862626
O  O392  1  0.25970000  0.46755000  0.96755000  1.0 -0.4791554325
O  O393  1  0.20910000  0.46734000  0.96734000  1.0 -0.5041110181
O  O394  1  0.15580000  0.39677000  0.89677000  1.0 -0.453281059
O  O395  1  0.18270000  0.36750000  0.86750000  1.0 -0.5331231909
O  O396  1  0.29030000  0.61120000  0.11120000  1.0 -0.1226862626
O  O397  1  0.25970000  0.53245000  0.03245000  1.0 -0.4791554325
O  O398  1  0.20910000  0.53266000  0.03266000  1.0 -0.5041110181
O  O399  1  0.15580000  0.60323000  0.10323000  1.0 -0.453281059
O  O400  1  0.18270000  0.63250000  0.13250000  1.0 -0.5331231909
O  O401  1  0.79030000  0.61120000  0.61120000  1.0 -0.1226862626
O  O402  1  0.75970000  0.53245000  0.53245000  1.0 -0.4791554325
O  O403  1  0.70910000  0.53266000  0.53266000  1.0 -0.5041110181
O  O404  1  0.65580000  0.60323000  0.60323000  1.0 -0.453281059
O  O405  1  0.68270000  0.63250000  0.63250000  1.0 -0.5331231909
O  O406  1  0.20970000  0.38880000  0.61120000  1.0 -0.1226862626
O  O407  1  0.24030000  0.46755000  0.53245000  1.0 -0.4791554325
O  O408  1  0.29090000  0.46734000  0.53266000  1.0 -0.5041110181
O  O409  1  0.34420000  0.39677000  0.60323000  1.0 -0.453281059
O  O410  1  0.31730000  0.36750000  0.63250000  1.0 -0.5331231909
O  O411  1  0.88880000  0.70970000  0.61120000  1.0 -0.1226862626
O  O412  1  0.96755000  0.74030000  0.53245000  1.0 -0.4791554325
O  O413  1  0.96734000  0.79090000  0.53266000  1.0 -0.5041110181
O  O414  1  0.89677000  0.84420000  0.60323000  1.0 -0.453281059
O  O415  1  0.86750000  0.81730000  0.63250000  1.0 -0.5331231909
O  O416  1  0.88880000  0.20970000  0.11120000  1.0 -0.1226862626
O  O417  1  0.96755000  0.24030000  0.03245000  1.0 -0.4791554325
O  O418  1  0.96734000  0.29090000  0.03266000  1.0 -0.5041110181
O  O419  1  0.89677000  0.34420000  0.10323000  1.0 -0.453281059
O  O420  1  0.86750000  0.31730000  0.13250000  1.0 -0.5331231909
O  O421  1  0.88880000  0.29030000  0.38880000  1.0 -0.1226862626
O  O422  1  0.96755000  0.25970000  0.46755000  1.0 -0.4791554325
O  O423  1  0.96734000  0.20910000  0.46734000  1.0 -0.5041110181
O  O424  1  0.89677000  0.15580000  0.39677000  1.0 -0.453281059
O  O425  1  0.86750000  0.18270000  0.36750000  1.0 -0.5331231909
O  O426  1  0.88880000  0.79030000  0.88880000  1.0 -0.1226862626
O  O427  1  0.96755000  0.75970000  0.96755000  1.0 -0.4791554325
O  O428  1  0.96734000  0.70910000  0.96734000  1.0 -0.5041110181
O  O429  1  0.89677000  0.65580000  0.89677000  1.0 -0.453281059
O  O430  1  0.86750000  0.68270000  0.86750000  1.0 -0.5331231909
O  O431  1  0.11120000  0.29030000  0.61120000  1.0 -0.1226862626
O  O432  1  0.03245000  0.25970000  0.53245000  1.0 -0.4791554325
O  O433  1  0.03266000  0.20910000  0.53266000  1.0 -0.5041110181
O  O434  1  0.10323000  0.15580000  0.60323000  1.0 -0.453281059
O  O435  1  0.13250000  0.18270000  0.63250000  1.0 -0.5331231909
O  O436  1  0.11120000  0.20970000  0.88880000  1.0 -0.1226862626
O  O437  1  0.03245000  0.24030000  0.96755000  1.0 -0.4791554325
O  O438  1  0.03266000  0.29090000  0.96734000  1.0 -0.5041110181
O  O439  1  0.10323000  0.34420000  0.89677000  1.0 -0.453281059
O  O440  1  0.13250000  0.31730000  0.86750000  1.0 -0.5331231909
O  O441  1  0.61120000  0.88880000  0.70970000  1.0 -0.1226862626
O  O442  1  0.53245000  0.96755000  0.74030000  1.0 -0.4791554325
O  O443  1  0.53266000  0.96734000  0.79090000  1.0 -0.5041110181
O  O444  1  0.60323000  0.89677000  0.84420000  1.0 -0.453281059
O  O445  1  0.63250000  0.86750000  0.81730000  1.0 -0.5331231909
O  O446  1  0.61120000  0.38880000  0.20970000  1.0 -0.1226862626
O  O447  1  0.53245000  0.46755000  0.24030000  1.0 -0.4791554325
O  O448  1  0.53266000  0.46734000  0.29090000  1.0 -0.5041110181
O  O449  1  0.60323000  0.39677000  0.34420000  1.0 -0.453281059
O  O450  1  0.63250000  0.36750000  0.31730000  1.0 -0.5331231909
O  O451  1  0.38880000  0.88880000  0.29030000  1.0 -0.1226862626
O  O452  1  0.46755000  0.96755000  0.25970000  1.0 -0.4791554325
O  O453  1  0.46734000  0.96734000  0.20910000  1.0 -0.5041110181
O  O454  1  0.39677000  0.89677000  0.15580000  1.0 -0.453281059
O  O455  1  0.36750000  0.86750000  0.18270000  1.0 -0.5331231909
O  O456  1  0.61120000  0.11120000  0.29030000  1.0 -0.1226862626
O  O457  1  0.53245000  0.03245000  0.25970000  1.0 -0.4791554325
O  O458  1  0.53266000  0.03266000  0.20910000  1.0 -0.5041110181
O  O459  1  0.60323000  0.10323000  0.15580000  1.0 -0.453281059
O  O460  1  0.63250000  0.13250000  0.18270000  1.0 -0.5331231909
O  O461  1  0.61120000  0.61120000  0.79030000  1.0 -0.1226862626
O  O462  1  0.53245000  0.53245000  0.75970000  1.0 -0.4791554325
O  O463  1  0.53266000  0.53266000  0.70910000  1.0 -0.5041110181
O  O464  1  0.60323000  0.60323000  0.65580000  1.0 -0.453281059
O  O465  1  0.63250000  0.63250000  0.68270000  1.0 -0.5331231909
O  O466  1  0.38880000  0.61120000  0.20970000  1.0 -0.1226862626
O  O467  1  0.46755000  0.53245000  0.24030000  1.0 -0.4791554325
O  O468  1  0.46734000  0.53266000  0.29090000  1.0 -0.5041110181
O  O469  1  0.39677000  0.60323000  0.34420000  1.0 -0.453281059
O  O470  1  0.36750000  0.63250000  0.31730000  1.0 -0.5331231909
O  O471  1  0.61120000  0.70970000  0.11120000  1.0 -0.1226862626
O  O472  1  0.53245000  0.74030000  0.03245000  1.0 -0.4791554325
O  O473  1  0.53266000  0.79090000  0.03266000  1.0 -0.5041110181
O  O474  1  0.60323000  0.84420000  0.10323000  1.0 -0.453281059
O  O475  1  0.63250000  0.81730000  0.13250000  1.0 -0.5331231909
O  O476  1  0.61120000  0.20970000  0.61120000  1.0 -0.1226862626
O  O477  1  0.53245000  0.24030000  0.53245000  1.0 -0.4791554325
O  O478  1  0.53266000  0.29090000  0.53266000  1.0 -0.5041110181
O  O479  1  0.60323000  0.34420000  0.60323000  1.0 -0.453281059
O  O480  1  0.63250000  0.31730000  0.63250000  1.0 -0.5331231909
O  O481  1  0.38880000  0.79030000  0.61120000  1.0 -0.1226862626
O  O482  1  0.46755000  0.75970000  0.53245000  1.0 -0.4791554325
O  O483  1  0.46734000  0.70910000  0.53266000  1.0 -0.5041110181
O  O484  1  0.39677000  0.65580000  0.60323000  1.0 -0.453281059
O  O485  1  0.36750000  0.68270000  0.63250000  1.0 -0.5331231909
O  O486  1  0.61120000  0.29030000  0.88880000  1.0 -0.1226862626
O  O487  1  0.53245000  0.25970000  0.96755000  1.0 -0.4791554325
O  O488  1  0.53266000  0.20910000  0.96734000  1.0 -0.5041110181
O  O489  1  0.60323000  0.15580000  0.89677000  1.0 -0.453281059
O  O490  1  0.63250000  0.18270000  0.86750000  1.0 -0.5331231909
O  O491  1  0.61120000  0.79030000  0.38880000  1.0 -0.1226862626
O  O492  1  0.53245000  0.75970000  0.46755000  1.0 -0.4791554325
O  O493  1  0.53266000  0.70910000  0.46734000  1.0 -0.5041110181
O  O494  1  0.60323000  0.65580000  0.39677000  1.0 -0.453281059
O  O495  1  0.63250000  0.68270000  0.36750000  1.0 -0.5331231909
O  O496  1  0.38880000  0.70970000  0.88880000  1.0 -0.1226862626
O  O497  1  0.46755000  0.74030000  0.96755000  1.0 -0.4791554325
O  O498  1  0.46734000  0.79090000  0.96734000  1.0 -0.5041110181
O  O499  1  0.39677000  0.84420000  0.89677000  1.0 -0.453281059
O  O500  1  0.36750000  0.81730000  0.86750000  1.0 -0.5331231909
O  O501  1  0.70970000  0.88880000  0.38880000  1.0 -0.1226862626
O  O502  1  0.74030000  0.96755000  0.46755000  1.0 -0.4791554325
O  O503  1  0.79090000  0.96734000  0.46734000  1.0 -0.5041110181
O  O504  1  0.84420000  0.89677000  0.39677000  1.0 -0.453281059
O  O505  1  0.81730000  0.86750000  0.36750000  1.0 -0.5331231909
O  O506  1  0.20970000  0.88880000  0.88880000  1.0 -0.1226862626
O  O507  1  0.24030000  0.96755000  0.96755000  1.0 -0.4791554325
O  O508  1  0.29090000  0.96734000  0.96734000  1.0 -0.5041110181
O  O509  1  0.34420000  0.89677000  0.89677000  1.0 -0.453281059
O  O510  1  0.31730000  0.86750000  0.86750000  1.0 -0.5331231909
O  O511  1  0.29030000  0.88880000  0.61120000  1.0 -0.1226862626
O  O512  1  0.25970000  0.96755000  0.53245000  1.0 -0.4791554325
O  O513  1  0.20910000  0.96734000  0.53266000  1.0 -0.5041110181
O  O514  1  0.15580000  0.89677000  0.60323000  1.0 -0.453281059
O  O515  1  0.18270000  0.86750000  0.63250000  1.0 -0.5331231909
O  O516  1  0.79030000  0.88880000  0.11120000  1.0 -0.1226862626
O  O517  1  0.75970000  0.96755000  0.03245000  1.0 -0.4791554325
O  O518  1  0.70910000  0.96734000  0.03266000  1.0 -0.5041110181
O  O519  1  0.65580000  0.89677000  0.10323000  1.0 -0.453281059
O  O520  1  0.68270000  0.86750000  0.13250000  1.0 -0.5331231909
O  O521  1  0.79030000  0.11120000  0.88880000  1.0 -0.1226862626
O  O522  1  0.75970000  0.03245000  0.96755000  1.0 -0.4791554325
O  O523  1  0.70910000  0.03266000  0.96734000  1.0 -0.5041110181
O  O524  1  0.65580000  0.10323000  0.89677000  1.0 -0.453281059
O  O525  1  0.68270000  0.13250000  0.86750000  1.0 -0.5331231909
O  O526  1  0.70970000  0.11120000  0.61120000  1.0 -0.1226862626
O  O527  1  0.74030000  0.03245000  0.53245000  1.0 -0.4791554325
O  O528  1  0.79090000  0.03266000  0.53266000  1.0 -0.5041110181
O  O529  1  0.84420000  0.10323000  0.60323000  1.0 -0.453281059
O  O530  1  0.81730000  0.13250000  0.63250000  1.0 -0.5331231909
O  O531  1  0.88880000  0.61120000  0.29030000  1.0 -0.1226862626
O  O532  1  0.96755000  0.53245000  0.25970000  1.0 -0.4791554325
O  O533  1  0.96734000  0.53266000  0.20910000  1.0 -0.5041110181
O  O534  1  0.89677000  0.60323000  0.15580000  1.0 -0.453281059
O  O535  1  0.86750000  0.63250000  0.18270000  1.0 -0.5331231909
O  O536  1  0.88880000  0.11120000  0.79030000  1.0 -0.1226862626
O  O537  1  0.96755000  0.03245000  0.75970000  1.0 -0.4791554325
O  O538  1  0.96734000  0.03266000  0.70910000  1.0 -0.5041110181
O  O539  1  0.89677000  0.10323000  0.65580000  1.0 -0.453281059
O  O540  1  0.86750000  0.13250000  0.68270000  1.0 -0.5331231909
O  O541  1  0.88880000  0.38880000  0.70970000  1.0 -0.1226862626
O  O542  1  0.96755000  0.46755000  0.74030000  1.0 -0.4791554325
O  O543  1  0.96734000  0.46734000  0.79090000  1.0 -0.5041110181
O  O544  1  0.89677000  0.39677000  0.84420000  1.0 -0.453281059
O  O545  1  0.86750000  0.36750000  0.81730000  1.0 -0.5331231909
O  O546  1  0.88880000  0.88880000  0.20970000  1.0 -0.1226862626
O  O547  1  0.96755000  0.96755000  0.24030000  1.0 -0.4791554325
O  O548  1  0.96734000  0.96734000  0.29090000  1.0 -0.5041110181
O  O549  1  0.89677000  0.89677000  0.34420000  1.0 -0.453281059
O  O550  1  0.86750000  0.86750000  0.31730000  1.0 -0.5331231909
O  O551  1  0.11120000  0.61120000  0.70970000  1.0 -0.1226862626
O  O552  1  0.03245000  0.53245000  0.74030000  1.0 -0.4791554325
O  O553  1  0.03266000  0.53266000  0.79090000  1.0 -0.5041110181
O  O554  1  0.10323000  0.60323000  0.84420000  1.0 -0.453281059
O  O555  1  0.13250000  0.63250000  0.81730000  1.0 -0.5331231909
O  O556  1  0.11120000  0.88880000  0.79030000  1.0 -0.1226862626
O  O557  1  0.03245000  0.96755000  0.75970000  1.0 -0.4791554325
O  O558  1  0.03266000  0.96734000  0.70910000  1.0 -0.5041110181
O  O559  1  0.10323000  0.89677000  0.65580000  1.0 -0.453281059
O  O560  1  0.13250000  0.86750000  0.68270000  1.0 -0.5331231909
O  O561  1  0.19350000  0.30650000  0.15020000  1.0 -0.3487477399
O  O562  1  0.19350000  0.80650000  0.65020000  1.0 -0.3487477399
O  O563  1  0.80650000  0.69350000  0.15020000  1.0 -0.3487477399
O  O564  1  0.80650000  0.19350000  0.65020000  1.0 -0.3487477399
O  O565  1  0.30650000  0.19350000  0.15020000  1.0 -0.3487477399
O  O566  1  0.80650000  0.30650000  0.84980000  1.0 -0.3487477399
O  O567  1  0.80650000  0.80650000  0.34980000  1.0 -0.3487477399
O  O568  1  0.30650000  0.30650000  0.34980000  1.0 -0.3487477399
O  O569  1  0.19350000  0.69350000  0.84980000  1.0 -0.3487477399
O  O570  1  0.19350000  0.19350000  0.34980000  1.0 -0.3487477399
O  O571  1  0.15020000  0.19350000  0.30650000  1.0 -0.3487477399
O  O572  1  0.65020000  0.19350000  0.80650000  1.0 -0.3487477399
O  O573  1  0.15020000  0.80650000  0.69350000  1.0 -0.3487477399
O  O574  1  0.15020000  0.30650000  0.19350000  1.0 -0.3487477399
O  O575  1  0.65020000  0.80650000  0.19350000  1.0 -0.3487477399
O  O576  1  0.84980000  0.80650000  0.30650000  1.0 -0.3487477399
O  O577  1  0.34980000  0.80650000  0.80650000  1.0 -0.3487477399
O  O578  1  0.34980000  0.30650000  0.30650000  1.0 -0.3487477399
O  O579  1  0.84980000  0.19350000  0.69350000  1.0 -0.3487477399
O  O580  1  0.34980000  0.19350000  0.19350000  1.0 -0.3487477399
O  O581  1  0.30650000  0.15020000  0.19350000  1.0 -0.3487477399
O  O582  1  0.30650000  0.65020000  0.69350000  1.0 -0.3487477399
O  O583  1  0.69350000  0.15020000  0.80650000  1.0 -0.3487477399
O  O584  1  0.69350000  0.65020000  0.30650000  1.0 -0.3487477399
O  O585  1  0.19350000  0.15020000  0.30650000  1.0 -0.3487477399
O  O586  1  0.30650000  0.84980000  0.80650000  1.0 -0.3487477399
O  O587  1  0.30650000  0.34980000  0.30650000  1.0 -0.3487477399
O  O588  1  0.69350000  0.84980000  0.19350000  1.0 -0.3487477399
O  O589  1  0.69350000  0.34980000  0.69350000  1.0 -0.3487477399
O  O590  1  0.19350000  0.34980000  0.19350000  1.0 -0.3487477399
O  O591  1  0.30650000  0.19350000  0.84980000  1.0 -0.3487477399
O  O592  1  0.30650000  0.69350000  0.34980000  1.0 -0.3487477399
O  O593  1  0.69350000  0.80650000  0.84980000  1.0 -0.3487477399
O  O594  1  0.69350000  0.30650000  0.34980000  1.0 -0.3487477399
O  O595  1  0.19350000  0.30650000  0.84980000  1.0 -0.3487477399
O  O596  1  0.30650000  0.80650000  0.15020000  1.0 -0.3487477399
O  O597  1  0.30650000  0.30650000  0.65020000  1.0 -0.3487477399
O  O598  1  0.69350000  0.19350000  0.15020000  1.0 -0.3487477399
O  O599  1  0.69350000  0.69350000  0.65020000  1.0 -0.3487477399
O  O600  1  0.19350000  0.19350000  0.65020000  1.0 -0.3487477399
O  O601  1  0.19350000  0.15020000  0.69350000  1.0 -0.3487477399
O  O602  1  0.19350000  0.65020000  0.19350000  1.0 -0.3487477399
O  O603  1  0.80650000  0.15020000  0.30650000  1.0 -0.3487477399
O  O604  1  0.80650000  0.65020000  0.80650000  1.0 -0.3487477399
O  O605  1  0.30650000  0.65020000  0.30650000  1.0 -0.3487477399
O  O606  1  0.80650000  0.84980000  0.69350000  1.0 -0.3487477399
O  O607  1  0.80650000  0.34980000  0.19350000  1.0 -0.3487477399
O  O608  1  0.30650000  0.84980000  0.19350000  1.0 -0.3487477399
O  O609  1  0.19350000  0.84980000  0.30650000  1.0 -0.3487477399
O  O610  1  0.19350000  0.34980000  0.80650000  1.0 -0.3487477399
O  O611  1  0.15020000  0.30650000  0.80650000  1.0 -0.3487477399
O  O612  1  0.65020000  0.30650000  0.30650000  1.0 -0.3487477399
O  O613  1  0.15020000  0.69350000  0.19350000  1.0 -0.3487477399
O  O614  1  0.65020000  0.69350000  0.69350000  1.0 -0.3487477399
O  O615  1  0.65020000  0.19350000  0.19350000  1.0 -0.3487477399
O  O616  1  0.84980000  0.30650000  0.19350000  1.0 -0.3487477399
O  O617  1  0.34980000  0.30650000  0.69350000  1.0 -0.3487477399
O  O618  1  0.84980000  0.69350000  0.80650000  1.0 -0.3487477399
O  O619  1  0.84980000  0.19350000  0.30650000  1.0 -0.3487477399
O  O620  1  0.34980000  0.69350000  0.30650000  1.0 -0.3487477399
O  O621  1  0.80650000  0.69350000  0.84980000  1.0 -0.3487477399
O  O622  1  0.80650000  0.19350000  0.34980000  1.0 -0.3487477399
O  O623  1  0.19350000  0.80650000  0.34980000  1.0 -0.3487477399
O  O624  1  0.19350000  0.69350000  0.15020000  1.0 -0.3487477399
O  O625  1  0.80650000  0.30650000  0.15020000  1.0 -0.3487477399
O  O626  1  0.80650000  0.80650000  0.65020000  1.0 -0.3487477399
O  O627  1  0.84980000  0.80650000  0.69350000  1.0 -0.3487477399
O  O628  1  0.34980000  0.80650000  0.19350000  1.0 -0.3487477399
O  O629  1  0.34980000  0.19350000  0.80650000  1.0 -0.3487477399
O  O630  1  0.15020000  0.19350000  0.69350000  1.0 -0.3487477399
O  O631  1  0.15020000  0.80650000  0.30650000  1.0 -0.3487477399
O  O632  1  0.65020000  0.80650000  0.80650000  1.0 -0.3487477399
O  O633  1  0.69350000  0.84980000  0.80650000  1.0 -0.3487477399
O  O634  1  0.69350000  0.34980000  0.30650000  1.0 -0.3487477399
O  O635  1  0.30650000  0.34980000  0.69350000  1.0 -0.3487477399
O  O636  1  0.69350000  0.15020000  0.19350000  1.0 -0.3487477399
O  O637  1  0.69350000  0.65020000  0.69350000  1.0 -0.3487477399
O  O638  1  0.30650000  0.15020000  0.80650000  1.0 -0.3487477399
O  O639  1  0.69350000  0.80650000  0.15020000  1.0 -0.3487477399
O  O640  1  0.69350000  0.30650000  0.65020000  1.0 -0.3487477399
O  O641  1  0.30650000  0.69350000  0.65020000  1.0 -0.3487477399
O  O642  1  0.69350000  0.19350000  0.84980000  1.0 -0.3487477399
O  O643  1  0.69350000  0.69350000  0.34980000  1.0 -0.3487477399
O  O644  1  0.30650000  0.80650000  0.84980000  1.0 -0.3487477399
O  O645  1  0.80650000  0.84980000  0.30650000  1.0 -0.3487477399
O  O646  1  0.80650000  0.34980000  0.80650000  1.0 -0.3487477399
O  O647  1  0.19350000  0.84980000  0.69350000  1.0 -0.3487477399
O  O648  1  0.19350000  0.65020000  0.80650000  1.0 -0.3487477399
O  O649  1  0.80650000  0.15020000  0.69350000  1.0 -0.3487477399
O  O650  1  0.80650000  0.65020000  0.19350000  1.0 -0.3487477399
O  O651  1  0.84980000  0.69350000  0.19350000  1.0 -0.3487477399
O  O652  1  0.34980000  0.69350000  0.69350000  1.0 -0.3487477399
O  O653  1  0.84980000  0.30650000  0.80650000  1.0 -0.3487477399
O  O654  1  0.15020000  0.69350000  0.80650000  1.0 -0.3487477399
O  O655  1  0.65020000  0.69350000  0.30650000  1.0 -0.3487477399
O  O656  1  0.65020000  0.30650000  0.69350000  1.0 -0.3487477399
