# DDEC6 charges by PACMAN v1.1 (https://github.com/mtap-research/PACMAN-charge/)
data_ic101935f_si_002_1_ASR_pacman
_symmetry_space_group_name_H-M   'P 1'
_cell_length_a   27.26000000
_cell_length_b   27.26000000
_cell_length_c   27.26000000
_cell_angle_alpha   90.00000000
_cell_angle_beta   90.00000000
_cell_angle_gamma   90.00000000
_symmetry_Int_Tables_number   1
_chemical_formula_structural   Zn4H30C48N12O13
_chemical_formula_sum   'Zn16 H120 C192.0 N48 O52'
_cell_volume   20257.11317600
_cell_formula_units_Z   4
loop_
 _symmetry_equiv_pos_site_id
 _symmetry_equiv_pos_as_xyz
  1  'x, y, z'
loop_
 _atom_site_type_symbol
 _atom_site_label
 _atom_site_symmetry_multiplicity
 _atom_site_fract_x
 _atom_site_fract_y
 _atom_site_fract_z
 _atom_site_occupancy
 _atom_site_charge
Zn  Zn1  1  0.53825000  0.96175000  0.03825000  0.5 0.4588660758
Zn  Zn2  1  0.03825000  0.53825000  0.96175000  0.5 0.4588660758
Zn  Zn3  1  0.96175000  0.03825000  0.53825000  0.5 0.4588660758
Zn  Zn4  1  0.46175000  0.46175000  0.46175000  0.5 0.4588660758
Zn  Zn5  1  0.46175000  0.03825000  0.96175000  0.5 0.4588660758
Zn  Zn6  1  0.96175000  0.46175000  0.03825000  0.5 0.4588660758
Zn  Zn7  1  0.03825000  0.96175000  0.46175000  0.5 0.4588660758
Zn  Zn8  1  0.53825000  0.53825000  0.53825000  0.5 0.4588660758
Zn  Zn9  1  0.49313000  0.92892000  0.98603000  0.5 0.5030485924
Zn  Zn10  1  0.98603000  0.49313000  0.92892000  0.5 0.5030485924
Zn  Zn11  1  0.92892000  0.98603000  0.49313000  0.5 0.5030485924
Zn  Zn12  1  0.57108000  0.01397000  0.99313000  0.5 0.5030485924
Zn  Zn13  1  0.48603000  0.00687000  0.07108000  0.5 0.5030485924
Zn  Zn14  1  0.07108000  0.48603000  0.00687000  0.5 0.5030485924
Zn  Zn15  1  0.51397000  0.50687000  0.42892000  0.5 0.5030485924
Zn  Zn16  1  0.01397000  0.99313000  0.57108000  0.5 0.5030485924
Zn  Zn17  1  0.42892000  0.51397000  0.50687000  0.5 0.5030485924
Zn  Zn18  1  0.00687000  0.07108000  0.48603000  0.5 0.5030485924
Zn  Zn19  1  0.99313000  0.57108000  0.01397000  0.5 0.5030485924
Zn  Zn20  1  0.50687000  0.42892000  0.51397000  0.5 0.5030485924
Zn  Zn21  1  0.50687000  0.07108000  0.01397000  0.5 0.5030485924
Zn  Zn22  1  0.01397000  0.50687000  0.07108000  0.5 0.5030485924
Zn  Zn23  1  0.07108000  0.01397000  0.50687000  0.5 0.5030485924
Zn  Zn24  1  0.42892000  0.98603000  0.00687000  0.5 0.5030485924
Zn  Zn25  1  0.51397000  0.99313000  0.92892000  0.5 0.5030485924
Zn  Zn26  1  0.92892000  0.51397000  0.99313000  0.5 0.5030485924
Zn  Zn27  1  0.48603000  0.49313000  0.57108000  0.5 0.5030485924
Zn  Zn28  1  0.98603000  0.00687000  0.42892000  0.5 0.5030485924
Zn  Zn29  1  0.57108000  0.48603000  0.49313000  0.5 0.5030485924
Zn  Zn30  1  0.99313000  0.92892000  0.51397000  0.5 0.5030485924
Zn  Zn31  1  0.00687000  0.42892000  0.98603000  0.5 0.5030485924
Zn  Zn32  1  0.49313000  0.57108000  0.48603000  0.5 0.5030485924
H  H1  1  0.40130000  0.74870000  0.22460000  1.0 0.2700015889
H  H2  1  0.22460000  0.40130000  0.74870000  1.0 0.2700015889
H  H3  1  0.74870000  0.22460000  0.40130000  1.0 0.2700015889
H  H4  1  0.75130000  0.77540000  0.90130000  1.0 0.2700015889
H  H5  1  0.72460000  0.09870000  0.25130000  1.0 0.2700015889
H  H6  1  0.25130000  0.72460000  0.09870000  1.0 0.2700015889
H  H7  1  0.27540000  0.59870000  0.24870000  1.0 0.2700015889
H  H8  1  0.77540000  0.90130000  0.75130000  1.0 0.2700015889
H  H9  1  0.24870000  0.27540000  0.59870000  1.0 0.2700015889
H  H10  1  0.09870000  0.25130000  0.72460000  1.0 0.2700015889
H  H11  1  0.90130000  0.75130000  0.77540000  1.0 0.2700015889
H  H12  1  0.59870000  0.24870000  0.27540000  1.0 0.2700015889
H  H13  1  0.59870000  0.25130000  0.77540000  1.0 0.2700015889
H  H14  1  0.77540000  0.59870000  0.25130000  1.0 0.2700015889
H  H15  1  0.25130000  0.77540000  0.59870000  1.0 0.2700015889
H  H16  1  0.24870000  0.22460000  0.09870000  1.0 0.2700015889
H  H17  1  0.27540000  0.90130000  0.74870000  1.0 0.2700015889
H  H18  1  0.74870000  0.27540000  0.90130000  1.0 0.2700015889
H  H19  1  0.72460000  0.40130000  0.75130000  1.0 0.2700015889
H  H20  1  0.22460000  0.09870000  0.24870000  1.0 0.2700015889
H  H21  1  0.75130000  0.72460000  0.40130000  1.0 0.2700015889
H  H22  1  0.90130000  0.74870000  0.27540000  1.0 0.2700015889
H  H23  1  0.09870000  0.24870000  0.22460000  1.0 0.2700015889
H  H24  1  0.40130000  0.75130000  0.72460000  1.0 0.2700015889
H  H25  1  0.45290000  0.89580000  0.17810000  0.431 0.1087599758
H  H26  1  0.17810000  0.45290000  0.89580000  0.431 0.1087599758
H  H27  1  0.89580000  0.17810000  0.45290000  0.431 0.1087599758
H  H28  1  0.60420000  0.82190000  0.95290000  0.431 0.1087599758
H  H29  1  0.67810000  0.04710000  0.10420000  0.431 0.1087599758
H  H30  1  0.10420000  0.67810000  0.04710000  0.431 0.1087599758
H  H31  1  0.32190000  0.54710000  0.39580000  0.431 0.1087599758
H  H32  1  0.82190000  0.95290000  0.60420000  0.431 0.1087599758
H  H33  1  0.39580000  0.32190000  0.54710000  0.431 0.1087599758
H  H34  1  0.04710000  0.10420000  0.67810000  0.431 0.1087599758
H  H35  1  0.95290000  0.60420000  0.82190000  0.431 0.1087599758
H  H36  1  0.54710000  0.39580000  0.32190000  0.431 0.1087599758
H  H37  1  0.54710000  0.10420000  0.82190000  0.431 0.1087599758
H  H38  1  0.82190000  0.54710000  0.10420000  0.431 0.1087599758
H  H39  1  0.10420000  0.82190000  0.54710000  0.431 0.1087599758
H  H40  1  0.39580000  0.17810000  0.04710000  0.431 0.1087599758
H  H41  1  0.32190000  0.95290000  0.89580000  0.431 0.1087599758
H  H42  1  0.89580000  0.32190000  0.95290000  0.431 0.1087599758
H  H43  1  0.67810000  0.45290000  0.60420000  0.431 0.1087599758
H  H44  1  0.17810000  0.04710000  0.39580000  0.431 0.1087599758
H  H45  1  0.60420000  0.67810000  0.45290000  0.431 0.1087599758
H  H46  1  0.95290000  0.89580000  0.32190000  0.431 0.1087599758
H  H47  1  0.04710000  0.39580000  0.17810000  0.431 0.1087599758
H  H48  1  0.45290000  0.60420000  0.67810000  0.431 0.1087599758
H  H49  1  0.42200000  0.83270000  0.22610000  0.431 0.0971108823
H  H50  1  0.22610000  0.42200000  0.83270000  0.431 0.0971108823
H  H51  1  0.83270000  0.22610000  0.42200000  0.431 0.0971108823
H  H52  1  0.66730000  0.77390000  0.92200000  0.431 0.0971108823
H  H53  1  0.72610000  0.07800000  0.16730000  0.431 0.0971108823
H  H54  1  0.16730000  0.72610000  0.07800000  0.431 0.0971108823
H  H55  1  0.27390000  0.57800000  0.33270000  0.431 0.0971108823
H  H56  1  0.77390000  0.92200000  0.66730000  0.431 0.0971108823
H  H57  1  0.33270000  0.27390000  0.57800000  0.431 0.0971108823
H  H58  1  0.07800000  0.16730000  0.72610000  0.431 0.0971108823
H  H59  1  0.92200000  0.66730000  0.77390000  0.431 0.0971108823
H  H60  1  0.57800000  0.33270000  0.27390000  0.431 0.0971108823
H  H61  1  0.57800000  0.16730000  0.77390000  0.431 0.0971108823
H  H62  1  0.77390000  0.57800000  0.16730000  0.431 0.0971108823
H  H63  1  0.16730000  0.77390000  0.57800000  0.431 0.0971108823
H  H64  1  0.33270000  0.22610000  0.07800000  0.431 0.0939291144
H  H65  1  0.27390000  0.92200000  0.83270000  0.431 0.0971108823
H  H66  1  0.83270000  0.27390000  0.92200000  0.431 0.0971108823
H  H67  1  0.72610000  0.42200000  0.66730000  0.431 0.0971108823
H  H68  1  0.22610000  0.07800000  0.33270000  0.431 0.0971108823
H  H69  1  0.66730000  0.72610000  0.42200000  0.431 0.0971108823
H  H70  1  0.92200000  0.83270000  0.27390000  0.431 0.0971108823
H  H71  1  0.07800000  0.33270000  0.22610000  0.431 0.0971108823
H  H72  1  0.42200000  0.66730000  0.72610000  0.431 0.0971108823
H  H73  1  0.40770000  0.82800000  0.05660000  0.431 0.1087599758
H  H74  1  0.05660000  0.40770000  0.82800000  0.431 0.1087599758
H  H75  1  0.82800000  0.05660000  0.40770000  0.431 0.1087599758
H  H76  1  0.67200000  0.94340000  0.90770000  0.431 0.1087599758
H  H77  1  0.55660000  0.09230000  0.17200000  0.431 0.1087599758
H  H78  1  0.17200000  0.55660000  0.09230000  0.431 0.1087599758
H  H79  1  0.44340000  0.59230000  0.32800000  0.431 0.1087599758
H  H80  1  0.94340000  0.90770000  0.67200000  0.431 0.1087599758
H  H81  1  0.32800000  0.44340000  0.59230000  0.431 0.1087599758
H  H82  1  0.09230000  0.17200000  0.55660000  0.431 0.1087599758
H  H83  1  0.90770000  0.67200000  0.94340000  0.431 0.1087599758
H  H84  1  0.59230000  0.32800000  0.44340000  0.431 0.1087599758
H  H85  1  0.59230000  0.17200000  0.94340000  0.431 0.1087599758
H  H86  1  0.94340000  0.59230000  0.17200000  0.431 0.1087599758
H  H87  1  0.17200000  0.94340000  0.59230000  0.431 0.1087599758
H  H88  1  0.32800000  0.05660000  0.09230000  0.431 0.1087599758
H  H89  1  0.44340000  0.90770000  0.82800000  0.431 0.1087599758
H  H90  1  0.82800000  0.44340000  0.90770000  0.431 0.1087599758
H  H91  1  0.55660000  0.40770000  0.67200000  0.431 0.1087599758
H  H92  1  0.05660000  0.09230000  0.32800000  0.431 0.1087599758
H  H93  1  0.67200000  0.55660000  0.40770000  0.431 0.1087599758
H  H94  1  0.90770000  0.82800000  0.44340000  0.431 0.1087599758
H  H95  1  0.09230000  0.32800000  0.05660000  0.431 0.1087599758
H  H96  1  0.40770000  0.67200000  0.55660000  0.431 0.1087599758
H  H97  1  0.37470000  0.76640000  0.10420000  0.431 0.0939291144
H  H98  1  0.10420000  0.37470000  0.76640000  0.431 0.0971108823
H  H99  1  0.76640000  0.10420000  0.37470000  0.431 0.0971108823
H  H100  1  0.73360000  0.89580000  0.87470000  0.431 0.0939291144
H  H101  1  0.60420000  0.12530000  0.23360000  0.431 0.0939291144
H  H102  1  0.23360000  0.60420000  0.12530000  0.431 0.0939291144
H  H103  1  0.39580000  0.62530000  0.26640000  0.431 0.0939291144
H  H104  1  0.89580000  0.87470000  0.73360000  0.431 0.0939291144
H  H105  1  0.26640000  0.39580000  0.62530000  0.431 0.0939291144
H  H106  1  0.12530000  0.23360000  0.60420000  0.431 0.0939291144
H  H107  1  0.87470000  0.73360000  0.89580000  0.431 0.0939291144
H  H108  1  0.62530000  0.26640000  0.39580000  0.431 0.0939291144
H  H109  1  0.62530000  0.23360000  0.89580000  0.431 0.0939291144
H  H110  1  0.89580000  0.62530000  0.23360000  0.431 0.0939291144
H  H111  1  0.23360000  0.89580000  0.62530000  0.431 0.0939291144
H  H112  1  0.26640000  0.10420000  0.12530000  0.431 0.0939291144
H  H113  1  0.39580000  0.87470000  0.76640000  0.431 0.0939291144
H  H114  1  0.76640000  0.39580000  0.87470000  0.431 0.0939291144
H  H115  1  0.60420000  0.37470000  0.73360000  0.431 0.0971108823
H  H116  1  0.10420000  0.12530000  0.26640000  0.431 0.0939291144
H  H117  1  0.73360000  0.60420000  0.37470000  0.431 0.0971108823
H  H118  1  0.87470000  0.76640000  0.39580000  0.431 0.0939291144
H  H119  1  0.12530000  0.26640000  0.10420000  0.431 0.0939291144
H  H120  1  0.37470000  0.73360000  0.60420000  0.431 0.0971108823
H  H121  1  0.49580000  0.85460000  0.14530000  0.569 0.1087599758
H  H122  1  0.14530000  0.49580000  0.85460000  0.569 0.1087599758
H  H123  1  0.85460000  0.14530000  0.49580000  0.569 0.1087599758
H  H124  1  0.64540000  0.85470000  0.99580000  0.569 0.1087599758
H  H125  1  0.64530000  0.00420000  0.14540000  0.569 0.1087599758
H  H126  1  0.14540000  0.64530000  0.00420000  0.569 0.1087599758
H  H127  1  0.35470000  0.50420000  0.35460000  0.569 0.1087599758
H  H128  1  0.85470000  0.99580000  0.64540000  0.569 0.1087599758
H  H129  1  0.35460000  0.35470000  0.50420000  0.569 0.1087599758
H  H130  1  0.00420000  0.14540000  0.64530000  0.569 0.1087599758
H  H131  1  0.99580000  0.64540000  0.85470000  0.569 0.1087599758
H  H132  1  0.50420000  0.35460000  0.35470000  0.569 0.1087599758
H  H133  1  0.50420000  0.14540000  0.85470000  0.569 0.1087599758
H  H134  1  0.85470000  0.50420000  0.14540000  0.569 0.1087599758
H  H135  1  0.14540000  0.85470000  0.50420000  0.569 0.1087599758
H  H136  1  0.35460000  0.14530000  0.00420000  0.569 0.1087599758
H  H137  1  0.35470000  0.99580000  0.85460000  0.569 0.1087599758
H  H138  1  0.85460000  0.35470000  0.99580000  0.569 0.1087599758
H  H139  1  0.64530000  0.49580000  0.64540000  0.569 0.1087599758
H  H140  1  0.14530000  0.00420000  0.35460000  0.569 0.1087599758
H  H141  1  0.64540000  0.64530000  0.49580000  0.569 0.1087599758
H  H142  1  0.99580000  0.85460000  0.35470000  0.569 0.1087599758
H  H143  1  0.00420000  0.35460000  0.14530000  0.569 0.1087599758
H  H144  1  0.49580000  0.64540000  0.64530000  0.569 0.1087599758
H  H145  1  0.46740000  0.79020000  0.19270000  0.569 0.0939291144
H  H146  1  0.19270000  0.46740000  0.79020000  0.569 0.0939291144
H  H147  1  0.79020000  0.19270000  0.46740000  0.569 0.0939291144
H  H148  1  0.70980000  0.80730000  0.96740000  0.569 0.0939291144
H  H149  1  0.69270000  0.03260000  0.20980000  0.569 0.0939291144
H  H150  1  0.20980000  0.69270000  0.03260000  0.569 0.0939291144
H  H151  1  0.30730000  0.53260000  0.29020000  0.569 0.0939291144
H  H152  1  0.80730000  0.96740000  0.70980000  0.569 0.0939291144
H  H153  1  0.29020000  0.30730000  0.53260000  0.569 0.0939291144
H  H154  1  0.03260000  0.20980000  0.69270000  0.569 0.0939291144
H  H155  1  0.96740000  0.70980000  0.80730000  0.569 0.0939291144
H  H156  1  0.53260000  0.29020000  0.30730000  0.569 0.0939291144
H  H157  1  0.53260000  0.20980000  0.80730000  0.569 0.0939291144
H  H158  1  0.80730000  0.53260000  0.20980000  0.569 0.0939291144
H  H159  1  0.20980000  0.80730000  0.53260000  0.569 0.0939291144
H  H160  1  0.29020000  0.19270000  0.03260000  0.569 0.0939291144
H  H161  1  0.30730000  0.96740000  0.79020000  0.569 0.0939291144
H  H162  1  0.79020000  0.30730000  0.96740000  0.569 0.0939291144
H  H163  1  0.69270000  0.46740000  0.70980000  0.569 0.0939291144
H  H164  1  0.19270000  0.03260000  0.29020000  0.569 0.0939291144
H  H165  1  0.70980000  0.69270000  0.46740000  0.569 0.0939291144
H  H166  1  0.96740000  0.79020000  0.30730000  0.569 0.0939291144
H  H167  1  0.03260000  0.29020000  0.19270000  0.569 0.0939291144
H  H168  1  0.46740000  0.70980000  0.69270000  0.569 0.0939291144
H  H169  1  0.33470000  0.80580000  0.13200000  0.569 0.0971108823
H  H170  1  0.13200000  0.33470000  0.80580000  0.569 0.0971108823
H  H171  1  0.80580000  0.13200000  0.33470000  0.569 0.0971108823
H  H172  1  0.69420000  0.86800000  0.83470000  0.569 0.0971108823
H  H173  1  0.63200000  0.16530000  0.19420000  0.569 0.0971108823
H  H174  1  0.19420000  0.63200000  0.16530000  0.569 0.0971108823
H  H175  1  0.36800000  0.66530000  0.30580000  0.569 0.0971108823
H  H176  1  0.86800000  0.83470000  0.69420000  0.569 0.0971108823
H  H177  1  0.30580000  0.36800000  0.66530000  0.569 0.0971108823
H  H178  1  0.16530000  0.19420000  0.63200000  0.569 0.0971108823
H  H179  1  0.83470000  0.69420000  0.86800000  0.569 0.0971108823
H  H180  1  0.66530000  0.30580000  0.36800000  0.569 0.0971108823
H  H181  1  0.66530000  0.19420000  0.86800000  0.569 0.0971108823
H  H182  1  0.86800000  0.66530000  0.19420000  0.569 0.0971108823
H  H183  1  0.19420000  0.86800000  0.66530000  0.569 0.0971108823
H  H184  1  0.30580000  0.13200000  0.16530000  0.569 0.0971108823
H  H185  1  0.36800000  0.83470000  0.80580000  0.569 0.0971108823
H  H186  1  0.80580000  0.36800000  0.83470000  0.569 0.0971108823
H  H187  1  0.63200000  0.33470000  0.69420000  0.569 0.0971108823
H  H188  1  0.13200000  0.16530000  0.30580000  0.569 0.0971108823
H  H189  1  0.69420000  0.63200000  0.33470000  0.569 0.0971108823
H  H190  1  0.83470000  0.80580000  0.36800000  0.569 0.0971108823
H  H191  1  0.16530000  0.30580000  0.13200000  0.569 0.0971108823
H  H192  1  0.33470000  0.69420000  0.63200000  0.569 0.0971108823
H  H193  1  0.36530000  0.87050000  0.08650000  0.569 0.1087599758
H  H194  1  0.08650000  0.36530000  0.87050000  0.569 0.1087599758
H  H195  1  0.87050000  0.08650000  0.36530000  0.569 0.1087599758
H  H196  1  0.62950000  0.91350000  0.86530000  0.569 0.1087599758
H  H197  1  0.58650000  0.13470000  0.12950000  0.569 0.1087599758
H  H198  1  0.12950000  0.58650000  0.13470000  0.569 0.1087599758
H  H199  1  0.41350000  0.63470000  0.37050000  0.569 0.1087599758
H  H200  1  0.91350000  0.86530000  0.62950000  0.569 0.1087599758
H  H201  1  0.37050000  0.41350000  0.63470000  0.569 0.1087599758
H  H202  1  0.13470000  0.12950000  0.58650000  0.569 0.1087599758
H  H203  1  0.86530000  0.62950000  0.91350000  0.569 0.1087599758
H  H204  1  0.63470000  0.37050000  0.41350000  0.569 0.1087599758
H  H205  1  0.63470000  0.12950000  0.91350000  0.569 0.1087599758
H  H206  1  0.91350000  0.63470000  0.12950000  0.569 0.1087599758
H  H207  1  0.12950000  0.91350000  0.63470000  0.569 0.1087599758
H  H208  1  0.37050000  0.08650000  0.13470000  0.569 0.1087599758
H  H209  1  0.41350000  0.86530000  0.87050000  0.569 0.1087599758
H  H210  1  0.87050000  0.41350000  0.86530000  0.569 0.1087599758
H  H211  1  0.58650000  0.36530000  0.62950000  0.569 0.1087599758
H  H212  1  0.08650000  0.13470000  0.37050000  0.569 0.1087599758
H  H213  1  0.62950000  0.58650000  0.36530000  0.569 0.1087599758
H  H214  1  0.86530000  0.87050000  0.41350000  0.569 0.1087599758
H  H215  1  0.13470000  0.37050000  0.08650000  0.569 0.1087599758
H  H216  1  0.36530000  0.62950000  0.58650000  0.569 0.1087599758
C  C1  1  0.45272000  0.90694000  0.07837000  1.0 0.3935780486
C  C2  1  0.07837000  0.45272000  0.90694000  1.0 0.3935780486
C  C3  1  0.90694000  0.07837000  0.45272000  1.0 0.3935780486
C  C4  1  0.59306000  0.92163000  0.95272000  1.0 0.3935780486
C  C5  1  0.57837000  0.04728000  0.09306000  1.0 0.3935780486
C  C6  1  0.09306000  0.57837000  0.04728000  1.0 0.3935780486
C  C7  1  0.42163000  0.54728000  0.40694000  1.0 0.3935780486
C  C8  1  0.92163000  0.95272000  0.59306000  1.0 0.3935780486
C  C9  1  0.40694000  0.42163000  0.54728000  1.0 0.3935780486
C  C10  1  0.04728000  0.09306000  0.57837000  1.0 0.3935780486
C  C11  1  0.95272000  0.59306000  0.92163000  1.0 0.3935780486
C  C12  1  0.54728000  0.40694000  0.42163000  1.0 0.3935780486
C  C13  1  0.54728000  0.09306000  0.92163000  1.0 0.3935780486
C  C14  1  0.92163000  0.54728000  0.09306000  1.0 0.3935780486
C  C15  1  0.09306000  0.92163000  0.54728000  1.0 0.3935780486
C  C16  1  0.40694000  0.07837000  0.04728000  1.0 0.3935780486
C  C17  1  0.42163000  0.95272000  0.90694000  1.0 0.3935780486
C  C18  1  0.90694000  0.42163000  0.95272000  1.0 0.3935780486
C  C19  1  0.57837000  0.45272000  0.59306000  1.0 0.3935780486
C  C20  1  0.07837000  0.04728000  0.40694000  1.0 0.3935780486
C  C21  1  0.59306000  0.57837000  0.45272000  1.0 0.3935780486
C  C22  1  0.95272000  0.90694000  0.42163000  1.0 0.3935780486
C  C23  1  0.04728000  0.40694000  0.07837000  1.0 0.3935780486
C  C24  1  0.45272000  0.59306000  0.57837000  1.0 0.3935780486
C  C25  1  0.43294000  0.86871000  0.11130000  1.0 -0.0597459958
C  C26  1  0.11130000  0.43294000  0.86871000  1.0 -0.0597459958
C  C27  1  0.86871000  0.11130000  0.43294000  1.0 -0.0597459958
C  C28  1  0.63129000  0.88870000  0.93294000  1.0 -0.0597459958
C  C29  1  0.61130000  0.06706000  0.13129000  1.0 -0.0597459958
C  C30  1  0.13129000  0.61130000  0.06706000  1.0 -0.0597459958
C  C31  1  0.38870000  0.56706000  0.36871000  1.0 -0.0597459958
C  C32  1  0.88870000  0.93294000  0.63129000  1.0 -0.0597459958
C  C33  1  0.36871000  0.38870000  0.56706000  1.0 -0.0597459958
C  C34  1  0.06706000  0.13129000  0.61130000  1.0 -0.0597459958
C  C35  1  0.93294000  0.63129000  0.88870000  1.0 -0.0597459958
C  C36  1  0.56706000  0.36871000  0.38870000  1.0 -0.0597459958
C  C37  1  0.56706000  0.13129000  0.88870000  1.0 -0.0597459958
C  C38  1  0.88870000  0.56706000  0.13129000  1.0 -0.0597459958
C  C39  1  0.13129000  0.88870000  0.56706000  1.0 -0.0597459958
C  C40  1  0.36871000  0.11130000  0.06706000  1.0 -0.0597459958
C  C41  1  0.38870000  0.93294000  0.86871000  1.0 -0.0597459958
C  C42  1  0.86871000  0.38870000  0.93294000  1.0 -0.0597459958
C  C43  1  0.61130000  0.43294000  0.63129000  1.0 -0.0597459958
C  C44  1  0.11130000  0.06706000  0.36871000  1.0 -0.0597459958
C  C45  1  0.63129000  0.61130000  0.43294000  1.0 -0.0597459958
C  C46  1  0.93294000  0.86871000  0.38870000  1.0 -0.0597459958
C  C47  1  0.06706000  0.36871000  0.11130000  1.0 -0.0597459958
C  C48  1  0.43294000  0.63129000  0.61130000  1.0 -0.0597459958
C  C49  1  0.39598000  0.79165000  0.16896000  1.0 0.0971108823
C  C50  1  0.16896000  0.39598000  0.79165000  1.0 0.0971108823
C  C51  1  0.79165000  0.16896000  0.39598000  1.0 0.0971108823
C  C52  1  0.70835000  0.83104000  0.89598000  1.0 0.0971108823
C  C53  1  0.66896000  0.10402000  0.20835000  1.0 0.0971108823
C  C54  1  0.20835000  0.66896000  0.10402000  1.0 0.0971108823
C  C55  1  0.33104000  0.60402000  0.29165000  1.0 0.0971108823
C  C56  1  0.83104000  0.89598000  0.70835000  1.0 0.0971108823
C  C57  1  0.29165000  0.33104000  0.60402000  1.0 0.0971108823
C  C58  1  0.10402000  0.20835000  0.66896000  1.0 0.0971108823
C  C59  1  0.89598000  0.70835000  0.83104000  1.0 0.0971108823
C  C60  1  0.60402000  0.29165000  0.33104000  1.0 0.0971108823
C  C61  1  0.60402000  0.20835000  0.83104000  1.0 0.0971108823
C  C62  1  0.83104000  0.60402000  0.20835000  1.0 0.0971108823
C  C63  1  0.20835000  0.83104000  0.60402000  1.0 0.0971108823
C  C64  1  0.29165000  0.16896000  0.10402000  1.0 0.0971108823
C  C65  1  0.33104000  0.89598000  0.79165000  1.0 0.0971108823
C  C66  1  0.79165000  0.33104000  0.89598000  1.0 0.0971108823
C  C67  1  0.66896000  0.39598000  0.70835000  1.0 0.0971108823
C  C68  1  0.16896000  0.10402000  0.29165000  1.0 0.0971108823
C  C69  1  0.70835000  0.66896000  0.39598000  1.0 0.0971108823
C  C70  1  0.89598000  0.79165000  0.33104000  1.0 0.0971108823
C  C71  1  0.10402000  0.29165000  0.16896000  1.0 0.0971108823
C  C72  1  0.39598000  0.70835000  0.66896000  1.0 0.0971108823
C  C73  1  0.34680000  0.72190000  0.19264000  1.0 0.5247195225
C  C74  1  0.19264000  0.34680000  0.72190000  1.0 0.5247195225
C  C75  1  0.72190000  0.19264000  0.34680000  1.0 0.5247195225
C  C76  1  0.77810000  0.80736000  0.84680000  1.0 0.5259907108
C  C77  1  0.69264000  0.15320000  0.27810000  1.0 0.5259907108
C  C78  1  0.27810000  0.69264000  0.15320000  1.0 0.5247195225
C  C79  1  0.30736000  0.65320000  0.22190000  1.0 0.5247195225
C  C80  1  0.80736000  0.84680000  0.77810000  1.0 0.5259907108
C  C81  1  0.22190000  0.30736000  0.65320000  1.0 0.5247195225
C  C82  1  0.15320000  0.27810000  0.69264000  1.0 0.5247195225
C  C83  1  0.84680000  0.77810000  0.80736000  1.0 0.5259907108
C  C84  1  0.65320000  0.22190000  0.30736000  1.0 0.5247195225
C  C85  1  0.65320000  0.27810000  0.80736000  1.0 0.5259907108
C  C86  1  0.80736000  0.65320000  0.27810000  1.0 0.5259907108
C  C87  1  0.27810000  0.80736000  0.65320000  1.0 0.5259907108
C  C88  1  0.22190000  0.19264000  0.15320000  1.0 0.5247195225
C  C89  1  0.30736000  0.84680000  0.72190000  1.0 0.5259907108
C  C90  1  0.72190000  0.30736000  0.84680000  1.0 0.5259907108
C  C91  1  0.69264000  0.34680000  0.77810000  1.0 0.5259907108
C  C92  1  0.19264000  0.15320000  0.22190000  1.0 0.5247195225
C  C93  1  0.77810000  0.69264000  0.34680000  1.0 0.5259907108
C  C94  1  0.84680000  0.72190000  0.30736000  1.0 0.5259907108
C  C95  1  0.15320000  0.22190000  0.19264000  1.0 0.5247195225
C  C96  1  0.34680000  0.77810000  0.69264000  1.0 0.5259907108
C  C97  1  0.43721000  0.86920000  0.16280000  0.431 -0.049800672
C  C98  1  0.16280000  0.43721000  0.86920000  0.431 -0.049800672
C  C99  1  0.86920000  0.16280000  0.43721000  0.431 -0.049800672
C  C100  1  0.63080000  0.83720000  0.93721000  0.431 -0.049800672
C  C101  1  0.66280000  0.06279000  0.13080000  0.431 -0.049800672
C  C102  1  0.13080000  0.66280000  0.06279000  0.431 -0.049800672
C  C103  1  0.33720000  0.56279000  0.36920000  0.431 -0.049800672
C  C104  1  0.83720000  0.93721000  0.63080000  0.431 -0.049800672
C  C105  1  0.36920000  0.33720000  0.56279000  0.431 -0.049800672
C  C106  1  0.06279000  0.13080000  0.66280000  0.431 -0.049800672
C  C107  1  0.93721000  0.63080000  0.83720000  0.431 -0.049800672
C  C108  1  0.56279000  0.36920000  0.33720000  0.431 -0.049800672
C  C109  1  0.56279000  0.13080000  0.83720000  0.431 -0.049800672
C  C110  1  0.83720000  0.56279000  0.13080000  0.431 -0.049800672
C  C111  1  0.13080000  0.83720000  0.56279000  0.431 -0.049800672
C  C112  1  0.36920000  0.16280000  0.06279000  0.431 -0.049800672
C  C113  1  0.33720000  0.93721000  0.86920000  0.431 -0.049800672
C  C114  1  0.86920000  0.33720000  0.93721000  0.431 -0.049800672
C  C115  1  0.66280000  0.43721000  0.63080000  0.431 -0.049800672
C  C116  1  0.16280000  0.06279000  0.36920000  0.431 -0.049800672
C  C117  1  0.63080000  0.66280000  0.43721000  0.431 -0.049800672
C  C118  1  0.93721000  0.86920000  0.33720000  0.431 -0.049800672
C  C119  1  0.06279000  0.36920000  0.16280000  0.431 -0.049800672
C  C120  1  0.43721000  0.63080000  0.66280000  0.431 -0.049800672
C  C121  1  0.41900000  0.83150000  0.19180000  0.431 -0.1013600219
C  C122  1  0.19180000  0.41900000  0.83150000  0.431 -0.1013600219
C  C123  1  0.83150000  0.19180000  0.41900000  0.431 -0.1013600219
C  C124  1  0.66850000  0.80820000  0.91900000  0.431 -0.1055892769
C  C125  1  0.69180000  0.08100000  0.16850000  0.431 -0.1055892769
C  C126  1  0.16850000  0.69180000  0.08100000  0.431 -0.1055892769
C  C127  1  0.30820000  0.58100000  0.33150000  0.431 -0.1055892769
C  C128  1  0.80820000  0.91900000  0.66850000  0.431 -0.1055892769
C  C129  1  0.33150000  0.30820000  0.58100000  0.431 -0.1055892769
C  C130  1  0.08100000  0.16850000  0.69180000  0.431 -0.1055892769
C  C131  1  0.91900000  0.66850000  0.80820000  0.431 -0.1055892769
C  C132  1  0.58100000  0.33150000  0.30820000  0.431 -0.1055892769
C  C133  1  0.58100000  0.16850000  0.80820000  0.431 -0.1055892769
C  C134  1  0.80820000  0.58100000  0.16850000  0.431 -0.1055892769
C  C135  1  0.16850000  0.80820000  0.58100000  0.431 -0.1055892769
C  C136  1  0.33150000  0.19180000  0.08100000  0.431 -0.1055892769
C  C137  1  0.30820000  0.91900000  0.83150000  0.431 -0.1055892769
C  C138  1  0.83150000  0.30820000  0.91900000  0.431 -0.1055892769
C  C139  1  0.69180000  0.41900000  0.66850000  0.431 -0.1013600219
C  C140  1  0.19180000  0.08100000  0.33150000  0.431 -0.1055892769
C  C141  1  0.66850000  0.69180000  0.41900000  0.431 -0.1013600219
C  C142  1  0.91900000  0.83150000  0.30820000  0.431 -0.1055892769
C  C143  1  0.08100000  0.33150000  0.19180000  0.431 -0.1055892769
C  C144  1  0.41900000  0.66850000  0.69180000  0.431 -0.1013600219
C  C145  1  0.41050000  0.82990000  0.09090000  0.431 -0.0689808591
C  C146  1  0.09090000  0.41050000  0.82990000  0.431 -0.0689808591
C  C147  1  0.82990000  0.09090000  0.41050000  0.431 -0.0689808591
C  C148  1  0.67010000  0.90910000  0.91050000  0.431 -0.0689808591
C  C149  1  0.59090000  0.08950000  0.17010000  0.431 -0.0689808591
C  C150  1  0.17010000  0.59090000  0.08950000  0.431 -0.0689808591
C  C151  1  0.40910000  0.58950000  0.32990000  0.431 -0.0689808591
C  C152  1  0.90910000  0.91050000  0.67010000  0.431 -0.0689808591
C  C153  1  0.32990000  0.40910000  0.58950000  0.431 -0.0689808591
C  C154  1  0.08950000  0.17010000  0.59090000  0.431 -0.0689808591
C  C155  1  0.91050000  0.67010000  0.90910000  0.431 -0.0689808591
C  C156  1  0.58950000  0.32990000  0.40910000  0.431 -0.0689808591
C  C157  1  0.58950000  0.17010000  0.90910000  0.431 -0.0689808591
C  C158  1  0.90910000  0.58950000  0.17010000  0.431 -0.0689808591
C  C159  1  0.17010000  0.90910000  0.58950000  0.431 -0.0689808591
C  C160  1  0.32990000  0.09090000  0.08950000  0.431 -0.0689808591
C  C161  1  0.40910000  0.91050000  0.82990000  0.431 -0.0689808591
C  C162  1  0.82990000  0.40910000  0.91050000  0.431 -0.0689808591
C  C163  1  0.59090000  0.41050000  0.67010000  0.431 -0.0689808591
C  C164  1  0.09090000  0.08950000  0.32990000  0.431 -0.0689808591
C  C165  1  0.67010000  0.59090000  0.41050000  0.431 -0.0689808591
C  C166  1  0.91050000  0.82990000  0.40910000  0.431 -0.0689808591
C  C167  1  0.08950000  0.32990000  0.09090000  0.431 -0.0689808591
C  C168  1  0.41050000  0.67010000  0.59090000  0.431 -0.0689808591
C  C169  1  0.39140000  0.79230000  0.11970000  0.431 -0.0785997063
C  C170  1  0.11970000  0.39140000  0.79230000  0.431 -0.0785997063
C  C171  1  0.79230000  0.11970000  0.39140000  0.431 -0.0785997063
C  C172  1  0.70770000  0.88030000  0.89140000  0.431 -0.0785997063
C  C173  1  0.61970000  0.10860000  0.20770000  0.431 -0.0689808591
C  C174  1  0.20770000  0.61970000  0.10860000  0.431 -0.0689808591
C  C175  1  0.38030000  0.60860000  0.29230000  0.431 -0.0785997063
C  C176  1  0.88030000  0.89140000  0.70770000  0.431 -0.0785997063
C  C177  1  0.29230000  0.38030000  0.60860000  0.431 -0.0785997063
C  C178  1  0.10860000  0.20770000  0.61970000  0.431 -0.0689808591
C  C179  1  0.89140000  0.70770000  0.88030000  0.431 -0.0785997063
C  C180  1  0.60860000  0.29230000  0.38030000  0.431 -0.0785997063
C  C181  1  0.60860000  0.20770000  0.88030000  0.431 -0.0689808591
C  C182  1  0.88030000  0.60860000  0.20770000  0.431 -0.0689808591
C  C183  1  0.20770000  0.88030000  0.60860000  0.431 -0.0689808591
C  C184  1  0.29230000  0.11970000  0.10860000  0.431 -0.0785997063
C  C185  1  0.38030000  0.89140000  0.79230000  0.431 -0.0785997063
C  C186  1  0.79230000  0.38030000  0.89140000  0.431 -0.0785997063
C  C187  1  0.61970000  0.39140000  0.70770000  0.431 -0.0785997063
C  C188  1  0.11970000  0.10860000  0.29230000  0.431 -0.0785997063
C  C189  1  0.70770000  0.61970000  0.39140000  0.431 -0.0785997063
C  C190  1  0.89140000  0.79230000  0.38030000  0.431 -0.0785997063
C  C191  1  0.10860000  0.29230000  0.11970000  0.431 -0.0785997063
C  C192  1  0.39140000  0.70770000  0.61970000  0.431 -0.0785997063
C  C193  1  0.46280000  0.84500000  0.14280000  0.569 -0.0689808591
C  C194  1  0.14280000  0.46280000  0.84500000  0.569 -0.0689808591
C  C195  1  0.84500000  0.14280000  0.46280000  0.569 -0.0689808591
C  C196  1  0.65500000  0.85720000  0.96280000  0.569 -0.0597459958
C  C197  1  0.64280000  0.03720000  0.15500000  0.569 -0.0597459958
C  C198  1  0.15500000  0.64280000  0.03720000  0.569 -0.0597459958
C  C199  1  0.35720000  0.53720000  0.34500000  0.569 -0.0689808591
C  C200  1  0.85720000  0.96280000  0.65500000  0.569 -0.0597459958
C  C201  1  0.34500000  0.35720000  0.53720000  0.569 -0.0689808591
C  C202  1  0.03720000  0.15500000  0.64280000  0.569 -0.0597459958
C  C203  1  0.96280000  0.65500000  0.85720000  0.569 -0.0597459958
C  C204  1  0.53720000  0.34500000  0.35720000  0.569 -0.0689808591
C  C205  1  0.53720000  0.15500000  0.85720000  0.569 -0.0597459958
C  C206  1  0.85720000  0.53720000  0.15500000  0.569 -0.0689808591
C  C207  1  0.15500000  0.85720000  0.53720000  0.569 -0.0597459958
C  C208  1  0.34500000  0.14280000  0.03720000  0.569 -0.0689808591
C  C209  1  0.35720000  0.96280000  0.84500000  0.569 -0.0597459958
C  C210  1  0.84500000  0.35720000  0.96280000  0.569 -0.0689808591
C  C211  1  0.64280000  0.46280000  0.65500000  0.569 -0.0689808591
C  C212  1  0.14280000  0.03720000  0.34500000  0.569 -0.0689808591
C  C213  1  0.65500000  0.64280000  0.46280000  0.569 -0.0689808591
C  C214  1  0.96280000  0.84500000  0.35720000  0.569 -0.0689808591
C  C215  1  0.03720000  0.34500000  0.14280000  0.569 -0.0689808591
C  C216  1  0.46280000  0.65500000  0.64280000  0.569 -0.0689808591
C  C217  1  0.44570000  0.80650000  0.17140000  0.569 -0.0785997063
C  C218  1  0.17140000  0.44570000  0.80650000  0.569 -0.0785997063
C  C219  1  0.80650000  0.17140000  0.44570000  0.569 -0.0785997063
C  C220  1  0.69350000  0.82860000  0.94570000  0.569 -0.0785997063
C  C221  1  0.67140000  0.05430000  0.19350000  0.569 -0.0785997063
C  C222  1  0.19350000  0.67140000  0.05430000  0.569 -0.0785997063
C  C223  1  0.32860000  0.55430000  0.30650000  0.569 -0.0785997063
C  C224  1  0.82860000  0.94570000  0.69350000  0.569 -0.0785997063
C  C225  1  0.30650000  0.32860000  0.55430000  0.569 -0.0785997063
C  C226  1  0.05430000  0.19350000  0.67140000  0.569 -0.0785997063
C  C227  1  0.94570000  0.69350000  0.82860000  0.569 -0.0785997063
C  C228  1  0.55430000  0.30650000  0.32860000  0.569 -0.0785997063
C  C229  1  0.55430000  0.19350000  0.82860000  0.569 -0.0785997063
C  C230  1  0.82860000  0.55430000  0.19350000  0.569 -0.0785997063
C  C231  1  0.19350000  0.82860000  0.55430000  0.569 -0.0785997063
C  C232  1  0.30650000  0.17140000  0.05430000  0.569 -0.0785997063
C  C233  1  0.32860000  0.94570000  0.80650000  0.569 -0.0785997063
C  C234  1  0.80650000  0.32860000  0.94570000  0.569 -0.0785997063
C  C235  1  0.67140000  0.44570000  0.69350000  0.569 -0.0785997063
C  C236  1  0.17140000  0.05430000  0.30650000  0.569 -0.0785997063
C  C237  1  0.69350000  0.67140000  0.44570000  0.569 -0.0785997063
C  C238  1  0.94570000  0.80650000  0.32860000  0.569 -0.0785997063
C  C239  1  0.05430000  0.30650000  0.17140000  0.569 -0.0785997063
C  C240  1  0.44570000  0.69350000  0.67140000  0.569 -0.0785997063
C  C241  1  0.36750000  0.81540000  0.13610000  0.569 -0.0855697788
C  C242  1  0.13610000  0.36750000  0.81540000  0.569 -0.0855697788
C  C243  1  0.81540000  0.13610000  0.36750000  0.569 -0.0855697788
C  C244  1  0.68460000  0.86390000  0.86750000  0.569 -0.0785997063
C  C245  1  0.63610000  0.13250000  0.18460000  0.569 -0.0855697788
C  C246  1  0.18460000  0.63610000  0.13250000  0.569 -0.0855697788
C  C247  1  0.36390000  0.63250000  0.31540000  0.569 -0.0855697788
C  C248  1  0.86390000  0.86750000  0.68460000  0.569 -0.0785997063
C  C249  1  0.31540000  0.36390000  0.63250000  0.569 -0.0855697788
C  C250  1  0.13250000  0.18460000  0.63610000  0.569 -0.0855697788
C  C251  1  0.86750000  0.68460000  0.86390000  0.569 -0.0785997063
C  C252  1  0.63250000  0.31540000  0.36390000  0.569 -0.0855697788
C  C253  1  0.63250000  0.18460000  0.86390000  0.569 -0.0855697788
C  C254  1  0.86390000  0.63250000  0.18460000  0.569 -0.0855697788
C  C255  1  0.18460000  0.86390000  0.63250000  0.569 -0.0855697788
C  C256  1  0.31540000  0.13610000  0.13250000  0.569 -0.0855697788
C  C257  1  0.36390000  0.86750000  0.81540000  0.569 -0.0855697788
C  C258  1  0.81540000  0.36390000  0.86750000  0.569 -0.0855697788
C  C259  1  0.63610000  0.36750000  0.68460000  0.569 -0.0785997063
C  C260  1  0.13610000  0.13250000  0.31540000  0.569 -0.0855697788
C  C261  1  0.68460000  0.63610000  0.36750000  0.569 -0.0785997063
C  C262  1  0.86750000  0.81540000  0.36390000  0.569 -0.0855697788
C  C263  1  0.13250000  0.31540000  0.13610000  0.569 -0.0855697788
C  C264  1  0.36750000  0.68460000  0.63610000  0.569 -0.0785997063
C  C265  1  0.38640000  0.85410000  0.10830000  0.569 -0.0597459958
C  C266  1  0.10830000  0.38640000  0.85410000  0.569 -0.0597459958
C  C267  1  0.85410000  0.10830000  0.38640000  0.569 -0.0597459958
C  C268  1  0.64590000  0.89170000  0.88640000  0.569 -0.0597459958
C  C269  1  0.60830000  0.11360000  0.14590000  0.569 -0.0597459958
C  C270  1  0.14590000  0.60830000  0.11360000  0.569 -0.0597459958
C  C271  1  0.39170000  0.61360000  0.35410000  0.569 -0.0597459958
C  C272  1  0.89170000  0.88640000  0.64590000  0.569 -0.0597459958
C  C273  1  0.35410000  0.39170000  0.61360000  0.569 -0.0597459958
C  C274  1  0.11360000  0.14590000  0.60830000  0.569 -0.0597459958
C  C275  1  0.88640000  0.64590000  0.89170000  0.569 -0.0597459958
C  C276  1  0.61360000  0.35410000  0.39170000  0.569 -0.0597459958
C  C277  1  0.61360000  0.14590000  0.89170000  0.569 -0.0597459958
C  C278  1  0.89170000  0.61360000  0.14590000  0.569 -0.0597459958
C  C279  1  0.14590000  0.89170000  0.61360000  0.569 -0.0597459958
C  C280  1  0.35410000  0.10830000  0.11360000  0.569 -0.0597459958
C  C281  1  0.39170000  0.88640000  0.85410000  0.569 -0.0597459958
C  C282  1  0.85410000  0.39170000  0.88640000  0.569 -0.0597459958
C  C283  1  0.60830000  0.38640000  0.64590000  0.569 -0.0597459958
C  C284  1  0.10830000  0.11360000  0.35410000  0.569 -0.0597459958
C  C285  1  0.64590000  0.60830000  0.38640000  0.569 -0.0597459958
C  C286  1  0.88640000  0.85410000  0.39170000  0.569 -0.0597459958
C  C287  1  0.11360000  0.35410000  0.10830000  0.569 -0.0597459958
C  C288  1  0.38640000  0.64590000  0.60830000  0.569 -0.0597459958
N  N1  1  0.38319000  0.75308000  0.19865000  1.0 -0.3870129244
N  N2  1  0.19865000  0.38319000  0.75308000  1.0 -0.3870129244
N  N3  1  0.75308000  0.19865000  0.38319000  1.0 -0.3870129244
N  N4  1  0.74692000  0.80135000  0.88319000  1.0 -0.3870129244
N  N5  1  0.69865000  0.11681000  0.24692000  1.0 -0.3870129244
N  N6  1  0.24692000  0.69865000  0.11681000  1.0 -0.3870129244
N  N7  1  0.30135000  0.61681000  0.25308000  1.0 -0.3870129244
N  N8  1  0.80135000  0.88319000  0.74692000  1.0 -0.3870129244
N  N9  1  0.25308000  0.30135000  0.61681000  1.0 -0.3870129244
N  N10  1  0.11681000  0.24692000  0.69865000  1.0 -0.3870129244
N  N11  1  0.88319000  0.74692000  0.80135000  1.0 -0.3870129244
N  N12  1  0.61681000  0.25308000  0.30135000  1.0 -0.3870129244
N  N13  1  0.61681000  0.24692000  0.80135000  1.0 -0.3870129244
N  N14  1  0.80135000  0.61681000  0.24692000  1.0 -0.3870129244
N  N15  1  0.24692000  0.80135000  0.61681000  1.0 -0.3870129244
N  N16  1  0.25308000  0.19865000  0.11681000  1.0 -0.3870129244
N  N17  1  0.30135000  0.88319000  0.75308000  1.0 -0.384666099
N  N18  1  0.75308000  0.30135000  0.88319000  1.0 -0.3870129244
N  N19  1  0.69865000  0.38319000  0.74692000  1.0 -0.3870129244
N  N20  1  0.19865000  0.11681000  0.25308000  1.0 -0.3870129244
N  N21  1  0.74692000  0.69865000  0.38319000  1.0 -0.3870129244
N  N22  1  0.88319000  0.75308000  0.30135000  1.0 -0.3870129244
N  N23  1  0.11681000  0.25308000  0.19865000  1.0 -0.3870129244
N  N24  1  0.38319000  0.74692000  0.69865000  1.0 -0.3870129244
N  N25  1  0.31459000  0.72673000  0.15571000  1.0 -0.5590224404
N  N26  1  0.15571000  0.31459000  0.72673000  1.0 -0.5590224404
N  N27  1  0.72673000  0.15571000  0.31459000  1.0 -0.5590224404
N  N28  1  0.77327000  0.84429000  0.81459000  1.0 -0.5590224404
N  N29  1  0.65571000  0.18541000  0.27327000  1.0 -0.5590224404
N  N30  1  0.27327000  0.65571000  0.18541000  1.0 -0.5590224404
N  N31  1  0.34429000  0.68541000  0.22673000  1.0 -0.5590224404
N  N32  1  0.84429000  0.81459000  0.77327000  1.0 -0.5590224404
N  N33  1  0.22673000  0.34429000  0.68541000  1.0 -0.5590224404
N  N34  1  0.18541000  0.27327000  0.65571000  1.0 -0.5590224404
N  N35  1  0.81459000  0.77327000  0.84429000  1.0 -0.5590224404
N  N36  1  0.68541000  0.22673000  0.34429000  1.0 -0.5590224404
N  N37  1  0.68541000  0.27327000  0.84429000  1.0 -0.5590224404
N  N38  1  0.84429000  0.68541000  0.27327000  1.0 -0.5590224404
N  N39  1  0.27327000  0.84429000  0.68541000  1.0 -0.5590224404
N  N40  1  0.22673000  0.15571000  0.18541000  1.0 -0.5590224404
N  N41  1  0.34429000  0.81459000  0.72673000  1.0 -0.5590224404
N  N42  1  0.72673000  0.34429000  0.81459000  1.0 -0.5590224404
N  N43  1  0.65571000  0.31459000  0.77327000  1.0 -0.5590224404
N  N44  1  0.15571000  0.18541000  0.22673000  1.0 -0.5590224404
N  N45  1  0.77327000  0.65571000  0.31459000  1.0 -0.5590224404
N  N46  1  0.81459000  0.72673000  0.34429000  1.0 -0.5590224404
N  N47  1  0.18541000  0.22673000  0.15571000  1.0 -0.5590224404
N  N48  1  0.31459000  0.77327000  0.65571000  1.0 -0.5590224404
O  O1  1  0.50000000  0.00000000  0.00000000  1.0 -0.6888945539
O  O2  1  0.00000000  0.50000000  0.00000000  1.0 -0.6888945539
O  O3  1  0.00000000  0.00000000  0.50000000  1.0 -0.6888945539
O  O4  1  0.50000000  0.50000000  0.50000000  1.0 -0.6888945539
O  O5  1  0.46140000  0.95010000  0.10436000  0.431 -0.2908520253
O  O6  1  0.10436000  0.46140000  0.95010000  0.431 -0.2908520253
O  O7  1  0.95010000  0.10436000  0.46140000  0.431 -0.2908520253
O  O8  1  0.54990000  0.89564000  0.96140000  0.431 -0.2908520253
O  O9  1  0.60436000  0.03860000  0.04990000  0.431 -0.2908520253
O  O10  1  0.04990000  0.60436000  0.03860000  0.431 -0.2908520253
O  O11  1  0.39564000  0.53860000  0.45010000  0.431 -0.2908520253
O  O12  1  0.89564000  0.96140000  0.54990000  0.431 -0.2908520253
O  O13  1  0.45010000  0.39564000  0.53860000  0.431 -0.2908520253
O  O14  1  0.03860000  0.04990000  0.60436000  0.431 -0.2908520253
O  O15  1  0.96140000  0.54990000  0.89564000  0.431 -0.2908520253
O  O16  1  0.53860000  0.45010000  0.39564000  0.431 -0.2908520253
O  O17  1  0.53860000  0.04990000  0.89564000  0.431 -0.2908520253
O  O18  1  0.89564000  0.53860000  0.04990000  0.431 -0.2908520253
O  O19  1  0.04990000  0.89564000  0.53860000  0.431 -0.2908520253
O  O20  1  0.45010000  0.10436000  0.03860000  0.431 -0.2908520253
O  O21  1  0.39564000  0.96140000  0.95010000  0.431 -0.2908520253
O  O22  1  0.95010000  0.39564000  0.96140000  0.431 -0.2908520253
O  O23  1  0.60436000  0.46140000  0.54990000  0.431 -0.2908520253
O  O24  1  0.10436000  0.03860000  0.45010000  0.431 -0.2908520253
O  O25  1  0.54990000  0.60436000  0.46140000  0.431 -0.2908520253
O  O26  1  0.96140000  0.95010000  0.39564000  0.431 -0.2908520253
O  O27  1  0.03860000  0.45010000  0.10436000  0.431 -0.2908520253
O  O28  1  0.46140000  0.54990000  0.60436000  0.431 -0.2908520253
O  O29  1  0.45940000  0.89460000  0.03450000  0.431 -0.2633334062
O  O30  1  0.03450000  0.45940000  0.89460000  0.431 -0.2633334062
O  O31  1  0.89460000  0.03450000  0.45940000  0.431 -0.2633334062
O  O32  1  0.60540000  0.96550000  0.95940000  0.431 -0.2633334062
O  O33  1  0.53450000  0.04060000  0.10540000  0.431 -0.2653065462
O  O34  1  0.10540000  0.53450000  0.04060000  0.431 -0.2653065462
O  O35  1  0.46550000  0.54060000  0.39460000  0.431 -0.2633334062
O  O36  1  0.96550000  0.95940000  0.60540000  0.431 -0.2633334062
O  O37  1  0.39460000  0.46550000  0.54060000  0.431 -0.2633334062
O  O38  1  0.04060000  0.10540000  0.53450000  0.431 -0.2653065462
O  O39  1  0.95940000  0.60540000  0.96550000  0.431 -0.2633334062
O  O40  1  0.54060000  0.39460000  0.46550000  0.431 -0.2633334062
O  O41  1  0.54060000  0.10540000  0.96550000  0.431 -0.2633334062
O  O42  1  0.96550000  0.54060000  0.10540000  0.431 -0.2653065462
O  O43  1  0.10540000  0.96550000  0.54060000  0.431 -0.2633334062
O  O44  1  0.39460000  0.03450000  0.04060000  0.431 -0.2633334062
O  O45  1  0.46550000  0.95940000  0.89460000  0.431 -0.2633334062
O  O46  1  0.89460000  0.46550000  0.95940000  0.431 -0.2633334062
O  O47  1  0.53450000  0.45940000  0.60540000  0.431 -0.2633334062
O  O48  1  0.03450000  0.04060000  0.39460000  0.431 -0.2633334062
O  O49  1  0.60540000  0.53450000  0.45940000  0.431 -0.2633334062
O  O50  1  0.95940000  0.89460000  0.46550000  0.431 -0.2633334062
O  O51  1  0.04060000  0.39460000  0.03450000  0.431 -0.2633334062
O  O52  1  0.45940000  0.60540000  0.53450000  0.431 -0.2633334062
O  O53  1  0.49847000  0.91773000  0.07993000  0.569 -0.2536528953
O  O54  1  0.07993000  0.49847000  0.91773000  0.569 -0.2536528953
O  O55  1  0.91773000  0.07993000  0.49847000  0.569 -0.2536528953
O  O56  1  0.58227000  0.92007000  0.99847000  0.569 -0.2536528953
O  O57  1  0.57993000  0.00153000  0.08227000  0.569 -0.2633334062
O  O58  1  0.08227000  0.57993000  0.00153000  0.569 -0.2536528953
O  O59  1  0.42007000  0.50153000  0.41773000  0.569 -0.2536528953
O  O60  1  0.92007000  0.99847000  0.58227000  0.569 -0.2536528953
O  O61  1  0.41773000  0.42007000  0.50153000  0.569 -0.2536528953
O  O62  1  0.00153000  0.08227000  0.57993000  0.569 -0.2536528953
O  O63  1  0.99847000  0.58227000  0.92007000  0.569 -0.2633334062
O  O64  1  0.50153000  0.41773000  0.42007000  0.569 -0.2536528953
O  O65  1  0.50153000  0.08227000  0.92007000  0.569 -0.2536528953
O  O66  1  0.92007000  0.50153000  0.08227000  0.569 -0.2536528953
O  O67  1  0.08227000  0.92007000  0.50153000  0.569 -0.2536528953
O  O68  1  0.41773000  0.07993000  0.00153000  0.569 -0.2536528953
O  O69  1  0.42007000  0.99847000  0.91773000  0.569 -0.2536528953
O  O70  1  0.91773000  0.42007000  0.99847000  0.569 -0.2536528953
O  O71  1  0.57993000  0.49847000  0.58227000  0.569 -0.2536528953
O  O72  1  0.07993000  0.00153000  0.41773000  0.569 -0.2536528953
O  O73  1  0.58227000  0.57993000  0.49847000  0.569 -0.2536528953
O  O74  1  0.99847000  0.91773000  0.42007000  0.569 -0.2536528953
O  O75  1  0.00153000  0.41773000  0.07993000  0.569 -0.2536528953
O  O76  1  0.49847000  0.58227000  0.57993000  0.569 -0.2536528953
O  O77  1  0.42465000  0.93034000  0.05225000  0.569 -0.2430802803
O  O78  1  0.05225000  0.42465000  0.93034000  0.569 -0.2430802803
O  O79  1  0.93034000  0.05225000  0.42465000  0.569 -0.2430802803
O  O80  1  0.56966000  0.94775000  0.92465000  0.569 -0.2430802803
O  O81  1  0.55225000  0.07535000  0.06966000  0.569 -0.2430802803
O  O82  1  0.06966000  0.55225000  0.07535000  0.569 -0.2430802803
O  O83  1  0.44775000  0.57535000  0.43034000  0.569 -0.2430802803
O  O84  1  0.94775000  0.92465000  0.56966000  0.569 -0.2430802803
O  O85  1  0.43034000  0.44775000  0.57535000  0.569 -0.2430802803
O  O86  1  0.07535000  0.06966000  0.55225000  0.569 -0.2430802803
O  O87  1  0.92465000  0.56966000  0.94775000  0.569 -0.2430802803
O  O88  1  0.57535000  0.43034000  0.44775000  0.569 -0.2430802803
O  O89  1  0.57535000  0.06966000  0.94775000  0.569 -0.2430802803
O  O90  1  0.94775000  0.57535000  0.06966000  0.569 -0.2430802803
O  O91  1  0.06966000  0.94775000  0.57535000  0.569 -0.2430802803
O  O92  1  0.43034000  0.05225000  0.07535000  0.569 -0.2430802803
O  O93  1  0.44775000  0.92465000  0.93034000  0.569 -0.2430802803
O  O94  1  0.93034000  0.44775000  0.92465000  0.569 -0.2430802803
O  O95  1  0.55225000  0.42465000  0.56966000  0.569 -0.2430802803
O  O96  1  0.05225000  0.07535000  0.43034000  0.569 -0.2430802803
O  O97  1  0.56966000  0.55225000  0.42465000  0.569 -0.2430802803
O  O98  1  0.92465000  0.93034000  0.44775000  0.569 -0.2430802803
O  O99  1  0.07535000  0.43034000  0.05225000  0.569 -0.2430802803
O  O100  1  0.42465000  0.56966000  0.55225000  0.569 -0.2430802803
