# DDEC6 charges by PACMAN v1.1 (https://github.com/mtap-research/PACMAN-charge/)
data_2021[Zn][srs]3[FSR]1
_chemical_formula_sum              "Zn4 H48 C48 N8 O20"
_cell_length_a       11.203
_cell_length_b       11.394
_cell_length_c       14.313
_cell_angle_alpha    90
_cell_angle_beta     90
_cell_angle_gamma    90

_symmetry_space_group_name_H-M    "P 1"
_symmetry_Int_Tables_number       1

loop_
  _symmetry_equiv_pos_as_xyz
  'x, y, z'

loop_
  _atom_site_type_symbol
  _atom_site_label
  _atom_site_symmetry_multiplicity
  _atom_site_fract_x
  _atom_site_fract_y
  _atom_site_fract_z
  _atom_site_occupancy
  _atom_site_charge
Zn  Zn1       1.0  0.16496  0.81013  0.33888  1.0000 0.8355717619
Zn  Zn2       1.0  0.33504  0.18987  0.83888  1.0000 0.8355717619
Zn  Zn3       1.0  0.66496  0.68987  0.66112  1.0000 0.8355717619
Zn  Zn4       1.0  0.83504  0.31013  0.16112  1.0000 0.8355717619
H   H1        1.0  0.53476  0.46830  0.70208  1.0000 0.1241159548
H   H2        1.0  0.96524  0.53170  0.20208  1.0000 0.1241159548
H   H3        1.0  0.03476  0.03170  0.29792  1.0000 0.1241159548
H   H4        1.0  0.46524  0.96830  0.79792  1.0000 0.1241159548
H   H5        1.0  0.46226  0.88572  0.34376  1.0000 0.1411748386
H   H6        1.0  0.03774  0.11428  0.84376  1.0000 0.1411748386
H   H7        1.0  0.96226  0.61428  0.65624  1.0000 0.1411748386
H   H8        1.0  0.53774  0.38572  0.15624  1.0000 0.1411748386
H   H9        1.0  0.43736  0.81446  0.24839  1.0000 0.1411748386
H   H10       1.0  0.06264  0.18554  0.74839  1.0000 0.1411748386
H   H11       1.0  0.93736  0.68554  0.75161  1.0000 0.1411748386
H   H12       1.0  0.56264  0.31446  0.25161  1.0000 0.1411748386
H   H13       1.0  0.21195  0.47645  0.57891  1.0000 0.1290625741
H   H14       1.0  0.28805  0.52355  0.07891  1.0000 0.1290625741
H   H15       1.0  0.71195  0.02355  0.42109  1.0000 0.1290625741
H   H16       1.0  0.78805  0.97645  0.92109  1.0000 0.1290625741
H   H17       1.0  0.45845  0.72590  0.52779  1.0000 0.1290625741
H   H18       1.0  0.04155  0.27410  0.02779  1.0000 0.1290625741
H   H19       1.0  0.95845  0.77410  0.47221  1.0000 0.1290625741
H   H20       1.0  0.54155  0.22590  0.97221  1.0000 0.1290625741
H   H21       1.0  0.61255  0.97381  0.27526  1.0000 0.104081107
H   H22       1.0  0.88745  0.02619  0.77526  1.0000 0.104081107
H   H23       1.0  0.11255  0.52619  0.72474  1.0000 0.104081107
H   H24       1.0  0.38745  0.47381  0.22474  1.0000 0.104081107
H   H25       1.0  0.58232  0.90903  0.17849  1.0000 0.1094204005
H   H26       1.0  0.91768  0.09097  0.67849  1.0000 0.1094204005
H   H27       1.0  0.08232  0.59097  0.82151  1.0000 0.1094204005
H   H28       1.0  0.41768  0.40903  0.32151  1.0000 0.1094204005
H   H29       1.0  0.53773  0.13558  0.22433  1.0000 0.1094204005
H   H30       1.0  0.96227  0.86442  0.72433  1.0000 0.1094204005
H   H31       1.0  0.03773  0.36442  0.77567  1.0000 0.1094204005
H   H32       1.0  0.46227  0.63558  0.27567  1.0000 0.1094204005
H   H33       1.0  0.51973  0.07386  0.12403  1.0000 0.1094204005
H   H34       1.0  0.98027  0.92614  0.62403  1.0000 0.1094204005
H   H35       1.0  0.01973  0.42614  0.87597  1.0000 0.1094204005
H   H36       1.0  0.48027  0.57386  0.37597  1.0000 0.1094204005
H   H37       1.0  0.33568  0.23037  0.19903  1.0000 0.1411748386
H   H38       1.0  0.16432  0.76963  0.69903  1.0000 0.1411748386
H   H39       1.0  0.83568  0.26963  0.80097  1.0000 0.1411748386
H   H40       1.0  0.66432  0.73037  0.30097  1.0000 0.1411748386
H   H41       1.0  0.22321  0.14949  0.22367  1.0000 0.150747053
H   H42       1.0  0.27679  0.85051  0.72367  1.0000 0.150747053
H   H43       1.0  0.72321  0.35051  0.77633  1.0000 0.150747053
H   H44       1.0  0.77679  0.64949  0.27633  1.0000 0.150747053
H   H45       1.0  0.27483  0.15193  0.11944  1.0000 0.1411748386
H   H46       1.0  0.22517  0.84807  0.61944  1.0000 0.1411748386
H   H47       1.0  0.77483  0.34807  0.88056  1.0000 0.1411748386
H   H48       1.0  0.72517  0.65193  0.38056  1.0000 0.1411748386
C   C1        1.0  0.47960  0.50600  0.66150  1.0000 0.0667001788
C   C2        1.0  0.02040  0.49400  0.16150  1.0000 0.0667001788
C   C3        1.0  0.97960  0.99400  0.33850  1.0000 0.0667001788
C   C4        1.0  0.52040  0.00600  0.83850  1.0000 0.0667001788
C   C5        1.0  0.32200  0.61260  0.54360  1.0000 -0.0608301017
C   C6        1.0  0.17800  0.38740  0.04360  1.0000 -0.0608301017
C   C7        1.0  0.82200  0.88740  0.45640  1.0000 -0.0608301017
C   C8        1.0  0.67800  0.11260  0.95640  1.0000 -0.0608301017
C   C9        1.0  0.33240  0.34890  0.70300  1.0000 0.5544538756
C   C10       1.0  0.16760  0.65110  0.20300  1.0000 0.5544538756
C   C11       1.0  0.83240  0.15110  0.29700  1.0000 0.5544538756
C   C12       1.0  0.66760  0.84890  0.79700  1.0000 0.5544538756
C   C13       1.0  0.36680  0.45630  0.64900  1.0000 -0.0509105439
C   C14       1.0  0.13320  0.54370  0.14900  1.0000 -0.0509105439
C   C15       1.0  0.86680  0.04370  0.35100  1.0000 -0.0509105439
C   C16       1.0  0.63320  0.95630  0.85100  1.0000 -0.0509105439
C   C17       1.0  0.44820  0.89350  0.27580  1.0000 -0.3355999927
C   C18       1.0  0.05180  0.10650  0.77580  1.0000 -0.3355999927
C   C19       1.0  0.94820  0.60650  0.72420  1.0000 -0.3355999927
C   C20       1.0  0.55180  0.39350  0.22420  1.0000 -0.3355999927
C   C21       1.0  0.28870  0.50950  0.58930  1.0000 -0.0665957223
C   C22       1.0  0.21130  0.49050  0.08930  1.0000 -0.0665957223
C   C23       1.0  0.78870  0.99050  0.41070  1.0000 -0.0665957223
C   C24       1.0  0.71130  0.00950  0.91070  1.0000 -0.0665957223
C   C25       1.0  0.23610  0.67340  0.48040  1.0000 0.5415462513
C   C26       1.0  0.26390  0.32660  0.98040  1.0000 0.5415462513
C   C27       1.0  0.73610  0.82660  0.51960  1.0000 0.5415462513
C   C28       1.0  0.76390  0.17340  0.01960  1.0000 0.5415462513
C   C29       1.0  0.34260  0.96980  0.25650  1.0000 0.4785843749
C   C30       1.0  0.15740  0.03020  0.75650  1.0000 0.4785843749
C   C31       1.0  0.84260  0.53020  0.74350  1.0000 0.4785843749
C   C32       1.0  0.65740  0.46980  0.24350  1.0000 0.4785843749
C   C33       1.0  0.43490  0.65650  0.55960  1.0000 0.0618961488
C   C34       1.0  0.06510  0.34350  0.05960  1.0000 0.0618961488
C   C35       1.0  0.93490  0.84350  0.44040  1.0000 0.0618961488
C   C36       1.0  0.56510  0.15650  0.94040  1.0000 0.0618961488
C   C37       1.0  0.54850  0.95750  0.22940  1.0000 -0.1547835211
C   C38       1.0  0.95150  0.04250  0.72940  1.0000 -0.1547835211
C   C39       1.0  0.04850  0.54250  0.77060  1.0000 -0.1547835211
C   C40       1.0  0.45150  0.45750  0.27060  1.0000 -0.1547835211
C   C41       1.0  0.50230  0.06740  0.19160  1.0000 -0.1161998774
C   C42       1.0  0.99770  0.93260  0.69160  1.0000 -0.1161998774
C   C43       1.0  0.00230  0.43260  0.80840  1.0000 -0.1161998774
C   C44       1.0  0.49770  0.56740  0.30840  1.0000 -0.1161998774
C   C45       1.0  0.29590  0.15560  0.18580  1.0000 -0.3294822018
C   C46       1.0  0.20410  0.84440  0.68580  1.0000 -0.3294822018
C   C47       1.0  0.79590  0.34440  0.81420  1.0000 -0.3294822018
C   C48       1.0  0.70410  0.65560  0.31420  1.0000 -0.3294822018
N   N1        1.0  0.51300  0.60570  0.61800  1.0000 -0.2286312322
N   N2        1.0  0.98700  0.39430  0.11800  1.0000 -0.2286312322
N   N3        1.0  0.01300  0.89430  0.38200  1.0000 -0.2286312322
N   N4        1.0  0.48700  0.10570  0.88200  1.0000 -0.2286312322
N   N5        1.0  0.37420  0.06100  0.20820  1.0000 -0.0287821612
N   N6        1.0  0.12580  0.93900  0.70820  1.0000 -0.0287821612
N   N7        1.0  0.87420  0.43900  0.79180  1.0000 -0.0287821612
N   N8        1.0  0.62580  0.56100  0.29180  1.0000 -0.0287821612
O   O1        1.0  0.28220  0.75320  0.42840  1.0000 -0.5506061058
O   O2        1.0  0.21780  0.24680  0.92840  1.0000 -0.5506061058
O   O3        1.0  0.78220  0.74680  0.57160  1.0000 -0.5506061058
O   O4        1.0  0.71780  0.25320  0.07160  1.0000 -0.5506061058
O   O5        1.0  0.41040  0.30800  0.75940  1.0000 -0.5506061058
O   O6        1.0  0.08960  0.69200  0.25940  1.0000 -0.5506061058
O   O7        1.0  0.91040  0.19200  0.24060  1.0000 -0.5506061058
O   O8        1.0  0.58960  0.80800  0.74060  1.0000 -0.5506061058
O   O9        1.0  0.23170  0.30820  0.69350  1.0000 -0.5333025794
O   O10       1.0  0.26830  0.69180  0.19350  1.0000 -0.5333025794
O   O11       1.0  0.73170  0.19180  0.30650  1.0000 -0.5333025794
O   O12       1.0  0.76830  0.80820  0.80650  1.0000 -0.5333025794
O   O13       1.0  0.13070  0.64770  0.48210  1.0000 -0.5185179453
O   O14       1.0  0.36930  0.35230  0.98210  1.0000 -0.5185179453
O   O15       1.0  0.63070  0.85230  0.51790  1.0000 -0.5185179453
O   O16       1.0  0.86930  0.14770  0.01790  1.0000 -0.5185179453
O   O17       1.0  0.23660  0.95120  0.28150  1.0000 -0.5439343195
O   O18       1.0  0.26340  0.04880  0.78150  1.0000 -0.5439343195
O   O19       1.0  0.73660  0.54880  0.71850  1.0000 -0.5439343195
O   O20       1.0  0.76340  0.45120  0.21850  1.0000 -0.5439343195
