# DDEC6 charges by PACMAN v1.1 (https://github.com/mtap-research/PACMAN-charge/)
data_2017[Al][skl]3[ASR]4
_chemical_formula_sum              "Al16 H168 C272 O80"
_cell_length_a       19.2263
_cell_length_b       19.2263
_cell_length_c       36.708
_cell_angle_alpha    90
_cell_angle_beta     90
_cell_angle_gamma    90

_symmetry_space_group_name_H-M    "P 1"
_symmetry_Int_Tables_number       1

loop_
  _symmetry_equiv_pos_as_xyz
  'x, y, z'

loop_
  _atom_site_type_symbol
  _atom_site_label
  _atom_site_symmetry_multiplicity
  _atom_site_fract_x
  _atom_site_fract_y
  _atom_site_fract_z
  _atom_site_occupancy
  _atom_site_charge
Al  Al1       1.0  0.66107  0.33893  0.50000  1.0000 1.6488226187
Al  Al2       1.0  0.16107  0.16107  0.00000  1.0000 1.6488226187
Al  Al3       1.0  0.33893  0.66107  0.50000  1.0000 1.6488226187
Al  Al4       1.0  0.83893  0.83893  0.00000  1.0000 1.6488226187
Al  Al5       1.0  0.62469  0.40039  0.41709  1.0000 1.6335673464
Al  Al6       1.0  0.09961  0.12469  0.91709  1.0000 1.6335673464
Al  Al7       1.0  0.37531  0.59961  0.41709  1.0000 1.6335673464
Al  Al8       1.0  0.90039  0.87531  0.91709  1.0000 1.6335673464
Al  Al9       1.0  0.12469  0.09961  0.08291  1.0000 1.6335673464
Al  Al10      1.0  0.87531  0.90039  0.08291  1.0000 1.6335673464
Al  Al11      1.0  0.40039  0.62469  0.58291  1.0000 1.6335673464
Al  Al12      1.0  0.59961  0.37531  0.58291  1.0000 1.6335673464
Al  Al13      1.0  0.50000  0.50000  0.38246  1.0000 1.6432653201
Al  Al14      1.0  0.00000  0.00000  0.88246  1.0000 1.6432653201
Al  Al15      1.0  0.00000  0.00000  0.11754  1.0000 1.6432653201
Al  Al16      1.0  0.50000  0.50000  0.61754  1.0000 1.6432653201
H   H1        1.0  0.56970  0.50650  0.43720  1.0000 0.4188447093
H   H2        1.0  0.99350  0.06970  0.93720  1.0000 0.4188447093
H   H3        1.0  0.43030  0.49350  0.43720  1.0000 0.4188447093
H   H4        1.0  0.00650  0.93030  0.93720  1.0000 0.4188447093
H   H5        1.0  0.06970  0.99350  0.06280  1.0000 0.4188447093
H   H6        1.0  0.93030  0.00650  0.06280  1.0000 0.4188447093
H   H7        1.0  0.50650  0.56970  0.56280  1.0000 0.4188447093
H   H8        1.0  0.49350  0.43030  0.56280  1.0000 0.4188447093
H   H9        1.0  0.55540  0.37820  0.47100  1.0000 0.4188447093
H   H10       1.0  0.12180  0.05540  0.97100  1.0000 0.4188447093
H   H11       1.0  0.44460  0.62180  0.47100  1.0000 0.4188447093
H   H12       1.0  0.87820  0.94460  0.97100  1.0000 0.4188447093
H   H13       1.0  0.05540  0.12180  0.02900  1.0000 0.4188447093
H   H14       1.0  0.94460  0.87820  0.02900  1.0000 0.4188447093
H   H15       1.0  0.37820  0.55540  0.52900  1.0000 0.4188447093
H   H16       1.0  0.62180  0.44460  0.52900  1.0000 0.4188447093
H   H17       1.0  0.80530  0.64320  0.17000  1.0000 0.1116560767
H   H18       1.0  0.85680  0.30530  0.67000  1.0000 0.1116560767
H   H19       1.0  0.19470  0.35680  0.17000  1.0000 0.1116560767
H   H20       1.0  0.14320  0.69470  0.67000  1.0000 0.1116560767
H   H21       1.0  0.30530  0.85680  0.33000  1.0000 0.1116560767
H   H22       1.0  0.69470  0.14320  0.33000  1.0000 0.1116560767
H   H23       1.0  0.64320  0.80530  0.83000  1.0000 0.1116560767
H   H24       1.0  0.35680  0.19470  0.83000  1.0000 0.1116560767
H   H25       1.0  0.80450  0.63780  0.04450  1.0000 0.1214309168
H   H26       1.0  0.86220  0.30450  0.54450  1.0000 0.1214309168
H   H27       1.0  0.19550  0.36220  0.04450  1.0000 0.1214309168
H   H28       1.0  0.13780  0.69550  0.54450  1.0000 0.1214309168
H   H29       1.0  0.30450  0.86220  0.45550  1.0000 0.1214309168
H   H30       1.0  0.69550  0.13780  0.45550  1.0000 0.1214309168
H   H31       1.0  0.63780  0.80450  0.95550  1.0000 0.1214309168
H   H32       1.0  0.36220  0.19550  0.95550  1.0000 0.1214309168
H   H33       1.0  0.81300  0.74390  0.13800  1.0000 0.1296471588
H   H34       1.0  0.75610  0.31300  0.63800  1.0000 0.1296471588
H   H35       1.0  0.18700  0.25610  0.13800  1.0000 0.1296471588
H   H36       1.0  0.24390  0.68700  0.63800  1.0000 0.1296471588
H   H37       1.0  0.31300  0.75610  0.36200  1.0000 0.1296471588
H   H38       1.0  0.68700  0.24390  0.36200  1.0000 0.1296471588
H   H39       1.0  0.74390  0.81300  0.86200  1.0000 0.1296471588
H   H40       1.0  0.25610  0.18700  0.86200  1.0000 0.1296471588
H   H41       1.0  0.79300  0.53350  0.07760  1.0000 0.1116560767
H   H42       1.0  0.96650  0.29300  0.57760  1.0000 0.1116560767
H   H43       1.0  0.20700  0.46650  0.07760  1.0000 0.1116560767
H   H44       1.0  0.03350  0.70700  0.57760  1.0000 0.1116560767
H   H45       1.0  0.29300  0.96650  0.42240  1.0000 0.1116560767
H   H46       1.0  0.70700  0.03350  0.42240  1.0000 0.1116560767
H   H47       1.0  0.53350  0.79300  0.92240  1.0000 0.1116560767
H   H48       1.0  0.46650  0.20700  0.92240  1.0000 0.1116560767
H   H49       1.0  0.58920  0.51070  0.27990  1.0000 0.1296471588
H   H50       1.0  0.98930  0.08920  0.77990  1.0000 0.1296471588
H   H51       1.0  0.41080  0.48930  0.27990  1.0000 0.1296471588
H   H52       1.0  0.01070  0.91080  0.77990  1.0000 0.1296471588
H   H53       1.0  0.08920  0.98930  0.22010  1.0000 0.1296471588
H   H54       1.0  0.91080  0.01070  0.22010  1.0000 0.1296471588
H   H55       1.0  0.51070  0.58920  0.72010  1.0000 0.1296471588
H   H56       1.0  0.48930  0.41080  0.72010  1.0000 0.1296471588
H   H57       1.0  0.87090  0.16270  0.14840  1.0000 0.1296471588
H   H58       1.0  0.33730  0.37090  0.64840  1.0000 0.1296471588
H   H59       1.0  0.12910  0.83730  0.14840  1.0000 0.1296471588
H   H60       1.0  0.66270  0.62910  0.64840  1.0000 0.1296471588
H   H61       1.0  0.37090  0.33730  0.35160  1.0000 0.1296471588
H   H62       1.0  0.62910  0.66270  0.35160  1.0000 0.1296471588
H   H63       1.0  0.16270  0.87090  0.85160  1.0000 0.1296471588
H   H64       1.0  0.83730  0.12910  0.85160  1.0000 0.1296471588
H   H65       1.0  0.02050  0.28540  0.10810  1.0000 0.1296471588
H   H66       1.0  0.21460  0.52050  0.60810  1.0000 0.1296471588
H   H67       1.0  0.97950  0.71460  0.10810  1.0000 0.1296471588
H   H68       1.0  0.78540  0.47950  0.60810  1.0000 0.1296471588
H   H69       1.0  0.52050  0.21460  0.39190  1.0000 0.1296471588
H   H70       1.0  0.47950  0.78540  0.39190  1.0000 0.1296471588
H   H71       1.0  0.28540  0.02050  0.89190  1.0000 0.1296471588
H   H72       1.0  0.71460  0.97950  0.89190  1.0000 0.1296471588
H   H73       1.0  0.73860  0.38980  0.32250  1.0000 0.1296471588
H   H74       1.0  0.11020  0.23860  0.82250  1.0000 0.1296471588
H   H75       1.0  0.26140  0.61020  0.32250  1.0000 0.1296471588
H   H76       1.0  0.88980  0.76140  0.82250  1.0000 0.1296471588
H   H77       1.0  0.23860  0.11020  0.17750  1.0000 0.1296471588
H   H78       1.0  0.76140  0.88980  0.17750  1.0000 0.1296471588
H   H79       1.0  0.38980  0.73860  0.67750  1.0000 0.1296471588
H   H80       1.0  0.61020  0.26140  0.67750  1.0000 0.1296471588
H   H81       1.0  0.79920  0.39060  0.26740  1.0000 0.1116560767
H   H82       1.0  0.10940  0.29920  0.76740  1.0000 0.1116560767
H   H83       1.0  0.20080  0.60940  0.26740  1.0000 0.1116560767
H   H84       1.0  0.89060  0.70080  0.76740  1.0000 0.1116560767
H   H85       1.0  0.29920  0.10940  0.23260  1.0000 0.1116560767
H   H86       1.0  0.70080  0.89060  0.23260  1.0000 0.1116560767
H   H87       1.0  0.39060  0.79920  0.73260  1.0000 0.1116560767
H   H88       1.0  0.60940  0.20080  0.73260  1.0000 0.1116560767
H   H89       1.0  0.64710  0.51010  0.22490  1.0000 0.1116560767
H   H90       1.0  0.98990  0.14710  0.72490  1.0000 0.1116560767
H   H91       1.0  0.35290  0.48990  0.22490  1.0000 0.1116560767
H   H92       1.0  0.01010  0.85290  0.72490  1.0000 0.1116560767
H   H93       1.0  0.14710  0.98990  0.27510  1.0000 0.1116560767
H   H94       1.0  0.85290  0.01010  0.27510  1.0000 0.1116560767
H   H95       1.0  0.51010  0.64710  0.77510  1.0000 0.1116560767
H   H96       1.0  0.48990  0.35290  0.77510  1.0000 0.1116560767
H   H97       1.0  0.73970  0.55020  0.19050  1.0000 0.1116560767
H   H98       1.0  0.94980  0.23970  0.69050  1.0000 0.1116560767
H   H99       1.0  0.26030  0.44980  0.19050  1.0000 0.1116560767
H   H100      1.0  0.05020  0.76030  0.69050  1.0000 0.1116560767
H   H101      1.0  0.23970  0.94980  0.30950  1.0000 0.1116560767
H   H102      1.0  0.76030  0.05020  0.30950  1.0000 0.1116560767
H   H103      1.0  0.55020  0.73970  0.80950  1.0000 0.1116560767
H   H104      1.0  0.44980  0.26030  0.80950  1.0000 0.1116560767
H   H105      1.0  0.95740  0.38110  0.12490  1.0000 0.1116560767
H   H106      1.0  0.11890  0.45740  0.62490  1.0000 0.1116560767
H   H107      1.0  0.04260  0.61890  0.12490  1.0000 0.1116560767
H   H108      1.0  0.88110  0.54260  0.62490  1.0000 0.1116560767
H   H109      1.0  0.45740  0.11890  0.37510  1.0000 0.1116560767
H   H110      1.0  0.54260  0.88110  0.37510  1.0000 0.1116560767
H   H111      1.0  0.38110  0.95740  0.87510  1.0000 0.1116560767
H   H112      1.0  0.61890  0.04260  0.87510  1.0000 0.1116560767
H   H113      1.0  0.81090  0.26290  0.16350  1.0000 0.1214309168
H   H114      1.0  0.23710  0.31090  0.66350  1.0000 0.1214309168
H   H115      1.0  0.18910  0.73710  0.16350  1.0000 0.1214309168
H   H116      1.0  0.76290  0.68910  0.66350  1.0000 0.1214309168
H   H117      1.0  0.31090  0.23710  0.33650  1.0000 0.1214309168
H   H118      1.0  0.68910  0.76290  0.33650  1.0000 0.1214309168
H   H119      1.0  0.26290  0.81090  0.83650  1.0000 0.1214309168
H   H120      1.0  0.73710  0.18910  0.83650  1.0000 0.1214309168
H   H121      1.0  0.85970  0.45450  0.11590  1.0000 0.1116560767
H   H122      1.0  0.04550  0.35970  0.61590  1.0000 0.1116560767
H   H123      1.0  0.14030  0.54550  0.11590  1.0000 0.1116560767
H   H124      1.0  0.95450  0.64030  0.61590  1.0000 0.1116560767
H   H125      1.0  0.35970  0.04550  0.38410  1.0000 0.1116560767
H   H126      1.0  0.64030  0.95450  0.38410  1.0000 0.1116560767
H   H127      1.0  0.45450  0.85970  0.88410  1.0000 0.1116560767
H   H128      1.0  0.54550  0.14030  0.88410  1.0000 0.1116560767
H   H129      1.0  0.80290  0.35450  0.20670  1.0000 0.1116560767
H   H130      1.0  0.14550  0.30290  0.70670  1.0000 0.1116560767
H   H131      1.0  0.19710  0.64550  0.20670  1.0000 0.1116560767
H   H132      1.0  0.85450  0.69710  0.70670  1.0000 0.1116560767
H   H133      1.0  0.30290  0.14550  0.29330  1.0000 0.1116560767
H   H134      1.0  0.69710  0.85450  0.29330  1.0000 0.1116560767
H   H135      1.0  0.35450  0.80290  0.79330  1.0000 0.1116560767
H   H136      1.0  0.64550  0.19710  0.79330  1.0000 0.1116560767
H   H137      1.0  0.82010  0.50050  0.40480  1.0000 0.1296471588
H   H138      1.0  0.99950  0.32010  0.90480  1.0000 0.1296471588
H   H139      1.0  0.17990  0.49950  0.40480  1.0000 0.1296471588
H   H140      1.0  0.00050  0.67990  0.90480  1.0000 0.1296471588
H   H141      1.0  0.32010  0.99950  0.09520  1.0000 0.1296471588
H   H142      1.0  0.67990  0.00050  0.09520  1.0000 0.1296471588
H   H143      1.0  0.50050  0.82010  0.59520  1.0000 0.1296471588
H   H144      1.0  0.49950  0.17990  0.59520  1.0000 0.1296471588
H   H145      1.0  0.93910  0.52650  0.40250  1.0000 0.1116560767
H   H146      1.0  0.97350  0.43910  0.90250  1.0000 0.1116560767
H   H147      1.0  0.06090  0.47350  0.40250  1.0000 0.1116560767
H   H148      1.0  0.02650  0.56090  0.90250  1.0000 0.1116560767
H   H149      1.0  0.43910  0.97350  0.09750  1.0000 0.1116560767
H   H150      1.0  0.56090  0.02650  0.09750  1.0000 0.1116560767
H   H151      1.0  0.52650  0.93910  0.59750  1.0000 0.1116560767
H   H152      1.0  0.47350  0.06090  0.59750  1.0000 0.1116560767
H   H153      1.0  0.84620  0.42560  0.50550  1.0000 0.1214309168
H   H154      1.0  0.07440  0.34620  0.00550  1.0000 0.1214309168
H   H155      1.0  0.15380  0.57440  0.50550  1.0000 0.1214309168
H   H156      1.0  0.92560  0.65380  0.00550  1.0000 0.1214309168
H   H157      1.0  0.34620  0.07440  0.99450  1.0000 0.1214309168
H   H158      1.0  0.65380  0.92560  0.99450  1.0000 0.1214309168
H   H159      1.0  0.42560  0.84620  0.49450  1.0000 0.1214309168
H   H160      1.0  0.57440  0.15380  0.49450  1.0000 0.1214309168
H   H161      1.0  0.96220  0.45190  0.50400  1.0000 0.1116560767
H   H162      1.0  0.04810  0.46220  0.00400  1.0000 0.1116560767
H   H163      1.0  0.03780  0.54810  0.50400  1.0000 0.1116560767
H   H164      1.0  0.95190  0.53780  0.00400  1.0000 0.1116560767
H   H165      1.0  0.46220  0.04810  0.99600  1.0000 0.1116560767
H   H166      1.0  0.53780  0.95190  0.99600  1.0000 0.1116560767
H   H167      1.0  0.45190  0.96220  0.49600  1.0000 0.1116560767
H   H168      1.0  0.54810  0.03780  0.49600  1.0000 0.1116560767
C   C1        1.0  0.62200  0.44990  0.34289  1.0000 0.6277645659
C   C2        1.0  0.05010  0.12200  0.84289  1.0000 0.6277645659
C   C3        1.0  0.37800  0.55010  0.34289  1.0000 0.6277645659
C   C4        1.0  0.94990  0.87800  0.84289  1.0000 0.6277645659
C   C5        1.0  0.12200  0.05010  0.15711  1.0000 0.6277645659
C   C6        1.0  0.87800  0.94990  0.15711  1.0000 0.6277645659
C   C7        1.0  0.44990  0.62200  0.65711  1.0000 0.6277645659
C   C8        1.0  0.55010  0.37800  0.65711  1.0000 0.6277645659
C   C9        1.0  0.80500  0.64130  0.14472  1.0000 -0.1260446626
C   C10       1.0  0.85870  0.30500  0.64472  1.0000 -0.1260446626
C   C11       1.0  0.19500  0.35870  0.14472  1.0000 -0.1260446626
C   C12       1.0  0.14130  0.69500  0.64472  1.0000 -0.1260446626
C   C13       1.0  0.30500  0.85870  0.35528  1.0000 -0.1260446626
C   C14       1.0  0.69500  0.14130  0.35528  1.0000 -0.1260446626
C   C15       1.0  0.64130  0.80500  0.85528  1.0000 -0.1260446626
C   C16       1.0  0.35870  0.19500  0.85528  1.0000 -0.1260446626
C   C17       1.0  0.80230  0.63890  0.06981  1.0000 -0.0968516012
C   C18       1.0  0.86110  0.30230  0.56981  1.0000 -0.0968516012
C   C19       1.0  0.19770  0.36110  0.06981  1.0000 -0.0968516012
C   C20       1.0  0.13890  0.69770  0.56981  1.0000 -0.0968516012
C   C21       1.0  0.30230  0.86110  0.43019  1.0000 -0.0968516012
C   C22       1.0  0.69770  0.13890  0.43019  1.0000 -0.0968516012
C   C23       1.0  0.63890  0.80230  0.93019  1.0000 -0.0968516012
C   C24       1.0  0.36110  0.19770  0.93019  1.0000 -0.0968516012
C   C25       1.0  0.99410  0.15070  0.11491  1.0000 0.6277645659
C   C26       1.0  0.34930  0.49410  0.61491  1.0000 0.6277645659
C   C27       1.0  0.00590  0.84930  0.11491  1.0000 0.6277645659
C   C28       1.0  0.65070  0.50590  0.61491  1.0000 0.6277645659
C   C29       1.0  0.49410  0.34930  0.38509  1.0000 0.6277645659
C   C30       1.0  0.50590  0.65070  0.38509  1.0000 0.6277645659
C   C31       1.0  0.15070  0.99410  0.88509  1.0000 0.6277645659
C   C32       1.0  0.84930  0.00590  0.88509  1.0000 0.6277645659
C   C33       1.0  0.80790  0.70200  0.12562  1.0000 -0.0920809746
C   C34       1.0  0.79800  0.30790  0.62562  1.0000 -0.0920809746
C   C35       1.0  0.19210  0.29800  0.12562  1.0000 -0.0920809746
C   C36       1.0  0.20200  0.69210  0.62562  1.0000 -0.0920809746
C   C37       1.0  0.30790  0.79800  0.37438  1.0000 -0.0920809746
C   C38       1.0  0.69210  0.20200  0.37438  1.0000 -0.0920809746
C   C39       1.0  0.70200  0.80790  0.87438  1.0000 -0.0920809746
C   C40       1.0  0.29800  0.19210  0.87438  1.0000 -0.0920809746
C   C41       1.0  0.79810  0.57590  0.08949  1.0000 -0.1615983253
C   C42       1.0  0.92410  0.29810  0.58949  1.0000 -0.1615983253
C   C43       1.0  0.20190  0.42410  0.08949  1.0000 -0.1615983253
C   C44       1.0  0.07590  0.70190  0.58949  1.0000 -0.1615983253
C   C45       1.0  0.29810  0.92410  0.41051  1.0000 -0.1615983253
C   C46       1.0  0.70190  0.07590  0.41051  1.0000 -0.1615983253
C   C47       1.0  0.57590  0.79810  0.91051  1.0000 -0.1615983253
C   C48       1.0  0.42410  0.20190  0.91051  1.0000 -0.1615983253
C   C49       1.0  0.80330  0.70169  0.08747  1.0000 -0.0499156261
C   C50       1.0  0.79831  0.30330  0.58747  1.0000 -0.0499156261
C   C51       1.0  0.19670  0.29831  0.08747  1.0000 -0.0499156261
C   C52       1.0  0.20169  0.69670  0.58747  1.0000 -0.0499156261
C   C53       1.0  0.30330  0.79831  0.41253  1.0000 -0.0499156261
C   C54       1.0  0.69670  0.20169  0.41253  1.0000 -0.0499156261
C   C55       1.0  0.70169  0.80330  0.91253  1.0000 -0.0499156261
C   C56       1.0  0.29831  0.19670  0.91253  1.0000 -0.0499156261
C   C57       1.0  0.81010  0.76950  0.06805  1.0000 0.6277645659
C   C58       1.0  0.73050  0.31010  0.56805  1.0000 0.6277645659
C   C59       1.0  0.18990  0.23050  0.06805  1.0000 0.6277645659
C   C60       1.0  0.26950  0.68990  0.56805  1.0000 0.6277645659
C   C61       1.0  0.31010  0.73050  0.43195  1.0000 0.6277645659
C   C62       1.0  0.68990  0.26950  0.43195  1.0000 0.6277645659
C   C63       1.0  0.76950  0.81010  0.93195  1.0000 0.6277645659
C   C64       1.0  0.23050  0.18990  0.93195  1.0000 0.6277645659
C   C65       1.0  0.95300  0.21430  0.12624  1.0000 -0.0382188427
C   C66       1.0  0.28570  0.45300  0.62624  1.0000 -0.0382188427
C   C67       1.0  0.04700  0.78570  0.12624  1.0000 -0.0382188427
C   C68       1.0  0.71430  0.54700  0.62624  1.0000 -0.0382188427
C   C69       1.0  0.45300  0.28570  0.37376  1.0000 -0.0382188427
C   C70       1.0  0.54700  0.71430  0.37376  1.0000 -0.0382188427
C   C71       1.0  0.21430  0.95300  0.87376  1.0000 -0.0382188427
C   C72       1.0  0.78570  0.04700  0.87376  1.0000 -0.0382188427
C   C73       1.0  0.63100  0.48670  0.27754  1.0000 -0.0968516012
C   C74       1.0  0.01330  0.13100  0.77754  1.0000 -0.0968516012
C   C75       1.0  0.36900  0.51330  0.27754  1.0000 -0.0968516012
C   C76       1.0  0.98670  0.86900  0.77754  1.0000 -0.0968516012
C   C77       1.0  0.13100  0.01330  0.22246  1.0000 -0.0968516012
C   C78       1.0  0.86900  0.98670  0.22246  1.0000 -0.0968516012
C   C79       1.0  0.48670  0.63100  0.72246  1.0000 -0.0968516012
C   C80       1.0  0.51330  0.36900  0.72246  1.0000 -0.0968516012
C   C81       1.0  0.80190  0.57960  0.12861  1.0000 0.0688396819
C   C82       1.0  0.92040  0.30190  0.62861  1.0000 0.0688396819
C   C83       1.0  0.19810  0.42040  0.12861  1.0000 0.0688396819
C   C84       1.0  0.07960  0.69810  0.62861  1.0000 0.0688396819
C   C85       1.0  0.30190  0.92040  0.37139  1.0000 0.0688396819
C   C86       1.0  0.69810  0.07960  0.37139  1.0000 0.0688396819
C   C87       1.0  0.57960  0.80190  0.87139  1.0000 0.0688396819
C   C88       1.0  0.42040  0.19810  0.87139  1.0000 0.0688396819
C   C89       1.0  0.72610  0.45010  0.23979  1.0000 0.0815568645
C   C90       1.0  0.04990  0.22610  0.73979  1.0000 0.0815568645
C   C91       1.0  0.27390  0.54990  0.23979  1.0000 0.0815568645
C   C92       1.0  0.95010  0.77390  0.73979  1.0000 0.0815568645
C   C93       1.0  0.22610  0.04990  0.26021  1.0000 0.0815568645
C   C94       1.0  0.77390  0.95010  0.26021  1.0000 0.0815568645
C   C95       1.0  0.45010  0.72610  0.76021  1.0000 0.0815568645
C   C96       1.0  0.54990  0.27390  0.76021  1.0000 0.0815568645
C   C97       1.0  0.88940  0.20640  0.14337  1.0000 -0.0920809746
C   C98       1.0  0.29360  0.38940  0.64337  1.0000 -0.0920809746
C   C99       1.0  0.11060  0.79360  0.14337  1.0000 -0.0920809746
C   C100      1.0  0.70640  0.61060  0.64337  1.0000 -0.0920809746
C   C101      1.0  0.38940  0.29360  0.35663  1.0000 -0.0920809746
C   C102      1.0  0.61060  0.70640  0.35663  1.0000 -0.0920809746
C   C103      1.0  0.20640  0.88940  0.85663  1.0000 -0.0920809746
C   C104      1.0  0.79360  0.11060  0.85663  1.0000 -0.0920809746
C   C105      1.0  0.76730  0.45130  0.20415  1.0000 0.0815568645
C   C106      1.0  0.04870  0.26730  0.70415  1.0000 0.0815568645
C   C107      1.0  0.23270  0.54870  0.20415  1.0000 0.0815568645
C   C108      1.0  0.95130  0.73270  0.70415  1.0000 0.0815568645
C   C109      1.0  0.26730  0.04870  0.29585  1.0000 0.0815568645
C   C110      1.0  0.73270  0.95130  0.29585  1.0000 0.0815568645
C   C111      1.0  0.45130  0.76730  0.79585  1.0000 0.0815568645
C   C112      1.0  0.54870  0.23270  0.79585  1.0000 0.0815568645
C   C113      1.0  0.65920  0.45180  0.30693  1.0000 -0.0499156261
C   C114      1.0  0.04820  0.15920  0.80693  1.0000 -0.0499156261
C   C115      1.0  0.34080  0.54820  0.30693  1.0000 -0.0499156261
C   C116      1.0  0.95180  0.84080  0.80693  1.0000 -0.0499156261
C   C117      1.0  0.15920  0.04820  0.19307  1.0000 -0.0499156261
C   C118      1.0  0.84080  0.95180  0.19307  1.0000 -0.0499156261
C   C119      1.0  0.45180  0.65920  0.69307  1.0000 -0.0499156261
C   C120      1.0  0.54820  0.34080  0.69307  1.0000 -0.0499156261
C   C121      1.0  0.97790  0.27970  0.11967  1.0000 -0.0968516012
C   C122      1.0  0.22030  0.47790  0.61967  1.0000 -0.0968516012
C   C123      1.0  0.02210  0.72030  0.11967  1.0000 -0.0968516012
C   C124      1.0  0.77970  0.52210  0.61967  1.0000 -0.0968516012
C   C125      1.0  0.47790  0.22030  0.38033  1.0000 -0.0968516012
C   C126      1.0  0.52210  0.77970  0.38033  1.0000 -0.0968516012
C   C127      1.0  0.27970  0.97790  0.88033  1.0000 -0.0968516012
C   C128      1.0  0.72030  0.02210  0.88033  1.0000 -0.0968516012
C   C129      1.0  0.72100  0.41460  0.30277  1.0000 -0.0968516012
C   C130      1.0  0.08540  0.22100  0.80277  1.0000 -0.0968516012
C   C131      1.0  0.27900  0.58540  0.30277  1.0000 -0.0968516012
C   C132      1.0  0.91460  0.77900  0.80277  1.0000 -0.0968516012
C   C133      1.0  0.22100  0.08540  0.19723  1.0000 -0.0968516012
C   C134      1.0  0.77900  0.91460  0.19723  1.0000 -0.0968516012
C   C135      1.0  0.41460  0.72100  0.69723  1.0000 -0.0968516012
C   C136      1.0  0.58540  0.27900  0.69723  1.0000 -0.0968516012
C   C137      1.0  0.75700  0.41370  0.26979  1.0000 -0.1615983253
C   C138      1.0  0.08630  0.25700  0.76979  1.0000 -0.1615983253
C   C139      1.0  0.24300  0.58630  0.26979  1.0000 -0.1615983253
C   C140      1.0  0.91370  0.74300  0.76979  1.0000 -0.1615983253
C   C141      1.0  0.25700  0.08630  0.23021  1.0000 -0.1615983253
C   C142      1.0  0.74300  0.91370  0.23021  1.0000 -0.1615983253
C   C143      1.0  0.41370  0.75700  0.73021  1.0000 -0.1615983253
C   C144      1.0  0.58630  0.24300  0.73021  1.0000 -0.1615983253
C   C145      1.0  0.87940  0.33210  0.14735  1.0000 0.0688396819
C   C146      1.0  0.16790  0.37940  0.64735  1.0000 0.0688396819
C   C147      1.0  0.12060  0.66790  0.14735  1.0000 0.0688396819
C   C148      1.0  0.83210  0.62060  0.64735  1.0000 0.0688396819
C   C149      1.0  0.37940  0.16790  0.35265  1.0000 0.0688396819
C   C150      1.0  0.62060  0.83210  0.35265  1.0000 0.0688396819
C   C151      1.0  0.33210  0.87940  0.85265  1.0000 0.0688396819
C   C152      1.0  0.66790  0.12060  0.85265  1.0000 0.0688396819
C   C153      1.0  0.66570  0.48570  0.24448  1.0000 -0.1516251985
C   C154      1.0  0.01430  0.16570  0.74448  1.0000 -0.1516251985
C   C155      1.0  0.33430  0.51430  0.24448  1.0000 -0.1516251985
C   C156      1.0  0.98570  0.83430  0.74448  1.0000 -0.1516251985
C   C157      1.0  0.16570  0.01430  0.25552  1.0000 -0.1516251985
C   C158      1.0  0.83430  0.98570  0.25552  1.0000 -0.1516251985
C   C159      1.0  0.48570  0.66570  0.75552  1.0000 -0.1516251985
C   C160      1.0  0.51430  0.33430  0.75552  1.0000 -0.1516251985
C   C161      1.0  0.76530  0.51180  0.18298  1.0000 -0.2118921447
C   C162      1.0  0.98820  0.26530  0.68298  1.0000 -0.2118921447
C   C163      1.0  0.23470  0.48820  0.18298  1.0000 -0.2118921447
C   C164      1.0  0.01180  0.73470  0.68298  1.0000 -0.2118921447
C   C165      1.0  0.26530  0.98820  0.31702  1.0000 -0.2118921447
C   C166      1.0  0.73470  0.01180  0.31702  1.0000 -0.2118921447
C   C167      1.0  0.51180  0.76530  0.81702  1.0000 -0.2118921447
C   C168      1.0  0.48820  0.23470  0.81702  1.0000 -0.2118921447
C   C169      1.0  0.93990  0.33710  0.13012  1.0000 -0.1431211996
C   C170      1.0  0.16290  0.43990  0.63012  1.0000 -0.1431211996
C   C171      1.0  0.06010  0.66290  0.13012  1.0000 -0.1431211996
C   C172      1.0  0.83710  0.56010  0.63012  1.0000 -0.1431211996
C   C173      1.0  0.43990  0.16290  0.36988  1.0000 -0.1431211996
C   C174      1.0  0.56010  0.83710  0.36988  1.0000 -0.1431211996
C   C175      1.0  0.33710  0.93990  0.86988  1.0000 -0.1431211996
C   C176      1.0  0.66290  0.06010  0.86988  1.0000 -0.1431211996
C   C177      1.0  0.84230  0.39380  0.15949  1.0000 0.0815568645
C   C178      1.0  0.10620  0.34230  0.65949  1.0000 0.0815568645
C   C179      1.0  0.15770  0.60620  0.15949  1.0000 0.0815568645
C   C180      1.0  0.89380  0.65770  0.65949  1.0000 0.0815568645
C   C181      1.0  0.34230  0.10620  0.34051  1.0000 0.0815568645
C   C182      1.0  0.65770  0.89380  0.34051  1.0000 0.0815568645
C   C183      1.0  0.39380  0.84230  0.84051  1.0000 0.0815568645
C   C184      1.0  0.60620  0.15770  0.84051  1.0000 0.0815568645
C   C185      1.0  0.85450  0.26730  0.15276  1.0000 -0.1615983253
C   C186      1.0  0.23270  0.35450  0.65276  1.0000 -0.1615983253
C   C187      1.0  0.14550  0.73270  0.15276  1.0000 -0.1615983253
C   C188      1.0  0.76730  0.64550  0.65276  1.0000 -0.1615983253
C   C189      1.0  0.35450  0.23270  0.34724  1.0000 -0.1615983253
C   C190      1.0  0.64550  0.76730  0.34724  1.0000 -0.1615983253
C   C191      1.0  0.26730  0.85450  0.84724  1.0000 -0.1615983253
C   C192      1.0  0.73270  0.14550  0.84724  1.0000 -0.1615983253
C   C193      1.0  0.80330  0.51330  0.14976  1.0000 0.0815568645
C   C194      1.0  0.98670  0.30330  0.64976  1.0000 0.0815568645
C   C195      1.0  0.19670  0.48670  0.14976  1.0000 0.0815568645
C   C196      1.0  0.01330  0.69670  0.64976  1.0000 0.0815568645
C   C197      1.0  0.30330  0.98670  0.35024  1.0000 0.0815568645
C   C198      1.0  0.69670  0.01330  0.35024  1.0000 0.0815568645
C   C199      1.0  0.51330  0.80330  0.85024  1.0000 0.0815568645
C   C200      1.0  0.48670  0.19670  0.85024  1.0000 0.0815568645
C   C201      1.0  0.83800  0.45410  0.13860  1.0000 -0.2031563911
C   C202      1.0  0.04590  0.33800  0.63860  1.0000 -0.2031563911
C   C203      1.0  0.16200  0.54590  0.13860  1.0000 -0.2031563911
C   C204      1.0  0.95410  0.66200  0.63860  1.0000 -0.2031563911
C   C205      1.0  0.33800  0.04590  0.36140  1.0000 -0.2031563911
C   C206      1.0  0.66200  0.95410  0.36140  1.0000 -0.2031563911
C   C207      1.0  0.45410  0.83800  0.86140  1.0000 -0.2031563911
C   C208      1.0  0.54590  0.16200  0.86140  1.0000 -0.2031563911
C   C209      1.0  0.80360  0.39450  0.19247  1.0000 -0.2031563911
C   C210      1.0  0.10550  0.30360  0.69247  1.0000 -0.2031563911
C   C211      1.0  0.19640  0.60550  0.19247  1.0000 -0.2031563911
C   C212      1.0  0.89450  0.69640  0.69247  1.0000 -0.2031563911
C   C213      1.0  0.30360  0.10550  0.30753  1.0000 -0.2031563911
C   C214      1.0  0.69640  0.89450  0.30753  1.0000 -0.2031563911
C   C215      1.0  0.39450  0.80360  0.80753  1.0000 -0.2031563911
C   C216      1.0  0.60550  0.19640  0.80753  1.0000 -0.2031563911
C   C217      1.0  0.74590  0.43680  0.45728  1.0000 0.6353619528
C   C218      1.0  0.06320  0.24590  0.95728  1.0000 0.6353619528
C   C219      1.0  0.25410  0.56320  0.45728  1.0000 0.6353619528
C   C220      1.0  0.93680  0.75410  0.95728  1.0000 0.6353619528
C   C221      1.0  0.24590  0.06320  0.04272  1.0000 0.6353619528
C   C222      1.0  0.75410  0.93680  0.04272  1.0000 0.6353619528
C   C223      1.0  0.43680  0.74590  0.54272  1.0000 0.6353619528
C   C224      1.0  0.56320  0.25410  0.54272  1.0000 0.6353619528
C   C225      1.0  0.84850  0.48980  0.42456  1.0000 -0.0920809746
C   C226      1.0  0.01020  0.34850  0.92456  1.0000 -0.0920809746
C   C227      1.0  0.15150  0.51020  0.42456  1.0000 -0.0920809746
C   C228      1.0  0.98980  0.65150  0.92456  1.0000 -0.0920809746
C   C229      1.0  0.34850  0.01020  0.07544  1.0000 -0.0920809746
C   C230      1.0  0.65150  0.98980  0.07544  1.0000 -0.0920809746
C   C231      1.0  0.48980  0.84850  0.57544  1.0000 -0.0920809746
C   C232      1.0  0.51020  0.15150  0.57544  1.0000 -0.0920809746
C   C233      1.0  0.82040  0.45850  0.45482  1.0000 -0.0499156261
C   C234      1.0  0.04150  0.32040  0.95482  1.0000 -0.0499156261
C   C235      1.0  0.17960  0.54150  0.45482  1.0000 -0.0499156261
C   C236      1.0  0.95850  0.67960  0.95482  1.0000 -0.0499156261
C   C237      1.0  0.32040  0.04150  0.04518  1.0000 -0.0499156261
C   C238      1.0  0.67960  0.95850  0.04518  1.0000 -0.0499156261
C   C239      1.0  0.45850  0.82040  0.54518  1.0000 -0.0499156261
C   C240      1.0  0.54150  0.17960  0.54518  1.0000 -0.0499156261
C   C241      1.0  0.92000  0.50590  0.42315  1.0000 -0.1516251985
C   C242      1.0  0.99410  0.42000  0.92315  1.0000 -0.1516251985
C   C243      1.0  0.08000  0.49410  0.42315  1.0000 -0.1516251985
C   C244      1.0  0.00590  0.58000  0.92315  1.0000 -0.1516251985
C   C245      1.0  0.42000  0.99410  0.07685  1.0000 -0.1516251985
C   C246      1.0  0.58000  0.00590  0.07685  1.0000 -0.1516251985
C   C247      1.0  0.50590  0.92000  0.57685  1.0000 -0.1516251985
C   C248      1.0  0.49410  0.08000  0.57685  1.0000 -0.1516251985
C   C249      1.0  0.86480  0.44550  0.48461  1.0000 -0.0920809746
C   C250      1.0  0.05450  0.36480  0.98461  1.0000 -0.0920809746
C   C251      1.0  0.13520  0.55450  0.48461  1.0000 -0.0920809746
C   C252      1.0  0.94550  0.63520  0.98461  1.0000 -0.0920809746
C   C253      1.0  0.36480  0.05450  0.01539  1.0000 -0.0920809746
C   C254      1.0  0.63520  0.94550  0.01539  1.0000 -0.0920809746
C   C255      1.0  0.44550  0.86480  0.51539  1.0000 -0.0920809746
C   C256      1.0  0.55450  0.13520  0.51539  1.0000 -0.0920809746
C   C257      1.0  0.96090  0.49070  0.45271  1.0000 0.0815568645
C   C258      1.0  0.00930  0.46090  0.95271  1.0000 0.0815568645
C   C259      1.0  0.03910  0.50930  0.45271  1.0000 0.0815568645
C   C260      1.0  0.99070  0.53910  0.95271  1.0000 0.0815568645
C   C261      1.0  0.46090  0.00930  0.04729  1.0000 0.0815568645
C   C262      1.0  0.53910  0.99070  0.04729  1.0000 0.0815568645
C   C263      1.0  0.49070  0.96090  0.54729  1.0000 0.0815568645
C   C264      1.0  0.50930  0.03910  0.54729  1.0000 0.0815568645
C   C265      1.0  0.93390  0.46100  0.48394  1.0000 -0.1516251985
C   C266      1.0  0.03900  0.43390  0.98394  1.0000 -0.1516251985
C   C267      1.0  0.06610  0.53900  0.48394  1.0000 -0.1516251985
C   C268      1.0  0.96100  0.56610  0.98394  1.0000 -0.1516251985
C   C269      1.0  0.43390  0.03900  0.01606  1.0000 -0.1516251985
C   C270      1.0  0.56610  0.96100  0.01606  1.0000 -0.1516251985
C   C271      1.0  0.46100  0.93390  0.51606  1.0000 -0.1516251985
C   C272      1.0  0.53900  0.06610  0.51606  1.0000 -0.1516251985
O   O1        1.0  0.56585  0.47657  0.41735  1.0000 -1.01095389
O   O2        1.0  0.02343  0.06585  0.91735  1.0000 -1.01095389
O   O3        1.0  0.43415  0.52343  0.41735  1.0000 -1.01095389
O   O4        1.0  0.97657  0.93415  0.91735  1.0000 -1.01095389
O   O5        1.0  0.06585  0.02343  0.08265  1.0000 -1.01095389
O   O6        1.0  0.93415  0.97657  0.08265  1.0000 -1.01095389
O   O7        1.0  0.47657  0.56585  0.58265  1.0000 -1.01095389
O   O8        1.0  0.52343  0.43415  0.58265  1.0000 -1.01095389
O   O9        1.0  0.65314  0.42109  0.36895  1.0000 -0.5776527343
O   O10       1.0  0.07891  0.15314  0.86895  1.0000 -0.5776527343
O   O11       1.0  0.34686  0.57891  0.36895  1.0000 -0.5776527343
O   O12       1.0  0.92109  0.84686  0.86895  1.0000 -0.5776527343
O   O13       1.0  0.15314  0.07891  0.13105  1.0000 -0.5776527343
O   O14       1.0  0.84686  0.92109  0.13105  1.0000 -0.5776527343
O   O15       1.0  0.42109  0.65314  0.63105  1.0000 -0.5776527343
O   O16       1.0  0.57891  0.34686  0.63105  1.0000 -0.5776527343
O   O17       1.0  0.60188  0.37366  0.46441  1.0000 -1.0048006195
O   O18       1.0  0.12634  0.10188  0.96441  1.0000 -1.0048006195
O   O19       1.0  0.39812  0.62634  0.46441  1.0000 -1.0048006195
O   O20       1.0  0.87366  0.89812  0.96441  1.0000 -1.0048006195
O   O21       1.0  0.10188  0.12634  0.03559  1.0000 -1.0048006195
O   O22       1.0  0.89812  0.87366  0.03559  1.0000 -1.0048006195
O   O23       1.0  0.37366  0.60188  0.53559  1.0000 -1.0048006195
O   O24       1.0  0.62634  0.39812  0.53559  1.0000 -1.0048006195
O   O25       1.0  0.56340  0.47852  0.34431  1.0000 -0.5776527343
O   O26       1.0  0.02148  0.06340  0.84431  1.0000 -0.5776527343
O   O27       1.0  0.43660  0.52148  0.34431  1.0000 -0.5776527343
O   O28       1.0  0.97852  0.93660  0.84431  1.0000 -0.5776527343
O   O29       1.0  0.06340  0.02148  0.15569  1.0000 -0.5776527343
O   O30       1.0  0.93660  0.97852  0.15569  1.0000 -0.5776527343
O   O31       1.0  0.47852  0.56340  0.65569  1.0000 -0.5776527343
O   O32       1.0  0.52148  0.43660  0.65569  1.0000 -0.5776527343
O   O33       1.0  0.81558  0.82283  0.08684  1.0000 -0.569002198
O   O34       1.0  0.67717  0.31558  0.58684  1.0000 -0.569002198
O   O35       1.0  0.18442  0.17717  0.08684  1.0000 -0.569002198
O   O36       1.0  0.32283  0.68442  0.58684  1.0000 -0.569002198
O   O37       1.0  0.31558  0.67717  0.41316  1.0000 -0.569002198
O   O38       1.0  0.68442  0.32283  0.41316  1.0000 -0.569002198
O   O39       1.0  0.82283  0.81558  0.91316  1.0000 -0.569002198
O   O40       1.0  0.17717  0.18442  0.91316  1.0000 -0.569002198
O   O41       1.0  0.73150  0.40075  0.48457  1.0000 -0.5879260618
O   O42       1.0  0.09925  0.23150  0.98457  1.0000 -0.5879260618
O   O43       1.0  0.26850  0.59925  0.48457  1.0000 -0.5879260618
O   O44       1.0  0.90075  0.76850  0.98457  1.0000 -0.5879260618
O   O45       1.0  0.23150  0.09925  0.01543  1.0000 -0.5879260618
O   O46       1.0  0.76850  0.90075  0.01543  1.0000 -0.5879260618
O   O47       1.0  0.40075  0.73150  0.51543  1.0000 -0.5879260618
O   O48       1.0  0.59925  0.26850  0.51543  1.0000 -0.5879260618
O   O49       1.0  0.05364  0.15997  0.10175  1.0000 -0.5879260618
O   O50       1.0  0.34003  0.55364  0.60175  1.0000 -0.5879260618
O   O51       1.0  0.94636  0.84003  0.10175  1.0000 -0.5879260618
O   O52       1.0  0.65997  0.44636  0.60175  1.0000 -0.5879260618
O   O53       1.0  0.55364  0.34003  0.39825  1.0000 -0.5879260618
O   O54       1.0  0.44636  0.65997  0.39825  1.0000 -0.5879260618
O   O55       1.0  0.15997  0.05364  0.89825  1.0000 -0.5879260618
O   O56       1.0  0.84003  0.94636  0.89825  1.0000 -0.5879260618
O   O57       1.0  0.96616  0.09227  0.12021  1.0000 -0.5879260618
O   O58       1.0  0.40773  0.46616  0.62021  1.0000 -0.5879260618
O   O59       1.0  0.03384  0.90773  0.12021  1.0000 -0.5879260618
O   O60       1.0  0.59227  0.53384  0.62021  1.0000 -0.5879260618
O   O61       1.0  0.46616  0.40773  0.37979  1.0000 -0.5879260618
O   O62       1.0  0.53384  0.59227  0.37979  1.0000 -0.5879260618
O   O63       1.0  0.09227  0.96616  0.87979  1.0000 -0.5879260618
O   O64       1.0  0.90773  0.03384  0.87979  1.0000 -0.5879260618
O   O65       1.0  0.70468  0.45336  0.43230  1.0000 -0.5776527343
O   O66       1.0  0.04664  0.20468  0.93230  1.0000 -0.5776527343
O   O67       1.0  0.29532  0.54664  0.43230  1.0000 -0.5776527343
O   O68       1.0  0.95336  0.79532  0.93230  1.0000 -0.5776527343
O   O69       1.0  0.20468  0.04664  0.06770  1.0000 -0.5776527343
O   O70       1.0  0.79532  0.95336  0.06770  1.0000 -0.5776527343
O   O71       1.0  0.45336  0.70468  0.56770  1.0000 -0.5776527343
O   O72       1.0  0.54664  0.29532  0.56770  1.0000 -0.5776527343
O   O73       1.0  0.80604  0.76817  0.03284  1.0000 -0.5879260618
O   O74       1.0  0.73183  0.30604  0.53284  1.0000 -0.5879260618
O   O75       1.0  0.19396  0.23183  0.03284  1.0000 -0.5879260618
O   O76       1.0  0.26817  0.69396  0.53284  1.0000 -0.5879260618
O   O77       1.0  0.30604  0.73183  0.46716  1.0000 -0.5879260618
O   O78       1.0  0.69396  0.26817  0.46716  1.0000 -0.5879260618
O   O79       1.0  0.76817  0.80604  0.96716  1.0000 -0.5879260618
O   O80       1.0  0.23183  0.19396  0.96716  1.0000 -0.5879260618
