# DDEC6 charges by PACMAN v1.1 (https://github.com/mtap-research/PACMAN-charge/)
data_2017[Al][skl]3[FSR]6
_chemical_formula_sum              "Al16 H168 C272 O80"
_cell_length_a       19.1965
_cell_length_b       19.1965
_cell_length_c       36.699
_cell_angle_alpha    90
_cell_angle_beta     90
_cell_angle_gamma    90

_symmetry_space_group_name_H-M    "P 1"
_symmetry_Int_Tables_number       1

loop_
  _symmetry_equiv_pos_as_xyz
  'x, y, z'

loop_
  _atom_site_type_symbol
  _atom_site_label
  _atom_site_symmetry_multiplicity
  _atom_site_fract_x
  _atom_site_fract_y
  _atom_site_fract_z
  _atom_site_occupancy
  _atom_site_charge
Al  Al1       1.0  0.66011  0.33989  0.50000  1.0000 1.6464737058
Al  Al2       1.0  0.16011  0.16011  0.00000  1.0000 1.6464737058
Al  Al3       1.0  0.33989  0.66011  0.50000  1.0000 1.6464737058
Al  Al4       1.0  0.83989  0.83989  0.00000  1.0000 1.6464737058
Al  Al5       1.0  0.62525  0.40184  0.41714  1.0000 1.6307640374
Al  Al6       1.0  0.09816  0.12525  0.91714  1.0000 1.6307640374
Al  Al7       1.0  0.37475  0.59816  0.41714  1.0000 1.6307640374
Al  Al8       1.0  0.90184  0.87475  0.91714  1.0000 1.6307640374
Al  Al9       1.0  0.12525  0.09816  0.08286  1.0000 1.6307640374
Al  Al10      1.0  0.87475  0.90184  0.08286  1.0000 1.6307640374
Al  Al11      1.0  0.40184  0.62525  0.58286  1.0000 1.6307640374
Al  Al12      1.0  0.59816  0.37475  0.58286  1.0000 1.6307640374
Al  Al13      1.0  0.50000  0.50000  0.38188  1.0000 1.6412231028
Al  Al14      1.0  0.00000  0.00000  0.88188  1.0000 1.6412231028
Al  Al15      1.0  0.00000  0.00000  0.11812  1.0000 1.6412231028
Al  Al16      1.0  0.50000  0.50000  0.61812  1.0000 1.6412231028
H   H1        1.0  0.57010  0.50820  0.43660  1.0000 0.4210787714
H   H2        1.0  0.99180  0.07010  0.93660  1.0000 0.4210787714
H   H3        1.0  0.42990  0.49180  0.43660  1.0000 0.4210787714
H   H4        1.0  0.00820  0.92990  0.93660  1.0000 0.4210787714
H   H5        1.0  0.07010  0.99180  0.06340  1.0000 0.4210787714
H   H6        1.0  0.92990  0.00820  0.06340  1.0000 0.4210787714
H   H7        1.0  0.50820  0.57010  0.56340  1.0000 0.4210787714
H   H8        1.0  0.49180  0.42990  0.56340  1.0000 0.4210787714
H   H9        1.0  0.55520  0.38040  0.47060  1.0000 0.4210787714
H   H10       1.0  0.11960  0.05520  0.97060  1.0000 0.4210787714
H   H11       1.0  0.44480  0.61960  0.47060  1.0000 0.4210787714
H   H12       1.0  0.88040  0.94480  0.97060  1.0000 0.4210787714
H   H13       1.0  0.05520  0.11960  0.02940  1.0000 0.4210787714
H   H14       1.0  0.94480  0.88040  0.02940  1.0000 0.4210787714
H   H15       1.0  0.38040  0.55520  0.52940  1.0000 0.4210787714
H   H16       1.0  0.61960  0.44480  0.52940  1.0000 0.4210787714
H   H17       1.0  0.80900  0.64550  0.17140  1.0000 0.1118953592
H   H18       1.0  0.85450  0.30900  0.67140  1.0000 0.1118953592
H   H19       1.0  0.19100  0.35450  0.17140  1.0000 0.1118953592
H   H20       1.0  0.14550  0.69100  0.67140  1.0000 0.1118953592
H   H21       1.0  0.30900  0.85450  0.32860  1.0000 0.1118953592
H   H22       1.0  0.69100  0.14550  0.32860  1.0000 0.1118953592
H   H23       1.0  0.64550  0.80900  0.82860  1.0000 0.1118953592
H   H24       1.0  0.35450  0.19100  0.82860  1.0000 0.1118953592
H   H25       1.0  0.80120  0.63860  0.04460  1.0000 0.1238043197
H   H26       1.0  0.86140  0.30120  0.54460  1.0000 0.1238043197
H   H27       1.0  0.19880  0.36140  0.04460  1.0000 0.1238043197
H   H28       1.0  0.13860  0.69880  0.54460  1.0000 0.1238043197
H   H29       1.0  0.30120  0.86140  0.45540  1.0000 0.1238043197
H   H30       1.0  0.69880  0.13860  0.45540  1.0000 0.1238043197
H   H31       1.0  0.63860  0.80120  0.95540  1.0000 0.1238043197
H   H32       1.0  0.36140  0.19880  0.95540  1.0000 0.1238043197
H   H33       1.0  0.81250  0.74790  0.13760  1.0000 0.1298555602
H   H34       1.0  0.75210  0.31250  0.63760  1.0000 0.1298555602
H   H35       1.0  0.18750  0.25210  0.13760  1.0000 0.1298555602
H   H36       1.0  0.24790  0.68750  0.63760  1.0000 0.1298555602
H   H37       1.0  0.31250  0.75210  0.36240  1.0000 0.1298555602
H   H38       1.0  0.68750  0.24790  0.36240  1.0000 0.1298555602
H   H39       1.0  0.74790  0.81250  0.86240  1.0000 0.1298555602
H   H40       1.0  0.25210  0.18750  0.86240  1.0000 0.1298555602
H   H41       1.0  0.80280  0.53560  0.07840  1.0000 0.1118953592
H   H42       1.0  0.96440  0.30280  0.57840  1.0000 0.1118953592
H   H43       1.0  0.19720  0.46440  0.07840  1.0000 0.1118953592
H   H44       1.0  0.03560  0.69720  0.57840  1.0000 0.1118953592
H   H45       1.0  0.30280  0.96440  0.42160  1.0000 0.1118953592
H   H46       1.0  0.69720  0.03560  0.42160  1.0000 0.1118953592
H   H47       1.0  0.53560  0.80280  0.92160  1.0000 0.1118953592
H   H48       1.0  0.46440  0.19720  0.92160  1.0000 0.1118953592
H   H49       1.0  0.59080  0.50860  0.27940  1.0000 0.1298555602
H   H50       1.0  0.99140  0.09080  0.77940  1.0000 0.1298555602
H   H51       1.0  0.40920  0.49140  0.27940  1.0000 0.1298555602
H   H52       1.0  0.00860  0.90920  0.77940  1.0000 0.1298555602
H   H53       1.0  0.09080  0.99140  0.22060  1.0000 0.1298555602
H   H54       1.0  0.90920  0.00860  0.22060  1.0000 0.1298555602
H   H55       1.0  0.50860  0.59080  0.72060  1.0000 0.1298555602
H   H56       1.0  0.49140  0.40920  0.72060  1.0000 0.1298555602
H   H57       1.0  0.87510  0.16290  0.14860  1.0000 0.1298555602
H   H58       1.0  0.33710  0.37510  0.64860  1.0000 0.1298555602
H   H59       1.0  0.12490  0.83710  0.14860  1.0000 0.1298555602
H   H60       1.0  0.66290  0.62490  0.64860  1.0000 0.1298555602
H   H61       1.0  0.37510  0.33710  0.35140  1.0000 0.1298555602
H   H62       1.0  0.62490  0.66290  0.35140  1.0000 0.1298555602
H   H63       1.0  0.16290  0.87510  0.85140  1.0000 0.1298555602
H   H64       1.0  0.83710  0.12490  0.85140  1.0000 0.1298555602
H   H65       1.0  0.02690  0.28480  0.10930  1.0000 0.1238043197
H   H66       1.0  0.21520  0.52690  0.60930  1.0000 0.1238043197
H   H67       1.0  0.97310  0.71520  0.10930  1.0000 0.1238043197
H   H68       1.0  0.78480  0.47310  0.60930  1.0000 0.1238043197
H   H69       1.0  0.52690  0.21520  0.39070  1.0000 0.1238043197
H   H70       1.0  0.47310  0.78480  0.39070  1.0000 0.1238043197
H   H71       1.0  0.28480  0.02690  0.89070  1.0000 0.1238043197
H   H72       1.0  0.71520  0.97310  0.89070  1.0000 0.1238043197
H   H73       1.0  0.74290  0.39310  0.32360  1.0000 0.1298555602
H   H74       1.0  0.10690  0.24290  0.82360  1.0000 0.1298555602
H   H75       1.0  0.25710  0.60690  0.32360  1.0000 0.1298555602
H   H76       1.0  0.89310  0.75710  0.82360  1.0000 0.1298555602
H   H77       1.0  0.24290  0.10690  0.17640  1.0000 0.1298555602
H   H78       1.0  0.75710  0.89310  0.17640  1.0000 0.1298555602
H   H79       1.0  0.39310  0.74290  0.67640  1.0000 0.1298555602
H   H80       1.0  0.60690  0.25710  0.67640  1.0000 0.1298555602
H   H81       1.0  0.80340  0.39510  0.26910  1.0000 0.1118953592
H   H82       1.0  0.10490  0.30340  0.76910  1.0000 0.1118953592
H   H83       1.0  0.19660  0.60490  0.26910  1.0000 0.1118953592
H   H84       1.0  0.89510  0.69660  0.76910  1.0000 0.1118953592
H   H85       1.0  0.30340  0.10490  0.23090  1.0000 0.1118953592
H   H86       1.0  0.69660  0.89510  0.23090  1.0000 0.1118953592
H   H87       1.0  0.39510  0.80340  0.73090  1.0000 0.1118953592
H   H88       1.0  0.60490  0.19660  0.73090  1.0000 0.1118953592
H   H89       1.0  0.65110  0.51300  0.22460  1.0000 0.1118953592
H   H90       1.0  0.98700  0.15110  0.72460  1.0000 0.1118953592
H   H91       1.0  0.34890  0.48700  0.22460  1.0000 0.1118953592
H   H92       1.0  0.01300  0.84890  0.72460  1.0000 0.1118953592
H   H93       1.0  0.15110  0.98700  0.27540  1.0000 0.1118953592
H   H94       1.0  0.84890  0.01300  0.27540  1.0000 0.1118953592
H   H95       1.0  0.51300  0.65110  0.77540  1.0000 0.1118953592
H   H96       1.0  0.48700  0.34890  0.77540  1.0000 0.1118953592
H   H97       1.0  0.74490  0.55070  0.19110  1.0000 0.1118953592
H   H98       1.0  0.94930  0.24490  0.69110  1.0000 0.1118953592
H   H99       1.0  0.25510  0.44930  0.19110  1.0000 0.1118953592
H   H100      1.0  0.05070  0.75510  0.69110  1.0000 0.1118953592
H   H101      1.0  0.24490  0.94930  0.30890  1.0000 0.1118953592
H   H102      1.0  0.75510  0.05070  0.30890  1.0000 0.1118953592
H   H103      1.0  0.55070  0.74490  0.80890  1.0000 0.1118953592
H   H104      1.0  0.44930  0.25510  0.80890  1.0000 0.1118953592
H   H105      1.0  0.96520  0.38190  0.12650  1.0000 0.1118953592
H   H106      1.0  0.11810  0.46520  0.62650  1.0000 0.1118953592
H   H107      1.0  0.03480  0.61810  0.12650  1.0000 0.1118953592
H   H108      1.0  0.88190  0.53480  0.62650  1.0000 0.1118953592
H   H109      1.0  0.46520  0.11810  0.37350  1.0000 0.1118953592
H   H110      1.0  0.53480  0.88190  0.37350  1.0000 0.1118953592
H   H111      1.0  0.38190  0.96520  0.87350  1.0000 0.1118953592
H   H112      1.0  0.61810  0.03480  0.87350  1.0000 0.1118953592
H   H113      1.0  0.81000  0.26040  0.16230  1.0000 0.1118953592
H   H114      1.0  0.23960  0.31000  0.66230  1.0000 0.1118953592
H   H115      1.0  0.19000  0.73960  0.16230  1.0000 0.1118953592
H   H116      1.0  0.76040  0.69000  0.66230  1.0000 0.1118953592
H   H117      1.0  0.31000  0.23960  0.33770  1.0000 0.1118953592
H   H118      1.0  0.69000  0.76040  0.33770  1.0000 0.1118953592
H   H119      1.0  0.26040  0.81000  0.83770  1.0000 0.1118953592
H   H120      1.0  0.73960  0.19000  0.83770  1.0000 0.1118953592
H   H121      1.0  0.86150  0.45550  0.11610  1.0000 0.1118953592
H   H122      1.0  0.04450  0.36150  0.61610  1.0000 0.1118953592
H   H123      1.0  0.13850  0.54450  0.11610  1.0000 0.1118953592
H   H124      1.0  0.95550  0.63850  0.61610  1.0000 0.1118953592
H   H125      1.0  0.36150  0.04450  0.38390  1.0000 0.1118953592
H   H126      1.0  0.63850  0.95550  0.38390  1.0000 0.1118953592
H   H127      1.0  0.45550  0.86150  0.88390  1.0000 0.1118953592
H   H128      1.0  0.54450  0.13850  0.88390  1.0000 0.1118953592
H   H129      1.0  0.81150  0.35750  0.20930  1.0000 0.1118953592
H   H130      1.0  0.14250  0.31150  0.70930  1.0000 0.1118953592
H   H131      1.0  0.18850  0.64250  0.20930  1.0000 0.1118953592
H   H132      1.0  0.85750  0.68850  0.70930  1.0000 0.1118953592
H   H133      1.0  0.31150  0.14250  0.29070  1.0000 0.1118953592
H   H134      1.0  0.68850  0.85750  0.29070  1.0000 0.1118953592
H   H135      1.0  0.35750  0.81150  0.79070  1.0000 0.1118953592
H   H136      1.0  0.64250  0.18850  0.79070  1.0000 0.1118953592
H   H137      1.0  0.82020  0.49790  0.40510  1.0000 0.1360176057
H   H138      1.0  0.00210  0.32020  0.90510  1.0000 0.1360176057
H   H139      1.0  0.17980  0.50210  0.40510  1.0000 0.1360176057
H   H140      1.0  0.99790  0.67980  0.90510  1.0000 0.1360176057
H   H141      1.0  0.32020  0.00210  0.09490  1.0000 0.1360176057
H   H142      1.0  0.67980  0.99790  0.09490  1.0000 0.1360176057
H   H143      1.0  0.49790  0.82020  0.59490  1.0000 0.1360176057
H   H144      1.0  0.50210  0.17980  0.59490  1.0000 0.1360176057
H   H145      1.0  0.93870  0.52860  0.40370  1.0000 0.1118953592
H   H146      1.0  0.97140  0.43870  0.90370  1.0000 0.1118953592
H   H147      1.0  0.06130  0.47140  0.40370  1.0000 0.1118953592
H   H148      1.0  0.02860  0.56130  0.90370  1.0000 0.1118953592
H   H149      1.0  0.43870  0.97140  0.09630  1.0000 0.1118953592
H   H150      1.0  0.56130  0.02860  0.09630  1.0000 0.1118953592
H   H151      1.0  0.52860  0.93870  0.59630  1.0000 0.1118953592
H   H152      1.0  0.47140  0.06130  0.59630  1.0000 0.1118953592
H   H153      1.0  0.84680  0.42340  0.50630  1.0000 0.1238043197
H   H154      1.0  0.07660  0.34680  0.00630  1.0000 0.1238043197
H   H155      1.0  0.15320  0.57660  0.50630  1.0000 0.1238043197
H   H156      1.0  0.92340  0.65320  0.00630  1.0000 0.1238043197
H   H157      1.0  0.34680  0.07660  0.99370  1.0000 0.1238043197
H   H158      1.0  0.65320  0.92340  0.99370  1.0000 0.1238043197
H   H159      1.0  0.42340  0.84680  0.49370  1.0000 0.1238043197
H   H160      1.0  0.57660  0.15320  0.49370  1.0000 0.1238043197
H   H161      1.0  0.96010  0.45730  0.50450  1.0000 0.1118953592
H   H162      1.0  0.04270  0.46010  0.00450  1.0000 0.1118953592
H   H163      1.0  0.03990  0.54270  0.50450  1.0000 0.1118953592
H   H164      1.0  0.95730  0.53990  0.00450  1.0000 0.1118953592
H   H165      1.0  0.46010  0.04270  0.99550  1.0000 0.1118953592
H   H166      1.0  0.53990  0.95730  0.99550  1.0000 0.1118953592
H   H167      1.0  0.45730  0.96010  0.49550  1.0000 0.1118953592
H   H168      1.0  0.54270  0.03990  0.49550  1.0000 0.1118953592
C   C1        1.0  0.62460  0.45140  0.34300  1.0000 0.6241600216
C   C2        1.0  0.04860  0.12460  0.84300  1.0000 0.6241600216
C   C3        1.0  0.37540  0.54860  0.34300  1.0000 0.6241600216
C   C4        1.0  0.95140  0.87540  0.84300  1.0000 0.6241600216
C   C5        1.0  0.12460  0.04860  0.15700  1.0000 0.6241600216
C   C6        1.0  0.87540  0.95140  0.15700  1.0000 0.6241600216
C   C7        1.0  0.45140  0.62460  0.65700  1.0000 0.6241600216
C   C8        1.0  0.54860  0.37540  0.65700  1.0000 0.6241600216
C   C9        1.0  0.80870  0.64340  0.14610  1.0000 -0.1522590567
C   C10       1.0  0.85660  0.30870  0.64610  1.0000 -0.1522590567
C   C11       1.0  0.19130  0.35660  0.14610  1.0000 -0.1522590567
C   C12       1.0  0.14340  0.69130  0.64610  1.0000 -0.1522590567
C   C13       1.0  0.30870  0.85660  0.35390  1.0000 -0.1522590567
C   C14       1.0  0.69130  0.14340  0.35390  1.0000 -0.1522590567
C   C15       1.0  0.64340  0.80870  0.85390  1.0000 -0.1522590567
C   C16       1.0  0.35660  0.19130  0.85390  1.0000 -0.1522590567
C   C17       1.0  0.80340  0.64000  0.06990  1.0000 -0.0980811329
C   C18       1.0  0.86000  0.30340  0.56990  1.0000 -0.0980811329
C   C19       1.0  0.19660  0.36000  0.06990  1.0000 -0.0980811329
C   C20       1.0  0.14000  0.69660  0.56990  1.0000 -0.0980811329
C   C21       1.0  0.30340  0.86000  0.43010  1.0000 -0.0980811329
C   C22       1.0  0.69660  0.14000  0.43010  1.0000 -0.0980811329
C   C23       1.0  0.64000  0.80340  0.93010  1.0000 -0.0980811329
C   C24       1.0  0.36000  0.19660  0.93010  1.0000 -0.0980811329
C   C25       1.0  0.99540  0.15100  0.11570  1.0000 0.6306285163
C   C26       1.0  0.34900  0.49540  0.61570  1.0000 0.6306285163
C   C27       1.0  0.00460  0.84900  0.11570  1.0000 0.6306285163
C   C28       1.0  0.65100  0.50460  0.61570  1.0000 0.6306285163
C   C29       1.0  0.49540  0.34900  0.38430  1.0000 0.6306285163
C   C30       1.0  0.50460  0.65100  0.38430  1.0000 0.6306285163
C   C31       1.0  0.15100  0.99540  0.88430  1.0000 0.6306285163
C   C32       1.0  0.84900  0.00460  0.88430  1.0000 0.6306285163
C   C33       1.0  0.80950  0.70520  0.12570  1.0000 -0.0909348792
C   C34       1.0  0.79480  0.30950  0.62570  1.0000 -0.0909348792
C   C35       1.0  0.19050  0.29480  0.12570  1.0000 -0.0909348792
C   C36       1.0  0.20520  0.69050  0.62570  1.0000 -0.0909348792
C   C37       1.0  0.30950  0.79480  0.37430  1.0000 -0.0909348792
C   C38       1.0  0.69050  0.20520  0.37430  1.0000 -0.0909348792
C   C39       1.0  0.70520  0.80950  0.87430  1.0000 -0.0909348792
C   C40       1.0  0.29480  0.19050  0.87430  1.0000 -0.0909348792
C   C41       1.0  0.80430  0.57830  0.09030  1.0000 -0.1522590567
C   C42       1.0  0.92170  0.30430  0.59030  1.0000 -0.1522590567
C   C43       1.0  0.19570  0.42170  0.09030  1.0000 -0.1522590567
C   C44       1.0  0.07830  0.69570  0.59030  1.0000 -0.1522590567
C   C45       1.0  0.30430  0.92170  0.40970  1.0000 -0.1522590567
C   C46       1.0  0.69570  0.07830  0.40970  1.0000 -0.1522590567
C   C47       1.0  0.57830  0.80430  0.90970  1.0000 -0.1522590567
C   C48       1.0  0.42170  0.19570  0.90970  1.0000 -0.1522590567
C   C49       1.0  0.80590  0.70310  0.08820  1.0000 -0.0402867737
C   C50       1.0  0.79690  0.30590  0.58820  1.0000 -0.0402867737
C   C51       1.0  0.19410  0.29690  0.08820  1.0000 -0.0402867737
C   C52       1.0  0.20310  0.69410  0.58820  1.0000 -0.0402867737
C   C53       1.0  0.30590  0.79690  0.41180  1.0000 -0.0402867737
C   C54       1.0  0.69410  0.20310  0.41180  1.0000 -0.0402867737
C   C55       1.0  0.70310  0.80590  0.91180  1.0000 -0.0402867737
C   C56       1.0  0.29690  0.19410  0.91180  1.0000 -0.0402867737
C   C57       1.0  0.80890  0.77020  0.06720  1.0000 0.6306285163
C   C58       1.0  0.72980  0.30890  0.56720  1.0000 0.6306285163
C   C59       1.0  0.19110  0.22980  0.06720  1.0000 0.6306285163
C   C60       1.0  0.27020  0.69110  0.56720  1.0000 0.6306285163
C   C61       1.0  0.30890  0.72980  0.43280  1.0000 0.6306285163
C   C62       1.0  0.69110  0.27020  0.43280  1.0000 0.6306285163
C   C63       1.0  0.77020  0.80890  0.93280  1.0000 0.6306285163
C   C64       1.0  0.22980  0.19110  0.93280  1.0000 0.6306285163
C   C65       1.0  0.95550  0.21430  0.12690  1.0000 -0.0402867737
C   C66       1.0  0.28570  0.45550  0.62690  1.0000 -0.0402867737
C   C67       1.0  0.04450  0.78570  0.12690  1.0000 -0.0402867737
C   C68       1.0  0.71430  0.54450  0.62690  1.0000 -0.0402867737
C   C69       1.0  0.45550  0.28570  0.37310  1.0000 -0.0402867737
C   C70       1.0  0.54450  0.71430  0.37310  1.0000 -0.0402867737
C   C71       1.0  0.21430  0.95550  0.87310  1.0000 -0.0402867737
C   C72       1.0  0.78570  0.04450  0.87310  1.0000 -0.0402867737
C   C73       1.0  0.63380  0.48670  0.27730  1.0000 -0.0909348792
C   C74       1.0  0.01330  0.13380  0.77730  1.0000 -0.0909348792
C   C75       1.0  0.36620  0.51330  0.27730  1.0000 -0.0909348792
C   C76       1.0  0.98670  0.86620  0.77730  1.0000 -0.0909348792
C   C77       1.0  0.13380  0.01330  0.22270  1.0000 -0.0980811329
C   C78       1.0  0.86620  0.98670  0.22270  1.0000 -0.0909348792
C   C79       1.0  0.48670  0.63380  0.72270  1.0000 -0.0909348792
C   C80       1.0  0.51330  0.36620  0.72270  1.0000 -0.0909348792
C   C81       1.0  0.80740  0.58010  0.12890  1.0000 0.0719181123
C   C82       1.0  0.91990  0.30740  0.62890  1.0000 0.0719181123
C   C83       1.0  0.19260  0.41990  0.12890  1.0000 0.0719181123
C   C84       1.0  0.08010  0.69260  0.62890  1.0000 0.0719181123
C   C85       1.0  0.30740  0.91990  0.37110  1.0000 0.0719181123
C   C86       1.0  0.69260  0.08010  0.37110  1.0000 0.0719181123
C   C87       1.0  0.58010  0.80740  0.87110  1.0000 0.0719181123
C   C88       1.0  0.41990  0.19260  0.87110  1.0000 0.0719181123
C   C89       1.0  0.73220  0.45330  0.24050  1.0000 0.0764259585
C   C90       1.0  0.04670  0.23220  0.74050  1.0000 0.0764259585
C   C91       1.0  0.26780  0.54670  0.24050  1.0000 0.0764259585
C   C92       1.0  0.95330  0.76780  0.74050  1.0000 0.0764259585
C   C93       1.0  0.23220  0.04670  0.25950  1.0000 0.0764259585
C   C94       1.0  0.76780  0.95330  0.25950  1.0000 0.0764259585
C   C95       1.0  0.45330  0.73220  0.75950  1.0000 0.0764259585
C   C96       1.0  0.54670  0.26780  0.75950  1.0000 0.0764259585
C   C97       1.0  0.89260  0.20700  0.14350  1.0000 -0.0909348792
C   C98       1.0  0.29300  0.39260  0.64350  1.0000 -0.0909348792
C   C99       1.0  0.10740  0.79300  0.14350  1.0000 -0.0909348792
C   C100      1.0  0.70700  0.60740  0.64350  1.0000 -0.0909348792
C   C101      1.0  0.39260  0.29300  0.35650  1.0000 -0.0909348792
C   C102      1.0  0.60740  0.70700  0.35650  1.0000 -0.0909348792
C   C103      1.0  0.20700  0.89260  0.85650  1.0000 -0.0909348792
C   C104      1.0  0.79300  0.10740  0.85650  1.0000 -0.0909348792
C   C105      1.0  0.77130  0.45350  0.20580  1.0000 0.0719181123
C   C106      1.0  0.04650  0.27130  0.70580  1.0000 0.0719181123
C   C107      1.0  0.22870  0.54650  0.20580  1.0000 0.0719181123
C   C108      1.0  0.95350  0.72870  0.70580  1.0000 0.0719181123
C   C109      1.0  0.27130  0.04650  0.29420  1.0000 0.0719181123
C   C110      1.0  0.72870  0.95350  0.29420  1.0000 0.0719181123
C   C111      1.0  0.45350  0.77130  0.79420  1.0000 0.0719181123
C   C112      1.0  0.54650  0.22870  0.79420  1.0000 0.0719181123
C   C113      1.0  0.66250  0.45200  0.30780  1.0000 -0.0591323547
C   C114      1.0  0.04800  0.16250  0.80780  1.0000 -0.0591323547
C   C115      1.0  0.33750  0.54800  0.30780  1.0000 -0.0591323547
C   C116      1.0  0.95200  0.83750  0.80780  1.0000 -0.0591323547
C   C117      1.0  0.16250  0.04800  0.19220  1.0000 -0.0591323547
C   C118      1.0  0.83750  0.95200  0.19220  1.0000 -0.0591323547
C   C119      1.0  0.45200  0.66250  0.69220  1.0000 -0.0591323547
C   C120      1.0  0.54800  0.33750  0.69220  1.0000 -0.0591323547
C   C121      1.0  0.98370  0.28010  0.12050  1.0000 -0.0980811329
C   C122      1.0  0.21990  0.48370  0.62050  1.0000 -0.0980811329
C   C123      1.0  0.01630  0.71990  0.12050  1.0000 -0.0980811329
C   C124      1.0  0.78010  0.51630  0.62050  1.0000 -0.0980811329
C   C125      1.0  0.48370  0.21990  0.37950  1.0000 -0.0980811329
C   C126      1.0  0.51630  0.78010  0.37950  1.0000 -0.0980811329
C   C127      1.0  0.28010  0.98370  0.87950  1.0000 -0.0980811329
C   C128      1.0  0.71990  0.01630  0.87950  1.0000 -0.0980811329
C   C129      1.0  0.72460  0.41740  0.30380  1.0000 -0.0909348792
C   C130      1.0  0.08260  0.22460  0.80380  1.0000 -0.0909348792
C   C131      1.0  0.27540  0.58260  0.30380  1.0000 -0.0909348792
C   C132      1.0  0.91740  0.77540  0.80380  1.0000 -0.0909348792
C   C133      1.0  0.22460  0.08260  0.19620  1.0000 -0.0909348792
C   C134      1.0  0.77540  0.91740  0.19620  1.0000 -0.0909348792
C   C135      1.0  0.41740  0.72460  0.69620  1.0000 -0.0909348792
C   C136      1.0  0.58260  0.27540  0.69620  1.0000 -0.0909348792
C   C137      1.0  0.76080  0.41780  0.27110  1.0000 -0.155855067
C   C138      1.0  0.08220  0.26080  0.77110  1.0000 -0.155855067
C   C139      1.0  0.23920  0.58220  0.27110  1.0000 -0.155855067
C   C140      1.0  0.91780  0.73920  0.77110  1.0000 -0.155855067
C   C141      1.0  0.26080  0.08220  0.22890  1.0000 -0.155855067
C   C142      1.0  0.73920  0.91780  0.22890  1.0000 -0.155855067
C   C143      1.0  0.41780  0.76080  0.72890  1.0000 -0.155855067
C   C144      1.0  0.58220  0.23920  0.72890  1.0000 -0.155855067
C   C145      1.0  0.88200  0.33360  0.14840  1.0000 0.0633205316
C   C146      1.0  0.16640  0.38200  0.64840  1.0000 0.0633205316
C   C147      1.0  0.11800  0.66640  0.14840  1.0000 0.0633205316
C   C148      1.0  0.83360  0.61800  0.64840  1.0000 0.0633205316
C   C149      1.0  0.38200  0.16640  0.35160  1.0000 0.0633205316
C   C150      1.0  0.61800  0.83360  0.35160  1.0000 0.0633205316
C   C151      1.0  0.33360  0.88200  0.85160  1.0000 0.0633205316
C   C152      1.0  0.66640  0.11800  0.85160  1.0000 0.0633205316
C   C153      1.0  0.66940  0.48830  0.24420  1.0000 -0.155855067
C   C154      1.0  0.01170  0.16940  0.74420  1.0000 -0.155855067
C   C155      1.0  0.33060  0.51170  0.24420  1.0000 -0.155855067
C   C156      1.0  0.98830  0.83060  0.74420  1.0000 -0.155855067
C   C157      1.0  0.16940  0.01170  0.25580  1.0000 -0.155855067
C   C158      1.0  0.83060  0.98830  0.25580  1.0000 -0.155855067
C   C159      1.0  0.48830  0.66940  0.75580  1.0000 -0.155855067
C   C160      1.0  0.51170  0.33060  0.75580  1.0000 -0.155855067
C   C161      1.0  0.77090  0.51220  0.18380  1.0000 -0.1949253082
C   C162      1.0  0.98780  0.27090  0.68380  1.0000 -0.1949253082
C   C163      1.0  0.22910  0.48780  0.18380  1.0000 -0.1949253082
C   C164      1.0  0.01220  0.72910  0.68380  1.0000 -0.1949253082
C   C165      1.0  0.27090  0.98780  0.31620  1.0000 -0.1949253082
C   C166      1.0  0.72910  0.01220  0.31620  1.0000 -0.1949253082
C   C167      1.0  0.51220  0.77090  0.81620  1.0000 -0.1949253082
C   C168      1.0  0.48780  0.22910  0.81620  1.0000 -0.1949253082
C   C169      1.0  0.94660  0.33800  0.13110  1.0000 -0.1408586055
C   C170      1.0  0.16200  0.44660  0.63110  1.0000 -0.1408586055
C   C171      1.0  0.05340  0.66200  0.13110  1.0000 -0.1408586055
C   C172      1.0  0.83800  0.55340  0.63110  1.0000 -0.1408586055
C   C173      1.0  0.44660  0.16200  0.36890  1.0000 -0.1408586055
C   C174      1.0  0.55340  0.83800  0.36890  1.0000 -0.1408586055
C   C175      1.0  0.33800  0.94660  0.86890  1.0000 -0.1408586055
C   C176      1.0  0.66200  0.05340  0.86890  1.0000 -0.1408586055
C   C177      1.0  0.84460  0.39500  0.16060  1.0000 0.0764259585
C   C178      1.0  0.10500  0.34460  0.66060  1.0000 0.0764259585
C   C179      1.0  0.15540  0.60500  0.16060  1.0000 0.0764259585
C   C180      1.0  0.89500  0.65540  0.66060  1.0000 0.0764259585
C   C181      1.0  0.34460  0.10500  0.33940  1.0000 0.0764259585
C   C182      1.0  0.65540  0.89500  0.33940  1.0000 0.0764259585
C   C183      1.0  0.39500  0.84460  0.83940  1.0000 0.0764259585
C   C184      1.0  0.60500  0.15540  0.83940  1.0000 0.0764259585
C   C185      1.0  0.85460  0.26570  0.15280  1.0000 -0.1408586055
C   C186      1.0  0.23430  0.35460  0.65280  1.0000 -0.1408586055
C   C187      1.0  0.14540  0.73430  0.15280  1.0000 -0.1408586055
C   C188      1.0  0.76570  0.64540  0.65280  1.0000 -0.1408586055
C   C189      1.0  0.35460  0.23430  0.34720  1.0000 -0.1408586055
C   C190      1.0  0.64540  0.76570  0.34720  1.0000 -0.1408586055
C   C191      1.0  0.26570  0.85460  0.84720  1.0000 -0.1408586055
C   C192      1.0  0.73430  0.14540  0.84720  1.0000 -0.1408586055
C   C193      1.0  0.80830  0.51560  0.15100  1.0000 0.0719181123
C   C194      1.0  0.98440  0.30830  0.65100  1.0000 0.0719181123
C   C195      1.0  0.19170  0.48440  0.15100  1.0000 0.0719181123
C   C196      1.0  0.01560  0.69170  0.65100  1.0000 0.0719181123
C   C197      1.0  0.30830  0.98440  0.34900  1.0000 0.0719181123
C   C198      1.0  0.69170  0.01560  0.34900  1.0000 0.0719181123
C   C199      1.0  0.51560  0.80830  0.84900  1.0000 0.0719181123
C   C200      1.0  0.48440  0.19170  0.84900  1.0000 0.0719181123
C   C201      1.0  0.84110  0.45580  0.13910  1.0000 -0.2011528816
C   C202      1.0  0.04420  0.34110  0.63910  1.0000 -0.2011528816
C   C203      1.0  0.15890  0.54420  0.13910  1.0000 -0.2011528816
C   C204      1.0  0.95580  0.65890  0.63910  1.0000 -0.2011528816
C   C205      1.0  0.34110  0.04420  0.36090  1.0000 -0.2011528816
C   C206      1.0  0.65890  0.95580  0.36090  1.0000 -0.2011528816
C   C207      1.0  0.45580  0.84110  0.86090  1.0000 -0.2011528816
C   C208      1.0  0.54420  0.15890  0.86090  1.0000 -0.2011528816
C   C209      1.0  0.80920  0.39650  0.19430  1.0000 -0.2011528816
C   C210      1.0  0.10350  0.30920  0.69430  1.0000 -0.2011528816
C   C211      1.0  0.19080  0.60350  0.19430  1.0000 -0.2011528816
C   C212      1.0  0.89650  0.69080  0.69430  1.0000 -0.2011528816
C   C213      1.0  0.30920  0.10350  0.30570  1.0000 -0.2011528816
C   C214      1.0  0.69080  0.89650  0.30570  1.0000 -0.2011528816
C   C215      1.0  0.39650  0.80920  0.80570  1.0000 -0.2011528816
C   C216      1.0  0.60350  0.19080  0.80570  1.0000 -0.2011528816
C   C217      1.0  0.74660  0.43780  0.45740  1.0000 0.6306285163
C   C218      1.0  0.06220  0.24660  0.95740  1.0000 0.6306285163
C   C219      1.0  0.25340  0.56220  0.45740  1.0000 0.6306285163
C   C220      1.0  0.93780  0.75340  0.95740  1.0000 0.6306285163
C   C221      1.0  0.24660  0.06220  0.04260  1.0000 0.6306285163
C   C222      1.0  0.75340  0.93780  0.04260  1.0000 0.6306285163
C   C223      1.0  0.43780  0.74660  0.54260  1.0000 0.6306285163
C   C224      1.0  0.56220  0.25340  0.54260  1.0000 0.6306285163
C   C225      1.0  0.84810  0.48930  0.42530  1.0000 -0.0909348792
C   C226      1.0  0.01070  0.34810  0.92530  1.0000 -0.0909348792
C   C227      1.0  0.15190  0.51070  0.42530  1.0000 -0.0909348792
C   C228      1.0  0.98930  0.65190  0.92530  1.0000 -0.0909348792
C   C229      1.0  0.34810  0.01070  0.07470  1.0000 -0.0909348792
C   C230      1.0  0.65190  0.98930  0.07470  1.0000 -0.0909348792
C   C231      1.0  0.48930  0.84810  0.57470  1.0000 -0.0909348792
C   C232      1.0  0.51070  0.15190  0.57470  1.0000 -0.0909348792
C   C233      1.0  0.82000  0.46030  0.45490  1.0000 -0.0591323547
C   C234      1.0  0.03970  0.32000  0.95490  1.0000 -0.0591323547
C   C235      1.0  0.18000  0.53970  0.45490  1.0000 -0.0591323547
C   C236      1.0  0.96030  0.68000  0.95490  1.0000 -0.0591323547
C   C237      1.0  0.32000  0.03970  0.04510  1.0000 -0.0591323547
C   C238      1.0  0.68000  0.96030  0.04510  1.0000 -0.0591323547
C   C239      1.0  0.46030  0.82000  0.54510  1.0000 -0.0591323547
C   C240      1.0  0.53970  0.18000  0.54510  1.0000 -0.0591323547
C   C241      1.0  0.91960  0.50730  0.42410  1.0000 -0.1522590567
C   C242      1.0  0.99270  0.41960  0.92410  1.0000 -0.1522590567
C   C243      1.0  0.08040  0.49270  0.42410  1.0000 -0.1522590567
C   C244      1.0  0.00730  0.58040  0.92410  1.0000 -0.1522590567
C   C245      1.0  0.41960  0.99270  0.07590  1.0000 -0.1522590567
C   C246      1.0  0.58040  0.00730  0.07590  1.0000 -0.1522590567
C   C247      1.0  0.50730  0.91960  0.57590  1.0000 -0.1522590567
C   C248      1.0  0.49270  0.08040  0.57590  1.0000 -0.1522590567
C   C249      1.0  0.86450  0.44550  0.48570  1.0000 -0.0909348792
C   C250      1.0  0.05450  0.36450  0.98570  1.0000 -0.0909348792
C   C251      1.0  0.13550  0.55450  0.48570  1.0000 -0.0909348792
C   C252      1.0  0.94550  0.63550  0.98570  1.0000 -0.0909348792
C   C253      1.0  0.36450  0.05450  0.01430  1.0000 -0.0909348792
C   C254      1.0  0.63550  0.94550  0.01430  1.0000 -0.0909348792
C   C255      1.0  0.44550  0.86450  0.51430  1.0000 -0.0909348792
C   C256      1.0  0.55450  0.13550  0.51430  1.0000 -0.0909348792
C   C257      1.0  0.96050  0.49200  0.45440  1.0000 0.0764259585
C   C258      1.0  0.00800  0.46050  0.95440  1.0000 0.0764259585
C   C259      1.0  0.03950  0.50800  0.45440  1.0000 0.0764259585
C   C260      1.0  0.99200  0.53950  0.95440  1.0000 0.0764259585
C   C261      1.0  0.46050  0.00800  0.04560  1.0000 0.0764259585
C   C262      1.0  0.53950  0.99200  0.04560  1.0000 0.0764259585
C   C263      1.0  0.49200  0.96050  0.54560  1.0000 0.0764259585
C   C264      1.0  0.50800  0.03950  0.54560  1.0000 0.0764259585
C   C265      1.0  0.93220  0.46420  0.48400  1.0000 -0.1349113136
C   C266      1.0  0.03580  0.43220  0.98400  1.0000 -0.1349113136
C   C267      1.0  0.06780  0.53580  0.48400  1.0000 -0.1349113136
C   C268      1.0  0.96420  0.56780  0.98400  1.0000 -0.1349113136
C   C269      1.0  0.43220  0.03580  0.01600  1.0000 -0.1349113136
C   C270      1.0  0.56780  0.96420  0.01600  1.0000 -0.1349113136
C   C271      1.0  0.46420  0.93220  0.51600  1.0000 -0.1349113136
C   C272      1.0  0.53580  0.06780  0.51600  1.0000 -0.1408586055
O   O1        1.0  0.56630  0.47770  0.41700  1.0000 -1.0129190832
O   O2        1.0  0.02230  0.06630  0.91700  1.0000 -1.0129190832
O   O3        1.0  0.43370  0.52230  0.41700  1.0000 -1.0129190832
O   O4        1.0  0.97770  0.93370  0.91700  1.0000 -1.0129190832
O   O5        1.0  0.06630  0.02230  0.08300  1.0000 -1.0129190832
O   O6        1.0  0.93370  0.97770  0.08300  1.0000 -1.0129190832
O   O7        1.0  0.47770  0.56630  0.58300  1.0000 -1.0129190832
O   O8        1.0  0.52230  0.43370  0.58300  1.0000 -1.0129190832
O   O9        1.0  0.65390  0.42270  0.36893  1.0000 -0.5621299098
O   O10       1.0  0.07730  0.15390  0.86893  1.0000 -0.5621299098
O   O11       1.0  0.34610  0.57730  0.36893  1.0000 -0.5621299098
O   O12       1.0  0.92270  0.84610  0.86893  1.0000 -0.5621299098
O   O13       1.0  0.15390  0.07730  0.13107  1.0000 -0.5621299098
O   O14       1.0  0.84610  0.92270  0.13107  1.0000 -0.5621299098
O   O15       1.0  0.42270  0.65390  0.63107  1.0000 -0.5621299098
O   O16       1.0  0.57730  0.34610  0.63107  1.0000 -0.5621299098
O   O17       1.0  0.60180  0.37530  0.46421  1.0000 -1.0014200061
O   O18       1.0  0.12470  0.10180  0.96421  1.0000 -1.0014200061
O   O19       1.0  0.39820  0.62470  0.46421  1.0000 -1.0014200061
O   O20       1.0  0.87530  0.89820  0.96421  1.0000 -1.0014200061
O   O21       1.0  0.10180  0.12470  0.03579  1.0000 -1.0014200061
O   O22       1.0  0.89820  0.87530  0.03579  1.0000 -1.0014200061
O   O23       1.0  0.37530  0.60180  0.53579  1.0000 -1.0014200061
O   O24       1.0  0.62470  0.39820  0.53579  1.0000 -1.0014200061
O   O25       1.0  0.56410  0.47890  0.34362  1.0000 -0.5919746309
O   O26       1.0  0.02110  0.06410  0.84362  1.0000 -0.5919746309
O   O27       1.0  0.43590  0.52110  0.34362  1.0000 -0.5919746309
O   O28       1.0  0.97890  0.93590  0.84362  1.0000 -0.5919746309
O   O29       1.0  0.06410  0.02110  0.15638  1.0000 -0.5919746309
O   O30       1.0  0.93590  0.97890  0.15638  1.0000 -0.5919746309
O   O31       1.0  0.47890  0.56410  0.65638  1.0000 -0.5919746309
O   O32       1.0  0.52110  0.43590  0.65638  1.0000 -0.5919746309
O   O33       1.0  0.81380  0.82480  0.08635  1.0000 -0.5919746309
O   O34       1.0  0.67520  0.31380  0.58635  1.0000 -0.5919746309
O   O35       1.0  0.18620  0.17520  0.08635  1.0000 -0.5919746309
O   O36       1.0  0.32480  0.68620  0.58635  1.0000 -0.5919746309
O   O37       1.0  0.31380  0.67520  0.41365  1.0000 -0.5919746309
O   O38       1.0  0.68620  0.32480  0.41365  1.0000 -0.5919746309
O   O39       1.0  0.82480  0.81380  0.91365  1.0000 -0.5919746309
O   O40       1.0  0.17520  0.18620  0.91365  1.0000 -0.5919746309
O   O41       1.0  0.73050  0.40160  0.48539  1.0000 -0.6056493222
O   O42       1.0  0.09840  0.23050  0.98539  1.0000 -0.6056493222
O   O43       1.0  0.26950  0.59840  0.48539  1.0000 -0.6056493222
O   O44       1.0  0.90160  0.76950  0.98539  1.0000 -0.6056493222
O   O45       1.0  0.23050  0.09840  0.01461  1.0000 -0.6056493222
O   O46       1.0  0.76950  0.90160  0.01461  1.0000 -0.6056493222
O   O47       1.0  0.40160  0.73050  0.51461  1.0000 -0.6056493222
O   O48       1.0  0.59840  0.26950  0.51461  1.0000 -0.6056493222
O   O49       1.0  0.05510  0.15960  0.10199  1.0000 -0.5919746309
O   O50       1.0  0.34040  0.55510  0.60199  1.0000 -0.5919746309
O   O51       1.0  0.94490  0.84040  0.10199  1.0000 -0.5919746309
O   O52       1.0  0.65960  0.44490  0.60199  1.0000 -0.5919746309
O   O53       1.0  0.55510  0.34040  0.39801  1.0000 -0.5919746309
O   O54       1.0  0.44490  0.65960  0.39801  1.0000 -0.5919746309
O   O55       1.0  0.15960  0.05510  0.89801  1.0000 -0.5919746309
O   O56       1.0  0.84040  0.94490  0.89801  1.0000 -0.5919746309
O   O57       1.0  0.96610  0.09250  0.12067  1.0000 -0.5919746309
O   O58       1.0  0.40750  0.46610  0.62067  1.0000 -0.5919746309
O   O59       1.0  0.03390  0.90750  0.12067  1.0000 -0.5919746309
O   O60       1.0  0.59250  0.53390  0.62067  1.0000 -0.5919746309
O   O61       1.0  0.46610  0.40750  0.37933  1.0000 -0.5919746309
O   O62       1.0  0.53390  0.59250  0.37933  1.0000 -0.5919746309
O   O63       1.0  0.09250  0.96610  0.87933  1.0000 -0.5919746309
O   O64       1.0  0.90750  0.03390  0.87933  1.0000 -0.5919746309
O   O65       1.0  0.70520  0.45560  0.43315  1.0000 -0.5621299098
O   O66       1.0  0.04440  0.20520  0.93315  1.0000 -0.5621299098
O   O67       1.0  0.29480  0.54440  0.43315  1.0000 -0.5621299098
O   O68       1.0  0.95560  0.79480  0.93315  1.0000 -0.5621299098
O   O69       1.0  0.20520  0.04440  0.06685  1.0000 -0.5621299098
O   O70       1.0  0.79480  0.95560  0.06685  1.0000 -0.5621299098
O   O71       1.0  0.45560  0.70520  0.56685  1.0000 -0.5621299098
O   O72       1.0  0.54440  0.29480  0.56685  1.0000 -0.5621299098
O   O73       1.0  0.80670  0.76880  0.03297  1.0000 -0.5621299098
O   O74       1.0  0.73120  0.30670  0.53297  1.0000 -0.5621299098
O   O75       1.0  0.19330  0.23120  0.03297  1.0000 -0.5621299098
O   O76       1.0  0.26880  0.69330  0.53297  1.0000 -0.5621299098
O   O77       1.0  0.30670  0.73120  0.46703  1.0000 -0.5621299098
O   O78       1.0  0.69330  0.26880  0.46703  1.0000 -0.5621299098
O   O79       1.0  0.76880  0.80670  0.96703  1.0000 -0.5621299098
O   O80       1.0  0.23120  0.19330  0.96703  1.0000 -0.5621299098
