# DDEC6 charges by PACMAN v1.1 (https://github.com/mtap-research/PACMAN-charge/)
data_ja9b10501_si_017_ASR_pacman
_symmetry_space_group_name_H-M   'P 1'
_cell_length_a   18.69860000
_cell_length_b   18.69860000
_cell_length_c   37.20100000
_cell_angle_alpha   90.00000000
_cell_angle_beta   90.00000000
_cell_angle_gamma   90.00000000
_symmetry_Int_Tables_number   1
_chemical_formula_structural   Al16H172.16C244.8S4.16O80
_chemical_formula_sum   'Al16 H172.16 C244.8 S4.16 O80'
_cell_volume   13006.86991855
_cell_formula_units_Z   1
loop_
 _symmetry_equiv_pos_site_id
 _symmetry_equiv_pos_as_xyz
  1  'x, y, z'
loop_
 _atom_site_type_symbol
 _atom_site_label
 _atom_site_symmetry_multiplicity
 _atom_site_fract_x
 _atom_site_fract_y
 _atom_site_fract_z
 _atom_site_occupancy
 _atom_site_charge
Al  Al1  1  0.09280000  0.86645000  0.91907000  1.0 1.5592852852
Al  Al2  1  0.90720000  0.13355000  0.91907000  1.0 1.5592852852
Al  Al3  1  0.63355000  0.59280000  0.41907000  1.0 1.5592852852
Al  Al4  1  0.36645000  0.40720000  0.41907000  1.0 1.5592852852
Al  Al5  1  0.40720000  0.36645000  0.58093000  1.0 1.5592852852
Al  Al6  1  0.59280000  0.63355000  0.58093000  1.0 1.5592852852
Al  Al7  1  0.86645000  0.09280000  0.08093000  1.0 1.5592852852
Al  Al8  1  0.13355000  0.90720000  0.08093000  1.0 1.5592852852
Al  Al9  1  0.16441000  0.83559000  0.00000000  1.0 1.5092623106
Al  Al10  1  0.83559000  0.16441000  0.00000000  1.0 1.5092623106
Al  Al11  1  0.66441000  0.66441000  0.50000000  1.0 1.5092623106
Al  Al12  1  0.33559000  0.33559000  0.50000000  1.0 1.5092623106
Al  Al13  1  0.00000000  0.00000000  0.88507000  1.0 1.6369090549
Al  Al14  1  0.50000000  0.50000000  0.38507000  1.0 1.6369090549
Al  Al15  1  0.50000000  0.50000000  0.61493000  1.0 1.6369090549
Al  Al16  1  0.00000000  0.00000000  0.11493000  1.0 1.6369090549
H  H1  1  0.98971000  0.93013000  0.93934000  1.0 0.3981866708
H  H2  1  0.11719000  0.93982000  0.97048000  1.0 0.3896491474
H  H3  1  0.09931000  0.74595000  0.82713000  1.0 0.1268234223
H  H4  1  0.74091000  0.70783000  0.63688000  1.0 0.1192375236
H  H5  1  0.86191000  0.70310000  0.54729000  1.0 0.1192375236
H  H6  1  0.10759000  0.69410000  0.76844000  1.0 0.1100977216
H  H7  1  0.84636000  0.70684000  0.67191000  1.0 0.1100977216
H  H8  1  0.04273000  0.63639000  0.61863000  1.0 0.1192375236
H  H9  1  0.98534000  0.90900000  0.78398000  1.0 0.1268234223
H  H10  1  0.96523000  0.70051000  0.58289000  1.0 0.1100977216
H  H11  1  0.20826000  0.46006000  0.61035000  1.0 0.1192375236
H  H12  1  0.13957000  0.68019000  0.71134000  1.0 0.1100977216
H  H13  1  0.94386000  0.76016000  0.69579000  1.0 0.1100977216
H  H14  1  0.33541000  0.61757000  0.64893000  1.0 0.1268234223
H  H15  1  0.10680000  0.52649000  0.62992000  1.0 0.1192375236
H  H16  1  0.98708000  0.85217000  0.72813000  1.0 0.1100977216
H  H17  1  0.23979000  0.68744000  0.66442000  1.0 0.1192375236
H  H18  1  0.01029000  0.06987000  0.93934000  1.0 0.3981866708
H  H19  1  0.88281000  0.06018000  0.97048000  1.0 0.3896491474
H  H20  1  0.90069000  0.25405000  0.82713000  1.0 0.1268234223
H  H21  1  0.25909000  0.29217000  0.63688000  1.0 0.1192375236
H  H22  1  0.13809000  0.29690000  0.54729000  1.0 0.1192375236
H  H23  1  0.89241000  0.30590000  0.76844000  1.0 0.1100977216
H  H24  1  0.15364000  0.29316000  0.67191000  1.0 0.1100977216
H  H25  1  0.95727000  0.36361000  0.61863000  1.0 0.1192375236
H  H26  1  0.01466000  0.09100000  0.78398000  1.0 0.1268234223
H  H27  1  0.03477000  0.29949000  0.58289000  1.0 0.1100977216
H  H28  1  0.79174000  0.53994000  0.61035000  1.0 0.1192375236
H  H29  1  0.86043000  0.31981000  0.71134000  1.0 0.1100977216
H  H30  1  0.05614000  0.23984000  0.69579000  1.0 0.1100977216
H  H31  1  0.66459000  0.38243000  0.64893000  1.0 0.1268234223
H  H32  1  0.89320000  0.47351000  0.62992000  1.0 0.1192375236
H  H33  1  0.01292000  0.14783000  0.72813000  1.0 0.1100977216
H  H34  1  0.76021000  0.31256000  0.66442000  1.0 0.1192375236
H  H35  1  0.56987000  0.48971000  0.43934000  1.0 0.3981866708
H  H36  1  0.56018000  0.61719000  0.47048000  1.0 0.3896491474
H  H37  1  0.75405000  0.59931000  0.32713000  1.0 0.1268234223
H  H38  1  0.79217000  0.24091000  0.13688000  1.0 0.1192375236
H  H39  1  0.79690000  0.36191000  0.04729000  1.0 0.1192375236
H  H40  1  0.80590000  0.60759000  0.26844000  1.0 0.1100977216
H  H41  1  0.79316000  0.34636000  0.17191000  1.0 0.1100977216
H  H42  1  0.86361000  0.54273000  0.11863000  1.0 0.1192375236
H  H43  1  0.59100000  0.48534000  0.28398000  1.0 0.1268234223
H  H44  1  0.79949000  0.46523000  0.08289000  1.0 0.1100977216
H  H45  1  0.03994000  0.70826000  0.11035000  1.0 0.1192375236
H  H46  1  0.81981000  0.63957000  0.21134000  1.0 0.1100977216
H  H47  1  0.73984000  0.44386000  0.19579000  1.0 0.1100977216
H  H48  1  0.88243000  0.83541000  0.14893000  1.0 0.1268234223
H  H49  1  0.97351000  0.60680000  0.12992000  1.0 0.1192375236
H  H50  1  0.64783000  0.48708000  0.22813000  1.0 0.1100977216
H  H51  1  0.81256000  0.73979000  0.16442000  1.0 0.1192375236
H  H52  1  0.43013000  0.51029000  0.43934000  1.0 0.3981866708
H  H53  1  0.43982000  0.38281000  0.47048000  1.0 0.3896491474
H  H54  1  0.24595000  0.40069000  0.32713000  1.0 0.1268234223
H  H55  1  0.20783000  0.75909000  0.13688000  1.0 0.1192375236
H  H56  1  0.20310000  0.63809000  0.04729000  1.0 0.1192375236
H  H57  1  0.19410000  0.39241000  0.26844000  1.0 0.1100977216
H  H58  1  0.20684000  0.65364000  0.17191000  1.0 0.1100977216
H  H59  1  0.13639000  0.45727000  0.11863000  1.0 0.1192375236
H  H60  1  0.40900000  0.51466000  0.28398000  1.0 0.1268234223
H  H61  1  0.20051000  0.53477000  0.08289000  1.0 0.1100977216
H  H62  1  0.96006000  0.29174000  0.11035000  1.0 0.1192375236
H  H63  1  0.18019000  0.36043000  0.21134000  1.0 0.1100977216
H  H64  1  0.26016000  0.55614000  0.19579000  1.0 0.1100977216
H  H65  1  0.11757000  0.16459000  0.14893000  1.0 0.1268234223
H  H66  1  0.02649000  0.39320000  0.12992000  1.0 0.1192375236
H  H67  1  0.35217000  0.51292000  0.22813000  1.0 0.1100977216
H  H68  1  0.18744000  0.26021000  0.16442000  1.0 0.1192375236
H  H69  1  0.51029000  0.43013000  0.56066000  1.0 0.3981866708
H  H70  1  0.38281000  0.43982000  0.52952000  1.0 0.3896491474
H  H71  1  0.40069000  0.24595000  0.67287000  1.0 0.1268234223
H  H72  1  0.75909000  0.20783000  0.86312000  1.0 0.1192375236
H  H73  1  0.63809000  0.20310000  0.95271000  1.0 0.1192375236
H  H74  1  0.39241000  0.19410000  0.73156000  1.0 0.1100977216
H  H75  1  0.65364000  0.20684000  0.82809000  1.0 0.1100977216
H  H76  1  0.45727000  0.13639000  0.88137000  1.0 0.1192375236
H  H77  1  0.51466000  0.40900000  0.71602000  1.0 0.1268234223
H  H78  1  0.53477000  0.20051000  0.91711000  1.0 0.1100977216
H  H79  1  0.29174000  0.96006000  0.88965000  1.0 0.1192375236
H  H80  1  0.36043000  0.18019000  0.78866000  1.0 0.1100977216
H  H81  1  0.55614000  0.26016000  0.80421000  1.0 0.1100977216
H  H82  1  0.16459000  0.11757000  0.85107000  1.0 0.1268234223
H  H83  1  0.39320000  0.02649000  0.87008000  1.0 0.1192375236
H  H84  1  0.51292000  0.35217000  0.77187000  1.0 0.1100977216
H  H85  1  0.26021000  0.18744000  0.83558000  1.0 0.1192375236
H  H86  1  0.48971000  0.56987000  0.56066000  1.0 0.3981866708
H  H87  1  0.61719000  0.56018000  0.52952000  1.0 0.3896491474
H  H88  1  0.59931000  0.75405000  0.67287000  1.0 0.1268234223
H  H89  1  0.24091000  0.79217000  0.86312000  1.0 0.1192375236
H  H90  1  0.36191000  0.79690000  0.95271000  1.0 0.1192375236
H  H91  1  0.60759000  0.80590000  0.73156000  1.0 0.1100977216
H  H92  1  0.34636000  0.79316000  0.82809000  1.0 0.1100977216
H  H93  1  0.54273000  0.86361000  0.88137000  1.0 0.1192375236
H  H94  1  0.48534000  0.59100000  0.71602000  1.0 0.1268234223
H  H95  1  0.46523000  0.79949000  0.91711000  1.0 0.1100977216
H  H96  1  0.70826000  0.03994000  0.88965000  1.0 0.1192375236
H  H97  1  0.63957000  0.81981000  0.78866000  1.0 0.1100977216
H  H98  1  0.44386000  0.73984000  0.80421000  1.0 0.1100977216
H  H99  1  0.83541000  0.88243000  0.85107000  1.0 0.1268234223
H  H100  1  0.60680000  0.97351000  0.87008000  1.0 0.1192375236
H  H101  1  0.48708000  0.64783000  0.77187000  1.0 0.1100977216
H  H102  1  0.73979000  0.81256000  0.83558000  1.0 0.1192375236
H  H103  1  0.93013000  0.98971000  0.06066000  1.0 0.3981866708
H  H104  1  0.93982000  0.11719000  0.02952000  1.0 0.3896491474
H  H105  1  0.74595000  0.09931000  0.17287000  1.0 0.1268234223
H  H106  1  0.70783000  0.74091000  0.36312000  1.0 0.1192375236
H  H107  1  0.70310000  0.86191000  0.45271000  1.0 0.1192375236
H  H108  1  0.69410000  0.10759000  0.23156000  1.0 0.1100977216
H  H109  1  0.70684000  0.84636000  0.32809000  1.0 0.1100977216
H  H110  1  0.63639000  0.04273000  0.38137000  1.0 0.1192375236
H  H111  1  0.90900000  0.98534000  0.21602000  1.0 0.1268234223
H  H112  1  0.70051000  0.96523000  0.41711000  1.0 0.1100977216
H  H113  1  0.46006000  0.20826000  0.38965000  1.0 0.1192375236
H  H114  1  0.68019000  0.13957000  0.28866000  1.0 0.1100977216
H  H115  1  0.76016000  0.94386000  0.30421000  1.0 0.1100977216
H  H116  1  0.61757000  0.33541000  0.35107000  1.0 0.1268234223
H  H117  1  0.52649000  0.10680000  0.37008000  1.0 0.1192375236
H  H118  1  0.85217000  0.98708000  0.27187000  1.0 0.1100977216
H  H119  1  0.68744000  0.23979000  0.33558000  1.0 0.1192375236
H  H120  1  0.06987000  0.01029000  0.06066000  1.0 0.3981866708
H  H121  1  0.06018000  0.88281000  0.02952000  1.0 0.3896491474
H  H122  1  0.25405000  0.90069000  0.17287000  1.0 0.1268234223
H  H123  1  0.29217000  0.25909000  0.36312000  1.0 0.1192375236
H  H124  1  0.29690000  0.13809000  0.45271000  1.0 0.1192375236
H  H125  1  0.30590000  0.89241000  0.23156000  1.0 0.1100977216
H  H126  1  0.29316000  0.15364000  0.32809000  1.0 0.1100977216
H  H127  1  0.36361000  0.95727000  0.38137000  1.0 0.1192375236
H  H128  1  0.09100000  0.01466000  0.21602000  1.0 0.1268234223
H  H129  1  0.29949000  0.03477000  0.41711000  1.0 0.1100977216
H  H130  1  0.53994000  0.79174000  0.38965000  1.0 0.1192375236
H  H131  1  0.31981000  0.86043000  0.28866000  1.0 0.1100977216
H  H132  1  0.23984000  0.05614000  0.30421000  1.0 0.1100977216
H  H133  1  0.38243000  0.66459000  0.35107000  1.0 0.1268234223
H  H134  1  0.47351000  0.89320000  0.37008000  1.0 0.1192375236
H  H135  1  0.14783000  0.01292000  0.27187000  1.0 0.1100977216
H  H136  1  0.31256000  0.76021000  0.33558000  1.0 0.1192375236
H  H137  1  0.98676000  0.79005000  0.04137000  0.29 0.1100977216
H  H138  1  0.94679000  0.72121000  0.02598000  0.29 0.0585573926
H  H139  1  0.91018000  0.85206000  0.94525000  0.29 0.1100977216
H  H140  1  0.88741000  0.77007000  0.94839000  0.29 0.0585573926
H  H141  1  0.78630000  0.82635000  0.96460000  0.29 0.0891767417
H  H142  1  0.82786000  0.88858000  0.98530000  0.29 0.0815640285
H  H143  1  0.01324000  0.20995000  0.04137000  0.29 0.1100977216
H  H144  1  0.05321000  0.27879000  0.02598000  0.29 0.0585573926
H  H145  1  0.08982000  0.14794000  0.94525000  0.29 0.1100977216
H  H146  1  0.11259000  0.22993000  0.94839000  0.29 0.0585573926
H  H147  1  0.21370000  0.17365000  0.96460000  0.29 0.0891767417
H  H148  1  0.17214000  0.11142000  0.98530000  0.29 0.0815640285
H  H149  1  0.70995000  0.48676000  0.54137000  0.29 0.1100977216
H  H150  1  0.77879000  0.44679000  0.52598000  0.29 0.0585573926
H  H151  1  0.64794000  0.41018000  0.44525000  0.29 0.1100977216
H  H152  1  0.72993000  0.38741000  0.44839000  0.29 0.0585573926
H  H153  1  0.67365000  0.28630000  0.46460000  0.29 0.0891767417
H  H154  1  0.61142000  0.32786000  0.48530000  0.29 0.0815640285
H  H155  1  0.29005000  0.51324000  0.54137000  0.29 0.1100977216
H  H156  1  0.22121000  0.55321000  0.52598000  0.29 0.0585573926
H  H157  1  0.35206000  0.58982000  0.44525000  0.29 0.1100977216
H  H158  1  0.27007000  0.61259000  0.44839000  0.29 0.0585573926
H  H159  1  0.32635000  0.71370000  0.46460000  0.29 0.0891767417
H  H160  1  0.38858000  0.67214000  0.48530000  0.29 0.0815640285
H  H161  1  0.51324000  0.29005000  0.45863000  0.29 0.1100977216
H  H162  1  0.55321000  0.22121000  0.47402000  0.29 0.0585573926
H  H163  1  0.58982000  0.35206000  0.55475000  0.29 0.1100977216
H  H164  1  0.61259000  0.27007000  0.55161000  0.29 0.0585573926
H  H165  1  0.71370000  0.32635000  0.53540000  0.29 0.0891767417
H  H166  1  0.67214000  0.38858000  0.51470000  0.29 0.0815640285
H  H167  1  0.48676000  0.70995000  0.45863000  0.29 0.1100977216
H  H168  1  0.44679000  0.77879000  0.47402000  0.29 0.0585573926
H  H169  1  0.41018000  0.64794000  0.55475000  0.29 0.1100977216
H  H170  1  0.38741000  0.72993000  0.55161000  0.29 0.0585573926
H  H171  1  0.28630000  0.67365000  0.53540000  0.29 0.0891767417
H  H172  1  0.32786000  0.61142000  0.51470000  0.29 0.0815640285
H  H173  1  0.79005000  0.98676000  0.95863000  0.29 0.1100977216
H  H174  1  0.72121000  0.94679000  0.97402000  0.29 0.0585573926
H  H175  1  0.85206000  0.91018000  0.05475000  0.29 0.1100977216
H  H176  1  0.77007000  0.88741000  0.05161000  0.29 0.0585573926
H  H177  1  0.82635000  0.78630000  0.03540000  0.29 0.0891767417
H  H178  1  0.88858000  0.82786000  0.01470000  0.29 0.0815640285
H  H179  1  0.20995000  0.01324000  0.95863000  0.29 0.1100977216
H  H180  1  0.27879000  0.05321000  0.97402000  0.29 0.0585573926
H  H181  1  0.14794000  0.08982000  0.05475000  0.29 0.1100977216
H  H182  1  0.22993000  0.11259000  0.05161000  0.29 0.0585573926
H  H183  1  0.17365000  0.21370000  0.03540000  0.29 0.0891767417
H  H184  1  0.11142000  0.17214000  0.01470000  0.29 0.0815640285
H  H185  1  0.02535000  0.71048000  0.96638000  0.48 -0.0315519793
H  H186  1  0.97465000  0.28952000  0.96638000  0.48 -0.0315519793
H  H187  1  0.78952000  0.52535000  0.46638000  0.48 -0.0315519793
H  H188  1  0.21048000  0.47465000  0.46638000  0.48 -0.0315519793
H  H189  1  0.47465000  0.21048000  0.53362000  0.48 -0.0315519793
H  H190  1  0.52535000  0.78952000  0.53362000  0.48 -0.0315519793
H  H191  1  0.71048000  0.02535000  0.03362000  0.48 -0.0315519793
H  H192  1  0.28952000  0.97465000  0.03362000  0.48 -0.0315519793
H  H193  1  0.92857000  0.70676000  0.03501000  0.23 0.0815640285
H  H194  1  0.01155000  0.68815000  0.03845000  0.23 0.1005197815
H  H195  1  0.81891000  0.62364000  0.96618000  0.23 0.0891767417
H  H196  1  0.88588000  0.57479000  0.95499000  0.23 0.1005197815
H  H197  1  0.92998000  0.67859000  0.93605000  0.23 0.1005197815
H  H198  1  0.88130000  0.72424000  0.96287000  0.23 0.0585573926
H  H199  1  0.98545000  0.56306000  0.02550000  0.23 0.1100977216
H  H200  1  0.93652000  0.58879000  0.05920000  0.23 0.0891767417
H  H201  1  0.84763000  0.62618000  0.02277000  0.23 0.1005197815
H  H202  1  0.86447000  0.54657000  0.01179000  0.23 0.0891767417
H  H203  1  0.07143000  0.29324000  0.03501000  0.23 0.0815640285
H  H204  1  0.98845000  0.31185000  0.03845000  0.23 0.1005197815
H  H205  1  0.18109000  0.37636000  0.96618000  0.23 0.0891767417
H  H206  1  0.11412000  0.42521000  0.95499000  0.23 0.1005197815
H  H207  1  0.07002000  0.32141000  0.93605000  0.23 0.1005197815
H  H208  1  0.11870000  0.27576000  0.96287000  0.23 0.0585573926
H  H209  1  0.01455000  0.43694000  0.02550000  0.23 0.1100977216
H  H210  1  0.06348000  0.41121000  0.05920000  0.23 0.0891767417
H  H211  1  0.15237000  0.37382000  0.02277000  0.23 0.1005197815
H  H212  1  0.13553000  0.45343000  0.01179000  0.23 0.0891767417
H  H213  1  0.79324000  0.42857000  0.53501000  0.23 0.0815640285
H  H214  1  0.81185000  0.51155000  0.53845000  0.23 0.1005197815
H  H215  1  0.87636000  0.31891000  0.46618000  0.23 0.0891767417
H  H216  1  0.92521000  0.38588000  0.45499000  0.23 0.1005197815
H  H217  1  0.82141000  0.42998000  0.43605000  0.23 0.1005197815
H  H218  1  0.77576000  0.38130000  0.46287000  0.23 0.0585573926
H  H219  1  0.93694000  0.48545000  0.52550000  0.23 0.1100977216
H  H220  1  0.91121000  0.43652000  0.55920000  0.23 0.0891767417
H  H221  1  0.87382000  0.34763000  0.52277000  0.23 0.1005197815
H  H222  1  0.95343000  0.36447000  0.51179000  0.23 0.0891767417
H  H223  1  0.20676000  0.57143000  0.53501000  0.23 0.0815640285
H  H224  1  0.18815000  0.48845000  0.53845000  0.23 0.1005197815
H  H225  1  0.12364000  0.68109000  0.46618000  0.23 0.0891767417
H  H226  1  0.07479000  0.61412000  0.45499000  0.23 0.1005197815
H  H227  1  0.17859000  0.57002000  0.43605000  0.23 0.1005197815
H  H228  1  0.22424000  0.61870000  0.46287000  0.23 0.0585573926
H  H229  1  0.06306000  0.51455000  0.52550000  0.23 0.1100977216
H  H230  1  0.08879000  0.56348000  0.55920000  0.23 0.0891767417
H  H231  1  0.12618000  0.65237000  0.52277000  0.23 0.1005197815
H  H232  1  0.04657000  0.63553000  0.51179000  0.23 0.0891767417
H  H233  1  0.57143000  0.20676000  0.46499000  0.23 0.0815640285
H  H234  1  0.48845000  0.18815000  0.46155000  0.23 0.1005197815
H  H235  1  0.68109000  0.12364000  0.53382000  0.23 0.0891767417
H  H236  1  0.61412000  0.07479000  0.54501000  0.23 0.1005197815
H  H237  1  0.57002000  0.17859000  0.56395000  0.23 0.1005197815
H  H238  1  0.61870000  0.22424000  0.53713000  0.23 0.0585573926
H  H239  1  0.51455000  0.06306000  0.47450000  0.23 0.1100977216
H  H240  1  0.56348000  0.08879000  0.44080000  0.23 0.0891767417
H  H241  1  0.65237000  0.12618000  0.47723000  0.23 0.1005197815
H  H242  1  0.63553000  0.04657000  0.48821000  0.23 0.0891767417
H  H243  1  0.42857000  0.79324000  0.46499000  0.23 0.0815640285
H  H244  1  0.51155000  0.81185000  0.46155000  0.23 0.1005197815
H  H245  1  0.31891000  0.87636000  0.53382000  0.23 0.0891767417
H  H246  1  0.38588000  0.92521000  0.54501000  0.23 0.1005197815
H  H247  1  0.42998000  0.82141000  0.56395000  0.23 0.1005197815
H  H248  1  0.38130000  0.77576000  0.53713000  0.23 0.0585573926
H  H249  1  0.48545000  0.93694000  0.47450000  0.23 0.1100977216
H  H250  1  0.43652000  0.91121000  0.44080000  0.23 0.0891767417
H  H251  1  0.34763000  0.87382000  0.47723000  0.23 0.1005197815
H  H252  1  0.36447000  0.95343000  0.48821000  0.23 0.0891767417
H  H253  1  0.70676000  0.92857000  0.96499000  0.23 0.0815640285
H  H254  1  0.68815000  0.01155000  0.96155000  0.23 0.1005197815
H  H255  1  0.62364000  0.81891000  0.03382000  0.23 0.0891767417
H  H256  1  0.57479000  0.88588000  0.04501000  0.23 0.1005197815
H  H257  1  0.67859000  0.92998000  0.06395000  0.23 0.1005197815
H  H258  1  0.72424000  0.88130000  0.03713000  0.23 0.0585573926
H  H259  1  0.56306000  0.98545000  0.97450000  0.23 0.1100977216
H  H260  1  0.58879000  0.93652000  0.94080000  0.23 0.0891767417
H  H261  1  0.62618000  0.84763000  0.97723000  0.23 0.1005197815
H  H262  1  0.54657000  0.86447000  0.98821000  0.23 0.0891767417
H  H263  1  0.29324000  0.07143000  0.96499000  0.23 0.0815640285
H  H264  1  0.31185000  0.98845000  0.96155000  0.23 0.1005197815
H  H265  1  0.37636000  0.18109000  0.03382000  0.23 0.0891767417
H  H266  1  0.42521000  0.11412000  0.04501000  0.23 0.1005197815
H  H267  1  0.32141000  0.07002000  0.06395000  0.23 0.1005197815
H  H268  1  0.27576000  0.11870000  0.03713000  0.23 0.0585573926
H  H269  1  0.43694000  0.01455000  0.97450000  0.23 0.1100977216
H  H270  1  0.41121000  0.06348000  0.94080000  0.23 0.0891767417
H  H271  1  0.37382000  0.15237000  0.97723000  0.23 0.1005197815
H  H272  1  0.45343000  0.13553000  0.98821000  0.23 0.0891767417
C  C1  1  0.04430000  0.87130000  0.84637000  1.0 0.62942482
C  C2  1  0.72650000  0.70460000  0.56754000  1.0 0.62942482
C  C3  1  0.79210000  0.70820000  0.58921000  1.0 -0.043847739
C  C4  1  0.28130000  0.53480000  0.62663000  1.0 -0.0455666983
C  C5  1  0.34530000  0.49490000  0.61429000  1.0 0.6159965864
C  C6  1  0.07880000  0.76910000  0.80686000  1.0 -0.1016112239
C  C7  1  0.91330000  0.70250000  0.63170000  1.0 0.0585573926
C  C8  1  0.78650000  0.70730000  0.62560000  1.0 -0.0833807199
C  C9  1  0.85830000  0.70430000  0.57276000  1.0 -0.0930532206
C  C10  1  0.08080000  0.73670000  0.77193000  1.0 -0.1596199955
C  C11  1  0.09790000  0.65120000  0.66413000  1.0 0.0815640285
C  C12  1  0.85000000  0.70560000  0.64645000  1.0 -0.1492142638
C  C13  1  0.04570000  0.83570000  0.81005000  1.0 -0.043847739
C  C14  1  0.04150000  0.65800000  0.64175000  1.0 -0.2118836909
C  C15  1  0.01020000  0.86510000  0.78122000  1.0 -0.1016112239
C  C16  1  0.04390000  0.72910000  0.70818000  1.0 0.0815640285
C  C17  1  0.91940000  0.70220000  0.59387000  1.0 -0.1596199955
C  C18  1  0.21390000  0.50530000  0.62165000  1.0 -0.0833807199
C  C19  1  0.09890000  0.68600000  0.69630000  1.0 -0.1998184153
C  C20  1  0.97870000  0.69840000  0.65307000  1.0 0.0815640285
C  C21  1  0.16300000  0.60800000  0.65136000  1.0 0.0815640285
C  C22  1  0.98360000  0.73330000  0.68731000  1.0 -0.2118836909
C  C23  1  0.04510000  0.76590000  0.74380000  1.0 0.0704846198
C  C24  1  0.28850000  0.60050000  0.64429000  1.0 -0.0930532206
C  C25  1  0.15370000  0.54450000  0.63388000  1.0 -0.1699564817
C  C26  1  0.01060000  0.83080000  0.74805000  1.0 -0.1596199955
C  C27  1  0.23350000  0.64060000  0.65501000  1.0 -0.1596199955
C  C28  1  0.95570000  0.12870000  0.84637000  1.0 0.62942482
C  C29  1  0.27350000  0.29540000  0.56754000  1.0 0.62942482
C  C30  1  0.20790000  0.29180000  0.58921000  1.0 -0.043847739
C  C31  1  0.71870000  0.46520000  0.62663000  1.0 -0.0455666983
C  C32  1  0.65470000  0.50510000  0.61429000  1.0 0.6159965864
C  C33  1  0.92120000  0.23090000  0.80686000  1.0 -0.1016112239
C  C34  1  0.08670000  0.29750000  0.63170000  1.0 0.0585573926
C  C35  1  0.21350000  0.29270000  0.62560000  1.0 -0.0833807199
C  C36  1  0.14170000  0.29570000  0.57276000  1.0 -0.0930532206
C  C37  1  0.91920000  0.26330000  0.77193000  1.0 -0.1596199955
C  C38  1  0.90210000  0.34880000  0.66413000  1.0 0.0815640285
C  C39  1  0.15000000  0.29440000  0.64645000  1.0 -0.1492142638
C  C40  1  0.95430000  0.16430000  0.81005000  1.0 -0.043847739
C  C41  1  0.95850000  0.34200000  0.64175000  1.0 -0.2118836909
C  C42  1  0.98980000  0.13490000  0.78122000  1.0 -0.1057469749
C  C43  1  0.95610000  0.27090000  0.70818000  1.0 0.0815640285
C  C44  1  0.08060000  0.29780000  0.59387000  1.0 -0.1596199955
C  C45  1  0.78610000  0.49470000  0.62165000  1.0 -0.0833807199
C  C46  1  0.90110000  0.31400000  0.69630000  1.0 -0.1998184153
C  C47  1  0.02130000  0.30160000  0.65307000  1.0 0.0815640285
C  C48  1  0.83700000  0.39200000  0.65136000  1.0 0.0815640285
C  C49  1  0.01640000  0.26670000  0.68731000  1.0 -0.2118836909
C  C50  1  0.95490000  0.23410000  0.74380000  1.0 0.0704846198
C  C51  1  0.71150000  0.39950000  0.64429000  1.0 -0.0930532206
C  C52  1  0.84630000  0.45550000  0.63388000  1.0 -0.1699564817
C  C53  1  0.98940000  0.16920000  0.74805000  1.0 -0.1596199955
C  C54  1  0.76650000  0.35940000  0.65501000  1.0 -0.1596199955
C  C55  1  0.62870000  0.54430000  0.34637000  1.0 0.62942482
C  C56  1  0.79540000  0.22650000  0.06754000  1.0 0.62942482
C  C57  1  0.79180000  0.29210000  0.08921000  1.0 -0.043847739
C  C58  1  0.96520000  0.78130000  0.12663000  1.0 -0.0455666983
C  C59  1  0.00510000  0.84530000  0.11429000  1.0 0.6159965864
C  C60  1  0.73090000  0.57880000  0.30686000  1.0 -0.1016112239
C  C61  1  0.79750000  0.41330000  0.13170000  1.0 0.0585573926
C  C62  1  0.79270000  0.28650000  0.12560000  1.0 -0.0833807199
C  C63  1  0.79570000  0.35830000  0.07276000  1.0 -0.0930532206
C  C64  1  0.76330000  0.58080000  0.27193000  1.0 -0.1596199955
C  C65  1  0.84880000  0.59790000  0.16413000  1.0 0.0815640285
C  C66  1  0.79440000  0.35000000  0.14645000  1.0 -0.1492142638
C  C67  1  0.66430000  0.54570000  0.31005000  1.0 -0.043847739
C  C68  1  0.84200000  0.54150000  0.14175000  1.0 -0.2118836909
C  C69  1  0.63490000  0.51020000  0.28122000  1.0 -0.1016112239
C  C70  1  0.77090000  0.54390000  0.20818000  1.0 0.0815640285
C  C71  1  0.79780000  0.41940000  0.09387000  1.0 -0.1596199955
C  C72  1  0.99470000  0.71390000  0.12165000  1.0 -0.0833807199
C  C73  1  0.81400000  0.59890000  0.19630000  1.0 -0.1998184153
C  C74  1  0.80160000  0.47870000  0.15307000  1.0 0.0815640285
C  C75  1  0.89200000  0.66300000  0.15136000  1.0 0.0815640285
C  C76  1  0.76670000  0.48360000  0.18731000  1.0 -0.2118836909
C  C77  1  0.73410000  0.54510000  0.24380000  1.0 0.0704846198
C  C78  1  0.89950000  0.78850000  0.14429000  1.0 -0.0930532206
C  C79  1  0.95550000  0.65370000  0.13388000  1.0 -0.1699564817
C  C80  1  0.66920000  0.51060000  0.24805000  1.0 -0.1596199955
C  C81  1  0.85940000  0.73350000  0.15501000  1.0 -0.1596199955
C  C82  1  0.37130000  0.45570000  0.34637000  1.0 0.62942482
C  C83  1  0.20460000  0.77350000  0.06754000  1.0 0.62942482
C  C84  1  0.20820000  0.70790000  0.08921000  1.0 -0.043847739
C  C85  1  0.03480000  0.21870000  0.12663000  1.0 -0.0455666983
C  C86  1  0.99490000  0.15470000  0.11429000  1.0 0.6159965864
C  C87  1  0.26910000  0.42120000  0.30686000  1.0 -0.1016112239
C  C88  1  0.20250000  0.58670000  0.13170000  1.0 0.0585573926
C  C89  1  0.20730000  0.71350000  0.12560000  1.0 -0.0833807199
C  C90  1  0.20430000  0.64170000  0.07276000  1.0 -0.0930532206
C  C91  1  0.23670000  0.41920000  0.27193000  1.0 -0.1596199955
C  C92  1  0.15120000  0.40210000  0.16413000  1.0 0.0815640285
C  C93  1  0.20560000  0.65000000  0.14645000  1.0 -0.1492142638
C  C94  1  0.33570000  0.45430000  0.31005000  1.0 -0.043847739
C  C95  1  0.15800000  0.45850000  0.14175000  1.0 -0.2118836909
C  C96  1  0.36510000  0.48980000  0.28122000  1.0 -0.1016112239
C  C97  1  0.22910000  0.45610000  0.20818000  1.0 0.0815640285
C  C98  1  0.20220000  0.58060000  0.09387000  1.0 -0.1596199955
C  C99  1  0.00530000  0.28610000  0.12165000  1.0 -0.0833807199
C  C100  1  0.18600000  0.40110000  0.19630000  1.0 -0.1998184153
C  C101  1  0.19840000  0.52130000  0.15307000  1.0 0.0815640285
C  C102  1  0.10800000  0.33700000  0.15136000  1.0 0.0815640285
C  C103  1  0.23330000  0.51640000  0.18731000  1.0 -0.2118836909
C  C104  1  0.26590000  0.45490000  0.24380000  1.0 0.0704846198
C  C105  1  0.10050000  0.21150000  0.14429000  1.0 -0.0930532206
C  C106  1  0.04450000  0.34630000  0.13388000  1.0 -0.1699564817
C  C107  1  0.33080000  0.48940000  0.24805000  1.0 -0.1596199955
C  C108  1  0.14060000  0.26650000  0.15501000  1.0 -0.1596199955
C  C109  1  0.45570000  0.37130000  0.65363000  1.0 0.62942482
C  C110  1  0.77350000  0.20460000  0.93246000  1.0 0.62942482
C  C111  1  0.70790000  0.20820000  0.91079000  1.0 -0.043847739
C  C112  1  0.21870000  0.03480000  0.87337000  1.0 -0.0455666983
C  C113  1  0.15470000  0.99490000  0.88571000  1.0 0.6159965864
C  C114  1  0.42120000  0.26910000  0.69314000  1.0 -0.1016112239
C  C115  1  0.58670000  0.20250000  0.86830000  1.0 0.0585573926
C  C116  1  0.71350000  0.20730000  0.87440000  1.0 -0.0833807199
C  C117  1  0.64170000  0.20430000  0.92724000  1.0 -0.0930532206
C  C118  1  0.41920000  0.23670000  0.72807000  1.0 -0.1596199955
C  C119  1  0.40210000  0.15120000  0.83587000  1.0 0.0815640285
C  C120  1  0.65000000  0.20560000  0.85355000  1.0 -0.1492142638
C  C121  1  0.45430000  0.33570000  0.68995000  1.0 -0.043847739
C  C122  1  0.45850000  0.15800000  0.85825000  1.0 -0.2118836909
C  C123  1  0.48980000  0.36510000  0.71878000  1.0 -0.1016112239
C  C124  1  0.45610000  0.22910000  0.79182000  1.0 0.0815640285
C  C125  1  0.58060000  0.20220000  0.90613000  1.0 -0.1596199955
C  C126  1  0.28610000  0.00530000  0.87835000  1.0 -0.0833807199
C  C127  1  0.40110000  0.18600000  0.80370000  1.0 -0.1998184153
C  C128  1  0.52130000  0.19840000  0.84693000  1.0 0.0815640285
C  C129  1  0.33700000  0.10800000  0.84864000  1.0 0.0815640285
C  C130  1  0.51640000  0.23330000  0.81269000  1.0 -0.2118836909
C  C131  1  0.45490000  0.26590000  0.75620000  1.0 0.0704846198
C  C132  1  0.21150000  0.10050000  0.85571000  1.0 -0.0930532206
C  C133  1  0.34630000  0.04450000  0.86612000  1.0 -0.1699564817
C  C134  1  0.48940000  0.33080000  0.75195000  1.0 -0.1596199955
C  C135  1  0.26650000  0.14060000  0.84499000  1.0 -0.1596199955
C  C136  1  0.54430000  0.62870000  0.65363000  1.0 0.62942482
C  C137  1  0.22650000  0.79540000  0.93246000  1.0 0.62942482
C  C138  1  0.29210000  0.79180000  0.91079000  1.0 -0.043847739
C  C139  1  0.78130000  0.96520000  0.87337000  1.0 -0.0455666983
C  C140  1  0.84530000  0.00510000  0.88571000  1.0 0.6159965864
C  C141  1  0.57880000  0.73090000  0.69314000  1.0 -0.1016112239
C  C142  1  0.41330000  0.79750000  0.86830000  1.0 0.0585573926
C  C143  1  0.28650000  0.79270000  0.87440000  1.0 -0.0833807199
C  C144  1  0.35830000  0.79570000  0.92724000  1.0 -0.0930532206
C  C145  1  0.58080000  0.76330000  0.72807000  1.0 -0.1596199955
C  C146  1  0.59790000  0.84880000  0.83587000  1.0 0.0815640285
C  C147  1  0.35000000  0.79440000  0.85355000  1.0 -0.1492142638
C  C148  1  0.54570000  0.66430000  0.68995000  1.0 -0.043847739
C  C149  1  0.54150000  0.84200000  0.85825000  1.0 -0.2118836909
C  C150  1  0.51020000  0.63490000  0.71878000  1.0 -0.1016112239
C  C151  1  0.54390000  0.77090000  0.79182000  1.0 0.0815640285
C  C152  1  0.41940000  0.79780000  0.90613000  1.0 -0.1596199955
C  C153  1  0.71390000  0.99470000  0.87835000  1.0 -0.0833807199
C  C154  1  0.59890000  0.81400000  0.80370000  1.0 -0.1998184153
C  C155  1  0.47870000  0.80160000  0.84693000  1.0 0.0815640285
C  C156  1  0.66300000  0.89200000  0.84864000  1.0 0.0815640285
C  C157  1  0.48360000  0.76670000  0.81269000  1.0 -0.2118836909
C  C158  1  0.54510000  0.73410000  0.75620000  1.0 0.0704846198
C  C159  1  0.78850000  0.89950000  0.85571000  1.0 -0.0930532206
C  C160  1  0.65370000  0.95550000  0.86612000  1.0 -0.1699564817
C  C161  1  0.51060000  0.66920000  0.75195000  1.0 -0.1596199955
C  C162  1  0.73350000  0.85940000  0.84499000  1.0 -0.1596199955
C  C163  1  0.87130000  0.04430000  0.15363000  1.0 0.62942482
C  C164  1  0.70460000  0.72650000  0.43246000  1.0 0.62942482
C  C165  1  0.70820000  0.79210000  0.41079000  1.0 -0.043847739
C  C166  1  0.53480000  0.28130000  0.37337000  1.0 -0.0455666983
C  C167  1  0.49490000  0.34530000  0.38571000  1.0 0.6159965864
C  C168  1  0.76910000  0.07880000  0.19314000  1.0 -0.1016112239
C  C169  1  0.70250000  0.91330000  0.36830000  1.0 0.0585573926
C  C170  1  0.70730000  0.78650000  0.37440000  1.0 -0.0833807199
C  C171  1  0.70430000  0.85830000  0.42724000  1.0 -0.0930532206
C  C172  1  0.73670000  0.08080000  0.22807000  1.0 -0.1596199955
C  C173  1  0.65120000  0.09790000  0.33587000  1.0 0.0815640285
C  C174  1  0.70560000  0.85000000  0.35355000  1.0 -0.1492142638
C  C175  1  0.83570000  0.04570000  0.18995000  1.0 -0.043847739
C  C176  1  0.65800000  0.04150000  0.35825000  1.0 -0.2118836909
C  C177  1  0.86510000  0.01020000  0.21878000  1.0 -0.1057469749
C  C178  1  0.72910000  0.04390000  0.29182000  1.0 0.0815640285
C  C179  1  0.70220000  0.91940000  0.40613000  1.0 -0.1596199955
C  C180  1  0.50530000  0.21390000  0.37835000  1.0 -0.0833807199
C  C181  1  0.68600000  0.09890000  0.30370000  1.0 -0.1998184153
C  C182  1  0.69840000  0.97870000  0.34693000  1.0 0.0815640285
C  C183  1  0.60800000  0.16300000  0.34864000  1.0 0.0815640285
C  C184  1  0.73330000  0.98360000  0.31269000  1.0 -0.2118836909
C  C185  1  0.76590000  0.04510000  0.25620000  1.0 0.0704846198
C  C186  1  0.60050000  0.28850000  0.35571000  1.0 -0.0930532206
C  C187  1  0.54450000  0.15370000  0.36612000  1.0 -0.1699564817
C  C188  1  0.83080000  0.01060000  0.25195000  1.0 -0.1596199955
C  C189  1  0.64060000  0.23350000  0.34499000  1.0 -0.1596199955
C  C190  1  0.12870000  0.95570000  0.15363000  1.0 0.62942482
C  C191  1  0.29540000  0.27350000  0.43246000  1.0 0.62942482
C  C192  1  0.29180000  0.20790000  0.41079000  1.0 -0.043847739
C  C193  1  0.46520000  0.71870000  0.37337000  1.0 -0.0455666983
C  C194  1  0.50510000  0.65470000  0.38571000  1.0 0.6159965864
C  C195  1  0.23090000  0.92120000  0.19314000  1.0 -0.1016112239
C  C196  1  0.29750000  0.08670000  0.36830000  1.0 0.0585573926
C  C197  1  0.29270000  0.21350000  0.37440000  1.0 -0.0833807199
C  C198  1  0.29570000  0.14170000  0.42724000  1.0 -0.0930532206
C  C199  1  0.26330000  0.91920000  0.22807000  1.0 -0.1596199955
C  C200  1  0.34880000  0.90210000  0.33587000  1.0 0.0815640285
C  C201  1  0.29440000  0.15000000  0.35355000  1.0 -0.1492142638
C  C202  1  0.16430000  0.95430000  0.18995000  1.0 -0.043847739
C  C203  1  0.34200000  0.95850000  0.35825000  1.0 -0.2118836909
C  C204  1  0.13490000  0.98980000  0.21878000  1.0 -0.1057469749
C  C205  1  0.27090000  0.95610000  0.29182000  1.0 0.0815640285
C  C206  1  0.29780000  0.08060000  0.40613000  1.0 -0.1596199955
C  C207  1  0.49470000  0.78610000  0.37835000  1.0 -0.0833807199
C  C208  1  0.31400000  0.90110000  0.30370000  1.0 -0.1998184153
C  C209  1  0.30160000  0.02130000  0.34693000  1.0 0.0815640285
C  C210  1  0.39200000  0.83700000  0.34864000  1.0 0.0815640285
C  C211  1  0.26670000  0.01640000  0.31269000  1.0 -0.2118836909
C  C212  1  0.23410000  0.95490000  0.25620000  1.0 0.0704846198
C  C213  1  0.39950000  0.71150000  0.35571000  1.0 -0.0930532206
C  C214  1  0.45550000  0.84630000  0.36612000  1.0 -0.1699564817
C  C215  1  0.16920000  0.98940000  0.25195000  1.0 -0.1596199955
C  C216  1  0.35940000  0.76650000  0.34499000  1.0 -0.1596199955
C  C217  1  0.97810000  0.69540000  0.98530000  0.23 -0.0132843849
C  C218  1  0.96700000  0.67600000  0.02530000  0.23 -0.1699564817
C  C219  1  0.87040000  0.61500000  0.97050000  0.23 -0.1435405218
C  C220  1  0.91340000  0.68230000  0.96130000  0.23 -0.1932229341
C  C221  1  0.94810000  0.59700000  0.03350000  0.23 -0.1596199955
C  C222  1  0.88300000  0.59600000  0.00970000  0.23 -0.1596199955
C  C223  1  0.02190000  0.30460000  0.98530000  0.23 -0.0132843849
C  C224  1  0.03300000  0.32400000  0.02530000  0.23 -0.1699564817
C  C225  1  0.12960000  0.38500000  0.97050000  0.23 -0.1435405218
C  C226  1  0.08660000  0.31770000  0.96130000  0.23 -0.1932229341
C  C227  1  0.05190000  0.40300000  0.03350000  0.23 -0.1699564817
C  C228  1  0.11700000  0.40400000  0.00970000  0.23 -0.1596199955
C  C229  1  0.80460000  0.47810000  0.48530000  0.23 -0.0132843849
C  C230  1  0.82400000  0.46700000  0.52530000  0.23 -0.1699564817
C  C231  1  0.88500000  0.37040000  0.47050000  0.23 -0.1435405218
C  C232  1  0.81770000  0.41340000  0.46130000  0.23 -0.1932229341
C  C233  1  0.90300000  0.44810000  0.53350000  0.23 -0.1596199955
C  C234  1  0.90400000  0.38300000  0.50970000  0.23 -0.1596199955
C  C235  1  0.19540000  0.52190000  0.48530000  0.23 -0.0132843849
C  C236  1  0.17600000  0.53300000  0.52530000  0.23 -0.1699564817
C  C237  1  0.11500000  0.62960000  0.47050000  0.23 -0.1435405218
C  C238  1  0.18230000  0.58660000  0.46130000  0.23 -0.1932229341
C  C239  1  0.09700000  0.55190000  0.53350000  0.23 -0.1596199955
C  C240  1  0.09600000  0.61700000  0.50970000  0.23 -0.1596199955
C  C241  1  0.52190000  0.19540000  0.51470000  0.23 -0.0132843849
C  C242  1  0.53300000  0.17600000  0.47470000  0.23 -0.1699564817
C  C243  1  0.62960000  0.11500000  0.52950000  0.23 -0.1435405218
C  C244  1  0.58660000  0.18230000  0.53870000  0.23 -0.1932229341
C  C245  1  0.55190000  0.09700000  0.46650000  0.23 -0.1699564817
C  C246  1  0.61700000  0.09600000  0.49030000  0.23 -0.1596199955
C  C247  1  0.47810000  0.80460000  0.51470000  0.23 -0.0132843849
C  C248  1  0.46700000  0.82400000  0.47470000  0.23 -0.1699564817
C  C249  1  0.37040000  0.88500000  0.52950000  0.23 -0.1435405218
C  C250  1  0.41340000  0.81770000  0.53870000  0.23 -0.1932229341
C  C251  1  0.44810000  0.90300000  0.46650000  0.23 -0.1699564817
C  C252  1  0.38300000  0.90400000  0.49030000  0.23 -0.1596199955
C  C253  1  0.69540000  0.97810000  0.01470000  0.23 -0.0132843849
C  C254  1  0.67600000  0.96700000  0.97470000  0.23 -0.1699564817
C  C255  1  0.61500000  0.87040000  0.02950000  0.23 -0.1435405218
C  C256  1  0.68230000  0.91340000  0.03870000  0.23 -0.1932229341
C  C257  1  0.59700000  0.94810000  0.96650000  0.23 -0.1596199955
C  C258  1  0.59600000  0.88300000  0.99030000  0.23 -0.1596199955
C  C259  1  0.30460000  0.02190000  0.01470000  0.23 -0.0132843849
C  C260  1  0.32400000  0.03300000  0.97470000  0.23 -0.1699564817
C  C261  1  0.38500000  0.12960000  0.02950000  0.23 -0.1435405218
C  C262  1  0.31770000  0.08660000  0.03870000  0.23 -0.1932229341
C  C263  1  0.40300000  0.05190000  0.96650000  0.23 -0.1596199955
C  C264  1  0.40400000  0.11700000  0.99030000  0.23 -0.1596199955
C  C265  1  0.94660000  0.77420000  0.02600000  0.29 -0.1699564817
C  C266  1  0.89670000  0.81400000  0.96250000  0.29 -0.2504106441
C  C267  1  0.96120000  0.79990000  0.98730000  0.29 -0.1016112239
C  C268  1  0.82660000  0.83630000  0.98110000  0.29 -0.0315519793
C  C269  1  0.87620000  0.79950000  0.04350000  0.29 -0.1016112239
C  C270  1  0.81180000  0.79850000  0.01730000  0.29 -0.0240292202
C  C271  1  0.05340000  0.22580000  0.02600000  0.29 -0.1699564817
C  C272  1  0.10330000  0.18600000  0.96250000  0.29 -0.2504106441
C  C273  1  0.03880000  0.20010000  0.98730000  0.29 -0.1016112239
C  C274  1  0.17340000  0.16370000  0.98110000  0.29 -0.0315519793
C  C275  1  0.12380000  0.20050000  0.04350000  0.29 -0.1016112239
C  C276  1  0.18820000  0.20150000  0.01730000  0.29 -0.0240292202
C  C277  1  0.72580000  0.44660000  0.52600000  0.29 -0.1699564817
C  C278  1  0.68600000  0.39670000  0.46250000  0.29 -0.2504106441
C  C279  1  0.70010000  0.46120000  0.48730000  0.29 -0.1016112239
C  C280  1  0.66370000  0.32660000  0.48110000  0.29 -0.0315519793
C  C281  1  0.70050000  0.37620000  0.54350000  0.29 -0.1016112239
C  C282  1  0.70150000  0.31180000  0.51730000  0.29 -0.0240292202
C  C283  1  0.27420000  0.55340000  0.52600000  0.29 -0.1699564817
C  C284  1  0.31400000  0.60330000  0.46250000  0.29 -0.2504106441
C  C285  1  0.29990000  0.53880000  0.48730000  0.29 -0.1016112239
C  C286  1  0.33630000  0.67340000  0.48110000  0.29 -0.0315519793
C  C287  1  0.29950000  0.62380000  0.54350000  0.29 -0.1057469749
C  C288  1  0.29850000  0.68820000  0.51730000  0.29 -0.0240292202
C  C289  1  0.55340000  0.27420000  0.47400000  0.29 -0.1699564817
C  C290  1  0.60330000  0.31400000  0.53750000  0.29 -0.2504106441
C  C291  1  0.53880000  0.29990000  0.51270000  0.29 -0.1016112239
C  C292  1  0.67340000  0.33630000  0.51890000  0.29 -0.0315519793
C  C293  1  0.62380000  0.29950000  0.45650000  0.29 -0.1016112239
C  C294  1  0.68820000  0.29850000  0.48270000  0.29 -0.0240292202
C  C295  1  0.44660000  0.72580000  0.47400000  0.29 -0.1699564817
C  C296  1  0.39670000  0.68600000  0.53750000  0.29 -0.2504106441
C  C297  1  0.46120000  0.70010000  0.51270000  0.29 -0.1016112239
C  C298  1  0.32660000  0.66370000  0.51890000  0.29 -0.0315519793
C  C299  1  0.37620000  0.70050000  0.45650000  0.29 -0.1016112239
C  C300  1  0.31180000  0.70150000  0.48270000  0.29 -0.0240292202
C  C301  1  0.77420000  0.94660000  0.97400000  0.29 -0.1699564817
C  C302  1  0.81400000  0.89670000  0.03750000  0.29 -0.2504106441
C  C303  1  0.79990000  0.96120000  0.01270000  0.29 -0.1016112239
C  C304  1  0.83630000  0.82660000  0.01890000  0.29 -0.0315519793
C  C305  1  0.79950000  0.87620000  0.95650000  0.29 -0.1016112239
C  C306  1  0.79850000  0.81180000  0.98270000  0.29 -0.0240292202
C  C307  1  0.22580000  0.05340000  0.97400000  0.29 -0.1699564817
C  C308  1  0.18600000  0.10330000  0.03750000  0.29 -0.2504106441
C  C309  1  0.20010000  0.03880000  0.01270000  0.29 -0.1016112239
C  C310  1  0.16370000  0.17340000  0.01890000  0.29 -0.0315519793
C  C311  1  0.20050000  0.12380000  0.95650000  0.29 -0.1016112239
C  C312  1  0.20150000  0.18820000  0.98270000  0.29 -0.0240292202
C  C313  1  0.05120000  0.75410000  0.96450000  0.48 0.1690157393
C  C314  1  0.94880000  0.24590000  0.96450000  0.48 0.1690157393
C  C315  1  0.74590000  0.55120000  0.46450000  0.48 0.1690157393
C  C316  1  0.25410000  0.44880000  0.46450000  0.48 0.1690157393
C  C317  1  0.44880000  0.25410000  0.53550000  0.48 0.1690157393
C  C318  1  0.55120000  0.74590000  0.53550000  0.48 0.1690157393
C  C319  1  0.75410000  0.05120000  0.03550000  0.48 0.1690157393
C  C320  1  0.24590000  0.94880000  0.03550000  0.48 0.1690157393
S  S1  1  0.02780000  0.77540000  0.97920000  0.23 0.1268234223
S  S2  1  0.97220000  0.22460000  0.97920000  0.23 0.1268234223
S  S3  1  0.72460000  0.52780000  0.47920000  0.23 0.1268234223
S  S4  1  0.27540000  0.47220000  0.47920000  0.23 0.1268234223
S  S5  1  0.47220000  0.27540000  0.52080000  0.23 0.1268234223
S  S6  1  0.52780000  0.72460000  0.52080000  0.23 0.1268234223
S  S7  1  0.77540000  0.02780000  0.02080000  0.23 0.1268234223
S  S8  1  0.22460000  0.97220000  0.02080000  0.23 0.1268234223
S  S9  1  0.03180000  0.74170000  0.96432000  0.29 0.1100977216
S  S10  1  0.96820000  0.25830000  0.96432000  0.29 0.1100977216
S  S11  1  0.75830000  0.53180000  0.46432000  0.29 0.1192375236
S  S12  1  0.24170000  0.46820000  0.46432000  0.29 0.1192375236
S  S13  1  0.46820000  0.24170000  0.53568000  0.29 0.1100977216
S  S14  1  0.53180000  0.75830000  0.53568000  0.29 0.1100977216
S  S15  1  0.74170000  0.03180000  0.03568000  0.29 0.1100977216
S  S16  1  0.25830000  0.96820000  0.03568000  0.29 0.1192375236
O  O1  1  0.02073000  0.93156000  0.91913000  1.0 -0.9450473317
O  O2  1  0.12344000  0.89088000  0.96439000  1.0 -0.9238315502
O  O3  1  0.01762000  0.93372000  0.84754000  1.0 -0.6038168201
O  O4  1  0.06854000  0.83574000  0.87204000  1.0 -0.5606858411
O  O5  1  0.66755000  0.70094000  0.58449000  1.0 -0.6062562146
O  O6  1  0.33978000  0.43359000  0.60200000  1.0 -0.5606858411
O  O7  1  0.73138000  0.70282000  0.53333000  1.0 -0.5738980898
O  O8  1  0.40579000  0.52959000  0.61844000  1.0 -0.6522399091
O  O9  1  0.03177000  0.79079000  0.93663000  1.0 -0.2901872152
O  O10  1  0.09676000  0.76148000  0.99057000  1.0 -0.3022978285
O  O11  1  0.97927000  0.06844000  0.91913000  1.0 -0.9450473317
O  O12  1  0.87656000  0.10912000  0.96439000  1.0 -0.9238315502
O  O13  1  0.98238000  0.06628000  0.84754000  1.0 -0.6038168201
O  O14  1  0.93146000  0.16426000  0.87204000  1.0 -0.5606858411
O  O15  1  0.33245000  0.29906000  0.58449000  1.0 -0.6062562146
O  O16  1  0.66022000  0.56641000  0.60200000  1.0 -0.5606858411
O  O17  1  0.26862000  0.29718000  0.53333000  1.0 -0.5738980898
O  O18  1  0.59421000  0.47041000  0.61844000  1.0 -0.6522399091
O  O19  1  0.96823000  0.20921000  0.93663000  1.0 -0.2901872152
O  O20  1  0.90324000  0.23852000  0.99057000  1.0 -0.3022978285
O  O21  1  0.56844000  0.52073000  0.41913000  1.0 -0.9432205089
O  O22  1  0.60912000  0.62344000  0.46439000  1.0 -0.9238315502
O  O23  1  0.56628000  0.51762000  0.34754000  1.0 -0.6038168201
O  O24  1  0.66426000  0.56854000  0.37204000  1.0 -0.5606858411
O  O25  1  0.79906000  0.16755000  0.08449000  1.0 -0.6062562146
O  O26  1  0.06641000  0.83978000  0.10200000  1.0 -0.5606858411
O  O27  1  0.79718000  0.23138000  0.03333000  1.0 -0.5738980898
O  O28  1  0.97041000  0.90579000  0.11844000  1.0 -0.6522399091
O  O29  1  0.70921000  0.53177000  0.43663000  1.0 -0.2901872152
O  O30  1  0.73852000  0.59676000  0.49057000  1.0 -0.3022978285
O  O31  1  0.43156000  0.47927000  0.41913000  1.0 -0.9432205089
O  O32  1  0.39088000  0.37656000  0.46439000  1.0 -0.9238315502
O  O33  1  0.43372000  0.48238000  0.34754000  1.0 -0.6038168201
O  O34  1  0.33574000  0.43146000  0.37204000  1.0 -0.5606858411
O  O35  1  0.20094000  0.83245000  0.08449000  1.0 -0.6062562146
O  O36  1  0.93359000  0.16022000  0.10200000  1.0 -0.5606858411
O  O37  1  0.20282000  0.76862000  0.03333000  1.0 -0.5738980898
O  O38  1  0.02959000  0.09421000  0.11844000  1.0 -0.6522399091
O  O39  1  0.29079000  0.46823000  0.43663000  1.0 -0.2901872152
O  O40  1  0.26148000  0.40324000  0.49057000  1.0 -0.3022978285
O  O41  1  0.47927000  0.43156000  0.58087000  1.0 -0.9432205089
O  O42  1  0.37656000  0.39088000  0.53561000  1.0 -0.9238315502
O  O43  1  0.48238000  0.43372000  0.65246000  1.0 -0.6038168201
O  O44  1  0.43146000  0.33574000  0.62796000  1.0 -0.5606858411
O  O45  1  0.83245000  0.20094000  0.91551000  1.0 -0.6062562146
O  O46  1  0.16022000  0.93359000  0.89800000  1.0 -0.5606858411
O  O47  1  0.76862000  0.20282000  0.96667000  1.0 -0.5738980898
O  O48  1  0.09421000  0.02959000  0.88156000  1.0 -0.6522399091
O  O49  1  0.46823000  0.29079000  0.56337000  1.0 -0.2901872152
O  O50  1  0.40324000  0.26148000  0.50943000  1.0 -0.3022978285
O  O51  1  0.52073000  0.56844000  0.58087000  1.0 -0.9432205089
O  O52  1  0.62344000  0.60912000  0.53561000  1.0 -0.9238315502
O  O53  1  0.51762000  0.56628000  0.65246000  1.0 -0.6038168201
O  O54  1  0.56854000  0.66426000  0.62796000  1.0 -0.5606858411
O  O55  1  0.16755000  0.79906000  0.91551000  1.0 -0.6062562146
O  O56  1  0.83978000  0.06641000  0.89800000  1.0 -0.5606858411
O  O57  1  0.23138000  0.79718000  0.96667000  1.0 -0.5738980898
O  O58  1  0.90579000  0.97041000  0.88156000  1.0 -0.6522399091
O  O59  1  0.53177000  0.70921000  0.56337000  1.0 -0.2901872152
O  O60  1  0.59676000  0.73852000  0.50943000  1.0 -0.3022978285
O  O61  1  0.93156000  0.02073000  0.08087000  1.0 -0.9432205089
O  O62  1  0.89088000  0.12344000  0.03561000  1.0 -0.9238315502
O  O63  1  0.93372000  0.01762000  0.15246000  1.0 -0.6038168201
O  O64  1  0.83574000  0.06854000  0.12796000  1.0 -0.5606858411
O  O65  1  0.70094000  0.66755000  0.41551000  1.0 -0.6062562146
O  O66  1  0.43359000  0.33978000  0.39800000  1.0 -0.5606858411
O  O67  1  0.70282000  0.73138000  0.46667000  1.0 -0.5738980898
O  O68  1  0.52959000  0.40579000  0.38156000  1.0 -0.6522399091
O  O69  1  0.79079000  0.03177000  0.06337000  1.0 -0.2901872152
O  O70  1  0.76148000  0.09676000  0.00943000  1.0 -0.3022978285
O  O71  1  0.06844000  0.97927000  0.08087000  1.0 -0.9432205089
O  O72  1  0.10912000  0.87656000  0.03561000  1.0 -0.9238315502
O  O73  1  0.06628000  0.98238000  0.15246000  1.0 -0.6038168201
O  O74  1  0.16426000  0.93146000  0.12796000  1.0 -0.5606858411
O  O75  1  0.29906000  0.33245000  0.41551000  1.0 -0.6062562146
O  O76  1  0.56641000  0.66022000  0.39800000  1.0 -0.5606858411
O  O77  1  0.29718000  0.26862000  0.46667000  1.0 -0.5738980898
O  O78  1  0.47041000  0.59421000  0.38156000  1.0 -0.6522399091
O  O79  1  0.20921000  0.96823000  0.06337000  1.0 -0.2901872152
O  O80  1  0.23852000  0.90324000  0.00943000  1.0 -0.3022978285
