# DDEC6 charges by PACMAN v1.1 (https://github.com/mtap-research/PACMAN-charge/)
data_2024[Zn][srs]3[ASR]2
_chemical_formula_sum              "Zn4 H12 C20 N16"
_cell_length_a       9.5293
_cell_length_b       9.9206
_cell_length_c       11.3847
_cell_angle_alpha    90
_cell_angle_beta     90
_cell_angle_gamma    90

_symmetry_space_group_name_H-M    "P 1"
_symmetry_Int_Tables_number       1

loop_
  _symmetry_equiv_pos_as_xyz
  'x, y, z'

loop_
  _atom_site_type_symbol
  _atom_site_label
  _atom_site_symmetry_multiplicity
  _atom_site_fract_x
  _atom_site_fract_y
  _atom_site_fract_z
  _atom_site_occupancy
  _atom_site_charge
Zn  Zn1       1.0  0.68664  0.75126  0.15377  1.0000 0.5326645944
Zn  Zn2       1.0  0.81336  0.24874  0.65377  1.0000 0.5326645944
Zn  Zn3       1.0  0.31336  0.25126  0.34623  1.0000 0.5326645944
Zn  Zn4       1.0  0.18664  0.74874  0.84623  1.0000 0.5326645944
H   H1        1.0  0.48628  0.50702  0.27691  1.0000 0.103872833
H   H2        1.0  0.01372  0.49298  0.77691  1.0000 0.103872833
H   H3        1.0  0.51372  0.00702  0.22309  1.0000 0.103872833
H   H4        1.0  0.98628  0.99298  0.72309  1.0000 0.103872833
H   H5        1.0  0.46763  0.84682  0.96963  1.0000 0.089388867
H   H6        1.0  0.03237  0.15318  0.46963  1.0000 0.089388867
H   H7        1.0  0.53237  0.34682  0.53037  1.0000 0.089388867
H   H8        1.0  0.96763  0.65318  0.03037  1.0000 0.089388867
H   H9        1.0  0.13255  0.36614  0.16051  1.0000 0.089388867
H   H10       1.0  0.36745  0.63386  0.66051  1.0000 0.089388867
H   H11       1.0  0.86745  0.86614  0.33949  1.0000 0.089388867
H   H12       1.0  0.63255  0.13386  0.83949  1.0000 0.089388867
C   C1        1.0  0.41200  0.50940  0.22400  1.0000 0.0026977027
C   C2        1.0  0.08800  0.49060  0.72400  1.0000 0.0026977027
C   C3        1.0  0.58800  0.00940  0.27600  1.0000 0.0026977027
C   C4        1.0  0.91200  0.99060  0.77600  1.0000 0.0026977027
C   C5        1.0  0.29670  0.60990  0.06200  1.0000 0.2435836169
C   C6        1.0  0.20330  0.39010  0.56200  1.0000 0.2435836169
C   C7        1.0  0.70330  0.10990  0.43800  1.0000 0.2435836169
C   C8        1.0  0.79670  0.89010  0.93800  1.0000 0.2435836169
C   C9        1.0  0.43110  0.77330  0.01000  1.0000 0.1632669542
C   C10       1.0  0.06890  0.22670  0.51000  1.0000 0.1632669542
C   C11       1.0  0.56890  0.27330  0.49000  1.0000 0.1632669542
C   C12       1.0  0.93110  0.72670  0.99000  1.0000 0.1632669542
C   C13       1.0  0.40820  0.61020  0.13740  1.0000 0.0189650088
C   C14       1.0  0.09180  0.38980  0.63740  1.0000 0.0189650088
C   C15       1.0  0.59180  0.11020  0.36260  1.0000 0.0189650088
C   C16       1.0  0.90820  0.88980  0.86260  1.0000 0.0189650088
C   C17       1.0  0.20460  0.42900  0.15500  1.0000 0.1537287059
C   C18       1.0  0.29540  0.57100  0.65500  1.0000 0.1537287059
C   C19       1.0  0.79540  0.92900  0.34500  1.0000 0.1537287059
C   C20       1.0  0.70460  0.07100  0.84500  1.0000 0.1537287059
N   N1        1.0  0.49330  0.71740  0.10140  1.0000 -0.3367275026
N   N2        1.0  0.00670  0.28260  0.60140  1.0000 -0.3367275026
N   N3        1.0  0.50670  0.21740  0.39860  1.0000 -0.3367275026
N   N4        1.0  0.99330  0.78260  0.89860  1.0000 -0.3367275026
N   N5        1.0  0.31120  0.71390  0.98140  1.0000 -0.3845080462
N   N6        1.0  0.18880  0.28610  0.48140  1.0000 -0.3845080462
N   N7        1.0  0.68880  0.21390  0.51860  1.0000 -0.3845080462
N   N8        1.0  0.81120  0.78610  0.01860  1.0000 -0.3845080462
N   N9        1.0  0.30950  0.41600  0.23160  1.0000 -0.2877416637
N   N10       1.0  0.19050  0.58400  0.73160  1.0000 -0.2877416637
N   N11       1.0  0.69050  0.91600  0.26840  1.0000 -0.2877416637
N   N12       1.0  0.80950  0.08400  0.76840  1.0000 -0.2877416637
N   N13       1.0  0.19140  0.52260  0.07090  1.0000 -0.3885799375
N   N14       1.0  0.30860  0.47740  0.57090  1.0000 -0.3885799375
N   N15       1.0  0.80860  0.02260  0.42910  1.0000 -0.3885799375
N   N16       1.0  0.69140  0.97740  0.92910  1.0000 -0.3885799375
