# DDEC6 charges by PACMAN v1.1 (https://github.com/mtap-research/PACMAN-charge/)
data_d2ta03524c2_1_ASR_pacman
_symmetry_space_group_name_H-M   'P 1'
_cell_length_a   30.24100000
_cell_length_b   30.24100000
_cell_length_c   18.29700000
_cell_angle_alpha   90.00000000
_cell_angle_beta   90.00000000
_cell_angle_gamma   90.00000000
_symmetry_Int_Tables_number   1
_chemical_formula_structural   In12H104.0C164.48N16.0O68
_chemical_formula_sum   'In12 H104.0 C164.48 N16.0 O68'
_cell_volume   16732.93732806
_cell_formula_units_Z   1
loop_
 _symmetry_equiv_pos_site_id
 _symmetry_equiv_pos_as_xyz
  1  'x, y, z'
loop_
 _atom_site_type_symbol
 _atom_site_label
 _atom_site_symmetry_multiplicity
 _atom_site_fract_x
 _atom_site_fract_y
 _atom_site_fract_z
 _atom_site_occupancy
 _atom_site_charge
In  In1  1  0.25386000  0.74614000  0.09686000  1.0 1.3511576176
In  In2  1  0.24614000  0.24614000  0.59686000  1.0 1.3672991514
In  In3  1  0.74614000  0.25386000  0.09686000  1.0 1.3511576176
In  In4  1  0.75386000  0.75386000  0.59686000  1.0 1.3672991514
In  In5  1  0.24614000  0.24614000  0.40314000  1.0 1.3511576176
In  In6  1  0.75386000  0.75386000  0.40314000  1.0 1.3511576176
In  In7  1  0.74614000  0.25386000  0.90314000  1.0 1.3672991514
In  In8  1  0.25386000  0.74614000  0.90314000  1.0 1.3672991514
In  In9  1  0.32485000  0.67515000  0.00000000  1.0 1.3074750126
In  In10  1  0.17515000  0.17515000  0.50000000  1.0 1.3074750126
In  In11  1  0.67515000  0.32485000  0.00000000  1.0 1.3074750126
In  In12  1  0.82485000  0.82485000  0.50000000  1.0 1.3074750126
H  H1  1  0.10736000  0.73643000  0.89349000  0.39 0.0887395174
H  H2  1  0.23643000  0.39264000  0.39349000  0.39 0.0887395174
H  H3  1  0.89264000  0.26357000  0.89349000  0.39 0.0887395174
H  H4  1  0.76357000  0.60736000  0.39349000  0.39 0.0887395174
H  H5  1  0.39264000  0.23643000  0.60651000  0.39 0.0887395174
H  H6  1  0.60736000  0.76357000  0.60651000  0.39 0.0887395174
H  H7  1  0.73643000  0.10736000  0.10651000  0.39 0.0887395174
H  H8  1  0.26357000  0.89264000  0.10651000  0.39 0.0887395174
H  H9  1  0.89264000  0.26357000  0.10651000  0.39 0.0887395174
H  H10  1  0.76357000  0.60736000  0.60651000  0.39 0.0887395174
H  H11  1  0.10736000  0.73643000  0.10651000  0.39 0.0887395174
H  H12  1  0.23643000  0.39264000  0.60651000  0.39 0.0887395174
H  H13  1  0.60736000  0.76357000  0.39349000  0.39 0.0887395174
H  H14  1  0.39264000  0.23643000  0.39349000  0.39 0.0887395174
H  H15  1  0.26357000  0.89264000  0.89349000  0.39 0.0887395174
H  H16  1  0.73643000  0.10736000  0.89349000  0.39 0.0887395174
H  H17  1  0.00065000  0.78483000  0.00000000  0.39 0.0268402033
H  H18  1  0.28483000  0.49935000  0.50000000  0.39 0.0268402033
H  H19  1  0.99935000  0.21517000  0.00000000  0.39 0.0268402033
H  H20  1  0.71517000  0.50065000  0.50000000  0.39 0.0268402033
H  H21  1  0.49935000  0.28483000  0.50000000  0.39 0.0268402033
H  H22  1  0.50065000  0.71517000  0.50000000  0.39 0.0268402033
H  H23  1  0.78483000  0.00065000  0.00000000  0.39 0.0268402033
H  H24  1  0.21517000  0.99935000  0.00000000  0.39 0.0268402033
H  H25  1  0.99607000  0.76707000  0.72240000  0.39 0.0430660809
H  H26  1  0.26707000  0.50393000  0.22240000  0.39 0.0430660809
H  H27  1  0.00393000  0.23293000  0.72240000  0.39 0.0430660809
H  H28  1  0.73293000  0.49607000  0.22240000  0.39 0.0430660809
H  H29  1  0.50393000  0.26707000  0.77760000  0.39 0.0430660809
H  H30  1  0.49607000  0.73293000  0.77760000  0.39 0.0430660809
H  H31  1  0.76707000  0.99607000  0.27760000  0.39 0.0430660809
H  H32  1  0.23293000  0.00393000  0.27760000  0.39 0.0430660809
H  H33  1  0.00393000  0.23293000  0.27760000  0.39 0.0430660809
H  H34  1  0.73293000  0.49607000  0.77760000  0.39 0.0430660809
H  H35  1  0.99607000  0.76707000  0.27760000  0.39 0.0430660809
H  H36  1  0.26707000  0.50393000  0.77760000  0.39 0.0430660809
H  H37  1  0.49607000  0.73293000  0.22240000  0.39 0.0430660809
H  H38  1  0.50393000  0.26707000  0.22240000  0.39 0.0430660809
H  H39  1  0.23293000  0.00393000  0.72240000  0.39 0.0430660809
H  H40  1  0.76707000  0.99607000  0.72240000  0.39 0.0430660809
H  H41  1  0.90117000  0.73755000  0.86715000  0.39 0.0490775948
H  H42  1  0.23755000  0.59883000  0.36715000  0.39 0.0490775948
H  H43  1  0.09883000  0.26245000  0.86715000  0.39 0.0490775948
H  H44  1  0.76245000  0.40117000  0.36715000  0.39 0.0490775948
H  H45  1  0.59883000  0.23755000  0.63285000  0.39 0.0490775948
H  H46  1  0.40117000  0.76245000  0.63285000  0.39 0.0490775948
H  H47  1  0.73755000  0.90117000  0.13285000  0.39 0.0490775948
H  H48  1  0.26245000  0.09883000  0.13285000  0.39 0.0490775948
H  H49  1  0.09883000  0.26245000  0.13285000  0.39 0.0490775948
H  H50  1  0.76245000  0.40117000  0.63285000  0.39 0.0490775948
H  H51  1  0.90117000  0.73755000  0.13285000  0.39 0.0490775948
H  H52  1  0.23755000  0.59883000  0.63285000  0.39 0.0490775948
H  H53  1  0.40117000  0.76245000  0.36715000  0.39 0.0490775948
H  H54  1  0.59883000  0.23755000  0.36715000  0.39 0.0490775948
H  H55  1  0.26245000  0.09883000  0.86715000  0.39 0.0490775948
H  H56  1  0.73755000  0.90117000  0.86715000  0.39 0.0490775948
H  H57  1  0.84776000  0.74567000  0.77689000  0.39 0.0682314973
H  H58  1  0.24567000  0.65224000  0.27689000  0.39 0.0682314973
H  H59  1  0.15224000  0.25433000  0.77689000  0.39 0.0682314973
H  H60  1  0.75433000  0.34776000  0.27689000  0.39 0.0682314973
H  H61  1  0.65224000  0.24567000  0.72311000  0.39 0.0682314973
H  H62  1  0.34776000  0.75433000  0.72311000  0.39 0.0682314973
H  H63  1  0.74567000  0.84776000  0.22311000  0.39 0.0682314973
H  H64  1  0.25433000  0.15224000  0.22311000  0.39 0.0682314973
H  H65  1  0.15224000  0.25433000  0.22311000  0.39 0.0682314973
H  H66  1  0.75433000  0.34776000  0.72311000  0.39 0.0682314973
H  H67  1  0.84776000  0.74567000  0.22311000  0.39 0.0682314973
H  H68  1  0.24567000  0.65224000  0.72311000  0.39 0.0682314973
H  H69  1  0.34776000  0.75433000  0.27689000  0.39 0.0682314973
H  H70  1  0.65224000  0.24567000  0.27689000  0.39 0.0682314973
H  H71  1  0.25433000  0.15224000  0.77689000  0.39 0.0682314973
H  H72  1  0.74567000  0.84776000  0.77689000  0.39 0.0682314973
H  H73  1  0.94335000  0.77536000  0.63150000  0.39 0.077496891
H  H74  1  0.27536000  0.55665000  0.13150000  0.39 0.077496891
H  H75  1  0.05665000  0.22464000  0.63150000  0.39 0.077496891
H  H76  1  0.72464000  0.44335000  0.13150000  0.39 0.077496891
H  H77  1  0.55665000  0.27536000  0.86850000  0.39 0.077496891
H  H78  1  0.44335000  0.72464000  0.86850000  0.39 0.077496891
H  H79  1  0.77536000  0.94335000  0.36850000  0.39 0.077496891
H  H80  1  0.22464000  0.05665000  0.36850000  0.39 0.077496891
H  H81  1  0.05665000  0.22464000  0.36850000  0.39 0.077496891
H  H82  1  0.72464000  0.44335000  0.86850000  0.39 0.077496891
H  H83  1  0.94335000  0.77536000  0.36850000  0.39 0.077496891
H  H84  1  0.27536000  0.55665000  0.86850000  0.39 0.077496891
H  H85  1  0.44335000  0.72464000  0.13150000  0.39 0.077496891
H  H86  1  0.55665000  0.27536000  0.13150000  0.39 0.077496891
H  H87  1  0.22464000  0.05665000  0.63150000  0.39 0.077496891
H  H88  1  0.77536000  0.94335000  0.63150000  0.39 0.077496891
H  H89  1  0.97199000  0.71969000  0.89229000  0.39 0.1159002807
H  H90  1  0.21969000  0.52801000  0.39229000  0.39 0.1159002807
H  H91  1  0.02801000  0.28031000  0.89229000  0.39 0.1159002807
H  H92  1  0.78031000  0.47199000  0.39229000  0.39 0.1159002807
H  H93  1  0.52801000  0.21969000  0.60771000  0.39 0.1159002807
H  H94  1  0.47199000  0.78031000  0.60771000  0.39 0.1159002807
H  H95  1  0.71969000  0.97199000  0.10771000  0.39 0.1159002807
H  H96  1  0.28031000  0.02801000  0.10771000  0.39 0.1159002807
H  H97  1  0.02801000  0.28031000  0.10771000  0.39 0.1159002807
H  H98  1  0.78031000  0.47199000  0.60771000  0.39 0.1159002807
H  H99  1  0.97199000  0.71969000  0.10771000  0.39 0.1159002807
H  H100  1  0.21969000  0.52801000  0.60771000  0.39 0.1159002807
H  H101  1  0.47199000  0.78031000  0.39229000  0.39 0.1159002807
H  H102  1  0.52801000  0.21969000  0.39229000  0.39 0.1159002807
H  H103  1  0.28031000  0.02801000  0.89229000  0.39 0.1159002807
H  H104  1  0.71969000  0.97199000  0.89229000  0.39 0.1159002807
H  H105  1  0.11152000  0.75498000  0.89080000  0.61 0.0887395174
H  H106  1  0.25498000  0.38848000  0.39080000  0.61 0.0887395174
H  H107  1  0.88848000  0.24502000  0.89080000  0.61 0.0887395174
H  H108  1  0.74502000  0.61152000  0.39080000  0.61 0.0887395174
H  H109  1  0.38848000  0.25498000  0.60920000  0.61 0.0887395174
H  H110  1  0.61152000  0.74502000  0.60920000  0.61 0.0887395174
H  H111  1  0.75498000  0.11152000  0.10920000  0.61 0.0887395174
H  H112  1  0.24502000  0.88848000  0.10920000  0.61 0.0887395174
H  H113  1  0.88848000  0.24502000  0.10920000  0.61 0.0887395174
H  H114  1  0.74502000  0.61152000  0.60920000  0.61 0.0887395174
H  H115  1  0.11152000  0.75498000  0.10920000  0.61 0.0887395174
H  H116  1  0.25498000  0.38848000  0.60920000  0.61 0.0887395174
H  H117  1  0.61152000  0.74502000  0.39080000  0.61 0.0887395174
H  H118  1  0.38848000  0.25498000  0.39080000  0.61 0.0887395174
H  H119  1  0.24502000  0.88848000  0.89080000  0.61 0.0887395174
H  H120  1  0.75498000  0.11152000  0.89080000  0.61 0.0887395174
H  H121  1  0.98474000  0.79955000  0.74431000  0.61 0.0490775948
H  H122  1  0.29955000  0.51526000  0.24431000  0.61 0.0430660809
H  H123  1  0.01526000  0.20045000  0.74431000  0.61 0.0490775948
H  H124  1  0.70045000  0.48474000  0.24431000  0.61 0.0490775948
H  H125  1  0.51526000  0.29955000  0.75569000  0.61 0.0490775948
H  H126  1  0.48474000  0.70045000  0.75569000  0.61 0.0490775948
H  H127  1  0.79955000  0.98474000  0.25569000  0.61 0.0490775948
H  H128  1  0.20045000  0.01526000  0.25569000  0.61 0.0490775948
H  H129  1  0.01526000  0.20045000  0.25569000  0.61 0.0490775948
H  H130  1  0.70045000  0.48474000  0.75569000  0.61 0.0490775948
H  H131  1  0.98474000  0.79955000  0.25569000  0.61 0.0490775948
H  H132  1  0.29955000  0.51526000  0.75569000  0.61 0.0490775948
H  H133  1  0.48474000  0.70045000  0.24431000  0.61 0.0490775948
H  H134  1  0.51526000  0.29955000  0.24431000  0.61 0.0430660809
H  H135  1  0.20045000  0.01526000  0.74431000  0.61 0.0490775948
H  H136  1  0.79955000  0.98474000  0.74431000  0.61 0.0490775948
H  H137  1  0.91019000  0.70658000  0.84144000  0.61 0.0569188584
H  H138  1  0.20658000  0.58981000  0.34144000  0.61 0.0569188584
H  H139  1  0.08981000  0.29342000  0.84144000  0.61 0.0569188584
H  H140  1  0.79342000  0.41019000  0.34144000  0.61 0.0569188584
H  H141  1  0.58981000  0.20658000  0.65856000  0.61 0.0569188584
H  H142  1  0.41019000  0.79342000  0.65856000  0.61 0.0569188584
H  H143  1  0.70658000  0.91019000  0.15856000  0.61 0.0569188584
H  H144  1  0.29342000  0.08981000  0.15856000  0.61 0.0569188584
H  H145  1  0.08981000  0.29342000  0.15856000  0.61 0.0569188584
H  H146  1  0.79342000  0.41019000  0.65856000  0.61 0.0569188584
H  H147  1  0.91019000  0.70658000  0.15856000  0.61 0.0569188584
H  H148  1  0.20658000  0.58981000  0.65856000  0.61 0.0569188584
H  H149  1  0.41019000  0.79342000  0.34144000  0.61 0.0569188584
H  H150  1  0.58981000  0.20658000  0.34144000  0.61 0.0569188584
H  H151  1  0.29342000  0.08981000  0.84144000  0.61 0.0569188584
H  H152  1  0.70658000  0.91019000  0.84144000  0.61 0.0569188584
H  H153  1  0.85749000  0.71390000  0.75009000  0.61 0.0682314973
H  H154  1  0.21390000  0.64251000  0.25009000  0.61 0.0682314973
H  H155  1  0.14251000  0.28610000  0.75009000  0.61 0.0682314973
H  H156  1  0.78610000  0.35749000  0.25009000  0.61 0.0682314973
H  H157  1  0.64251000  0.21390000  0.74991000  0.61 0.0682314973
H  H158  1  0.35749000  0.78610000  0.74991000  0.61 0.0682314973
H  H159  1  0.71390000  0.85749000  0.24991000  0.61 0.0682314973
H  H160  1  0.28610000  0.14251000  0.24991000  0.61 0.0682314973
H  H161  1  0.14251000  0.28610000  0.24991000  0.61 0.0682314973
H  H162  1  0.78610000  0.35749000  0.74991000  0.61 0.0682314973
H  H163  1  0.85749000  0.71390000  0.24991000  0.61 0.0682314973
H  H164  1  0.21390000  0.64251000  0.74991000  0.61 0.0682314973
H  H165  1  0.35749000  0.78610000  0.25009000  0.61 0.0682314973
H  H166  1  0.64251000  0.21390000  0.25009000  0.61 0.0682314973
H  H167  1  0.28610000  0.14251000  0.75009000  0.61 0.0682314973
H  H168  1  0.71390000  0.85749000  0.75009000  0.61 0.0682314973
H  H169  1  0.93205000  0.80687000  0.65296000  0.61 0.077496891
H  H170  1  0.30687000  0.56795000  0.15296000  0.61 0.077496891
H  H171  1  0.06795000  0.19313000  0.65296000  0.61 0.077496891
H  H172  1  0.69313000  0.43205000  0.15296000  0.61 0.077496891
H  H173  1  0.56795000  0.30687000  0.84704000  0.61 0.077496891
H  H174  1  0.43205000  0.69313000  0.84704000  0.61 0.077496891
H  H175  1  0.80687000  0.93205000  0.34704000  0.61 0.077496891
H  H176  1  0.19313000  0.06795000  0.34704000  0.61 0.077496891
H  H177  1  0.06795000  0.19313000  0.34704000  0.61 0.077496891
H  H178  1  0.69313000  0.43205000  0.84704000  0.61 0.077496891
H  H179  1  0.93205000  0.80687000  0.34704000  0.61 0.077496891
H  H180  1  0.30687000  0.56795000  0.84704000  0.61 0.077496891
H  H181  1  0.43205000  0.69313000  0.15296000  0.61 0.077496891
H  H182  1  0.56795000  0.30687000  0.15296000  0.61 0.077496891
H  H183  1  0.19313000  0.06795000  0.65296000  0.61 0.077496891
H  H184  1  0.80687000  0.93205000  0.65296000  0.61 0.077496891
H  H185  1  0.99544000  0.74072000  0.00000000  0.61 0.016155538
H  H186  1  0.24072000  0.50456000  0.50000000  0.61 0.016155538
H  H187  1  0.00456000  0.25928000  0.00000000  0.61 0.016155538
H  H188  1  0.75928000  0.49544000  0.50000000  0.61 0.016155538
H  H189  1  0.50456000  0.24072000  0.50000000  0.61 0.016155538
H  H190  1  0.49544000  0.75928000  0.50000000  0.61 0.016155538
H  H191  1  0.74072000  0.99544000  0.00000000  0.61 0.016155538
H  H192  1  0.25928000  0.00456000  0.00000000  0.61 0.016155538
H  H193  1  0.97313000  0.74985000  0.90392000  0.61 0.1424657635
H  H194  1  0.24985000  0.52687000  0.40392000  0.61 0.1424657635
H  H195  1  0.02687000  0.25015000  0.90392000  0.61 0.1424657635
H  H196  1  0.75015000  0.47313000  0.40392000  0.61 0.1424657635
H  H197  1  0.52687000  0.24985000  0.59608000  0.61 0.1424657635
H  H198  1  0.47313000  0.75015000  0.59608000  0.61 0.1424657635
H  H199  1  0.74985000  0.97313000  0.09608000  0.61 0.1424657635
H  H200  1  0.25015000  0.02687000  0.09608000  0.61 0.1424657635
H  H201  1  0.02687000  0.25015000  0.09608000  0.61 0.1424657635
H  H202  1  0.75015000  0.47313000  0.59608000  0.61 0.1424657635
H  H203  1  0.97313000  0.74985000  0.09608000  0.61 0.1424657635
H  H204  1  0.24985000  0.52687000  0.59608000  0.61 0.1424657635
H  H205  1  0.47313000  0.75015000  0.40392000  0.61 0.1424657635
H  H206  1  0.52687000  0.24985000  0.40392000  0.61 0.1424657635
H  H207  1  0.25015000  0.02687000  0.90392000  0.61 0.1424657635
H  H208  1  0.74985000  0.97313000  0.90392000  0.61 0.1424657635
C  C1  1  0.16647000  0.74511000  0.00000000  1.0 0.4439497859
C  C2  1  0.24511000  0.33353000  0.50000000  1.0 0.4439497859
C  C3  1  0.83353000  0.25489000  0.00000000  1.0 0.4439497859
C  C4  1  0.75489000  0.66647000  0.50000000  1.0 0.4439497859
C  C5  1  0.33353000  0.24511000  0.50000000  1.0 0.4439497859
C  C6  1  0.66647000  0.75489000  0.50000000  1.0 0.4439497859
C  C7  1  0.74511000  0.16647000  0.00000000  1.0 0.4439497859
C  C8  1  0.25489000  0.83353000  0.00000000  1.0 0.4439497859
C  C9  1  0.26788000  0.64486000  0.86330000  1.0 0.5084773235
C  C10  1  0.14486000  0.23212000  0.36330000  1.0 0.5084773235
C  C11  1  0.73212000  0.35514000  0.86330000  1.0 0.5084773235
C  C12  1  0.85514000  0.76788000  0.36330000  1.0 0.5084773235
C  C13  1  0.23212000  0.14486000  0.63670000  1.0 0.5084773235
C  C14  1  0.76788000  0.85514000  0.63670000  1.0 0.5084773235
C  C15  1  0.64486000  0.26788000  0.13670000  1.0 0.5084773235
C  C16  1  0.35514000  0.73212000  0.13670000  1.0 0.5084773235
C  C17  1  0.73212000  0.35514000  0.13670000  1.0 0.5084773235
C  C18  1  0.85514000  0.76788000  0.63670000  1.0 0.5084773235
C  C19  1  0.26788000  0.64486000  0.13670000  1.0 0.5084773235
C  C20  1  0.14486000  0.23212000  0.63670000  1.0 0.5084773235
C  C21  1  0.76788000  0.85514000  0.36330000  1.0 0.5084773235
C  C22  1  0.23212000  0.14486000  0.36330000  1.0 0.5084773235
C  C23  1  0.35514000  0.73212000  0.86330000  1.0 0.5084773235
C  C24  1  0.64486000  0.26788000  0.86330000  1.0 0.5084773235
C  C25  1  0.95269000  0.75234000  0.80190000  0.39 -0.0375029976
C  C26  1  0.25234000  0.54731000  0.30190000  0.39 -0.0305408867
C  C27  1  0.04731000  0.24766000  0.80190000  0.39 -0.0305408867
C  C28  1  0.74766000  0.45269000  0.30190000  0.39 -0.0375029976
C  C29  1  0.54731000  0.25234000  0.69810000  0.39 -0.0375029976
C  C30  1  0.45269000  0.74766000  0.69810000  0.39 -0.0375029976
C  C31  1  0.75234000  0.95269000  0.19810000  0.39 -0.0375029976
C  C32  1  0.24766000  0.04731000  0.19810000  0.39 -0.0305408867
C  C33  1  0.04731000  0.24766000  0.19810000  0.39 -0.0305408867
C  C34  1  0.74766000  0.45269000  0.69810000  0.39 -0.0375029976
C  C35  1  0.95269000  0.75234000  0.19810000  0.39 -0.0375029976
C  C36  1  0.25234000  0.54731000  0.69810000  0.39 -0.0375029976
C  C37  1  0.45269000  0.74766000  0.30190000  0.39 -0.0375029976
C  C38  1  0.54731000  0.25234000  0.30190000  0.39 -0.0305408867
C  C39  1  0.24766000  0.04731000  0.80190000  0.39 -0.0375029976
C  C40  1  0.75234000  0.95269000  0.80190000  0.39 -0.0375029976
C  C41  1  0.88955000  0.76111000  0.69247000  0.39 -0.0595939345
C  C42  1  0.26111000  0.61045000  0.19247000  0.39 -0.0595939345
C  C43  1  0.11045000  0.23889000  0.69247000  0.39 -0.0595939345
C  C44  1  0.73889000  0.38955000  0.19247000  0.39 -0.0595939345
C  C45  1  0.61045000  0.26111000  0.80753000  0.39 -0.0595939345
C  C46  1  0.38955000  0.73889000  0.80753000  0.39 -0.0595939345
C  C47  1  0.76111000  0.88955000  0.30753000  0.39 -0.0595939345
C  C48  1  0.23889000  0.11045000  0.30753000  0.39 -0.0595939345
C  C49  1  0.11045000  0.23889000  0.30753000  0.39 -0.0595939345
C  C50  1  0.73889000  0.38955000  0.80753000  0.39 -0.0595939345
C  C51  1  0.88955000  0.76111000  0.30753000  0.39 -0.0595939345
C  C52  1  0.26111000  0.61045000  0.80753000  0.39 -0.0595939345
C  C53  1  0.38955000  0.73889000  0.19247000  0.39 -0.0595939345
C  C54  1  0.61045000  0.26111000  0.19247000  0.39 -0.0595939345
C  C55  1  0.23889000  0.11045000  0.69247000  0.39 -0.0595939345
C  C56  1  0.76111000  0.88955000  0.69247000  0.39 -0.0595939345
C  C57  1  0.11740000  0.73680000  0.00000000  0.39 0.0430660809
C  C58  1  0.23680000  0.38260000  0.50000000  0.39 0.0430660809
C  C59  1  0.88260000  0.26320000  0.00000000  0.39 0.0490775948
C  C60  1  0.76320000  0.61740000  0.50000000  0.39 0.0490775948
C  C61  1  0.38260000  0.23680000  0.50000000  0.39 0.0430660809
C  C62  1  0.61740000  0.76320000  0.50000000  0.39 0.0490775948
C  C63  1  0.73680000  0.11740000  0.00000000  0.39 0.0490775948
C  C64  1  0.26320000  0.88260000  0.00000000  0.39 0.0490775948
C  C65  1  0.09290000  0.74060000  0.93780000  0.39 -0.0920424615
C  C66  1  0.24060000  0.40710000  0.43780000  0.39 -0.0920424615
C  C67  1  0.90710000  0.25940000  0.93780000  0.39 -0.0920424615
C  C68  1  0.75940000  0.59290000  0.43780000  0.39 -0.0920424615
C  C69  1  0.40710000  0.24060000  0.56220000  0.39 -0.0920424615
C  C70  1  0.59290000  0.75940000  0.56220000  0.39 -0.0920424615
C  C71  1  0.74060000  0.09290000  0.06220000  0.39 -0.0920424615
C  C72  1  0.25940000  0.90710000  0.06220000  0.39 -0.0920424615
C  C73  1  0.90710000  0.25940000  0.06220000  0.39 -0.0920424615
C  C74  1  0.75940000  0.59290000  0.56220000  0.39 -0.0920424615
C  C75  1  0.09290000  0.74060000  0.06220000  0.39 -0.0920424615
C  C76  1  0.24060000  0.40710000  0.56220000  0.39 -0.0920424615
C  C77  1  0.59290000  0.75940000  0.43780000  0.39 -0.0920424615
C  C78  1  0.40710000  0.24060000  0.43780000  0.39 -0.0920424615
C  C79  1  0.25940000  0.90710000  0.93780000  0.39 -0.0920424615
C  C80  1  0.74060000  0.09290000  0.93780000  0.39 -0.0920424615
C  C81  1  0.04850000  0.75000000  0.93530000  0.39 -0.1140602819
C  C82  1  0.25000000  0.45150000  0.43530000  0.39 -0.1201448328
C  C83  1  0.95150000  0.25000000  0.93530000  0.39 -0.1201448328
C  C84  1  0.75000000  0.54850000  0.43530000  0.39 -0.1201448328
C  C85  1  0.45150000  0.25000000  0.56470000  0.39 -0.1201448328
C  C86  1  0.54850000  0.75000000  0.56470000  0.39 -0.1201448328
C  C87  1  0.75000000  0.04850000  0.06470000  0.39 -0.1140602819
C  C88  1  0.25000000  0.95150000  0.06470000  0.39 -0.1201448328
C  C89  1  0.95150000  0.25000000  0.06470000  0.39 -0.1201448328
C  C90  1  0.75000000  0.54850000  0.56470000  0.39 -0.1201448328
C  C91  1  0.04850000  0.75000000  0.06470000  0.39 -0.1140602819
C  C92  1  0.25000000  0.45150000  0.56470000  0.39 -0.1201448328
C  C93  1  0.54850000  0.75000000  0.43530000  0.39 -0.1201448328
C  C94  1  0.45150000  0.25000000  0.43530000  0.39 -0.1201448328
C  C95  1  0.25000000  0.95150000  0.93530000  0.39 -0.1201448328
C  C96  1  0.75000000  0.04850000  0.93530000  0.39 -0.1140602819
C  C97  1  0.02560000  0.76680000  0.00000000  0.39 -0.0007028412
C  C98  1  0.26680000  0.47440000  0.50000000  0.39 -0.0007028412
C  C99  1  0.97440000  0.23320000  0.00000000  0.39 0.0033482445
C  C100  1  0.73320000  0.52560000  0.50000000  0.39 0.0033482445
C  C101  1  0.47440000  0.26680000  0.50000000  0.39 -0.0007028412
C  C102  1  0.52560000  0.73320000  0.50000000  0.39 -0.0007028412
C  C103  1  0.76680000  0.02560000  0.00000000  0.39 -0.0007028412
C  C104  1  0.23320000  0.97440000  0.00000000  0.39 0.0033482445
C  C105  1  0.96620000  0.76300000  0.73280000  0.39 -0.0375029976
C  C106  1  0.26300000  0.53380000  0.23280000  0.39 -0.0375029976
C  C107  1  0.03380000  0.23700000  0.73280000  0.39 -0.0375029976
C  C108  1  0.73700000  0.46620000  0.23280000  0.39 -0.0375029976
C  C109  1  0.53380000  0.26300000  0.76720000  0.39 -0.0375029976
C  C110  1  0.46620000  0.73700000  0.76720000  0.39 -0.0375029976
C  C111  1  0.76300000  0.96620000  0.26720000  0.39 -0.0375029976
C  C112  1  0.23700000  0.03380000  0.26720000  0.39 -0.0375029976
C  C113  1  0.03380000  0.23700000  0.26720000  0.39 -0.0375029976
C  C114  1  0.73700000  0.46620000  0.76720000  0.39 -0.0375029976
C  C115  1  0.96620000  0.76300000  0.26720000  0.39 -0.0375029976
C  C116  1  0.26300000  0.53380000  0.76720000  0.39 -0.0375029976
C  C117  1  0.46620000  0.73700000  0.23280000  0.39 -0.0375029976
C  C118  1  0.53380000  0.26300000  0.23280000  0.39 -0.0375029976
C  C119  1  0.23700000  0.03380000  0.73280000  0.39 -0.0375029976
C  C120  1  0.76300000  0.96620000  0.73280000  0.39 -0.0375029976
C  C121  1  0.90920000  0.74530000  0.81980000  0.39 -0.0521223421
C  C122  1  0.24530000  0.59080000  0.31980000  0.39 -0.0521223421
C  C123  1  0.09080000  0.25470000  0.81980000  0.39 -0.0521223421
C  C124  1  0.75470000  0.40920000  0.31980000  0.39 -0.0521223421
C  C125  1  0.59080000  0.24530000  0.68020000  0.39 -0.0521223421
C  C126  1  0.40920000  0.75470000  0.68020000  0.39 -0.0521223421
C  C127  1  0.74530000  0.90920000  0.18020000  0.39 -0.0521223421
C  C128  1  0.25470000  0.09080000  0.18020000  0.39 -0.0521223421
C  C129  1  0.09080000  0.25470000  0.18020000  0.39 -0.0521223421
C  C130  1  0.75470000  0.40920000  0.68020000  0.39 -0.0521223421
C  C131  1  0.90920000  0.74530000  0.18020000  0.39 -0.0521223421
C  C132  1  0.24530000  0.59080000  0.68020000  0.39 -0.0521223421
C  C133  1  0.40920000  0.75470000  0.31980000  0.39 -0.0521223421
C  C134  1  0.59080000  0.24530000  0.31980000  0.39 -0.0521223421
C  C135  1  0.25470000  0.09080000  0.81980000  0.39 -0.0521223421
C  C136  1  0.74530000  0.90920000  0.81980000  0.39 -0.0521223421
C  C137  1  0.87740000  0.74990000  0.76540000  0.39 -0.0375029976
C  C138  1  0.24990000  0.62260000  0.26540000  0.39 -0.0375029976
C  C139  1  0.12260000  0.25010000  0.76540000  0.39 -0.0375029976
C  C140  1  0.75010000  0.37740000  0.26540000  0.39 -0.0375029976
C  C141  1  0.62260000  0.24990000  0.73460000  0.39 -0.0375029976
C  C142  1  0.37740000  0.75010000  0.73460000  0.39 -0.0375029976
C  C143  1  0.74990000  0.87740000  0.23460000  0.39 -0.0375029976
C  C144  1  0.25010000  0.12260000  0.23460000  0.39 -0.0375029976
C  C145  1  0.12260000  0.25010000  0.23460000  0.39 -0.0375029976
C  C146  1  0.75010000  0.37740000  0.73460000  0.39 -0.0375029976
C  C147  1  0.87740000  0.74990000  0.23460000  0.39 -0.0375029976
C  C148  1  0.24990000  0.62260000  0.73460000  0.39 -0.0375029976
C  C149  1  0.37740000  0.75010000  0.26540000  0.39 -0.0375029976
C  C150  1  0.62260000  0.24990000  0.26540000  0.39 -0.0375029976
C  C151  1  0.25010000  0.12260000  0.76540000  0.39 -0.0375029976
C  C152  1  0.74990000  0.87740000  0.76540000  0.39 -0.0375029976
C  C153  1  0.93450000  0.76770000  0.67850000  0.39 -0.0305408867
C  C154  1  0.26770000  0.56550000  0.17850000  0.39 -0.0375029976
C  C155  1  0.06550000  0.23230000  0.67850000  0.39 -0.0305408867
C  C156  1  0.73230000  0.43450000  0.17850000  0.39 -0.0305408867
C  C157  1  0.56550000  0.26770000  0.82150000  0.39 -0.0305408867
C  C158  1  0.43450000  0.73230000  0.82150000  0.39 -0.0305408867
C  C159  1  0.76770000  0.93450000  0.32150000  0.39 -0.0305408867
C  C160  1  0.23230000  0.06550000  0.32150000  0.39 -0.0305408867
C  C161  1  0.06550000  0.23230000  0.32150000  0.39 -0.0305408867
C  C162  1  0.73230000  0.43450000  0.82150000  0.39 -0.0305408867
C  C163  1  0.93450000  0.76770000  0.32150000  0.39 -0.0305408867
C  C164  1  0.26770000  0.56550000  0.82150000  0.39 -0.0305408867
C  C165  1  0.43450000  0.73230000  0.17850000  0.39 -0.0305408867
C  C166  1  0.56550000  0.26770000  0.17850000  0.39 -0.0375029976
C  C167  1  0.23230000  0.06550000  0.67850000  0.39 -0.0305408867
C  C168  1  0.76770000  0.93450000  0.67850000  0.39 -0.0305408867
C  C169  1  0.02510000  0.74760000  0.86260000  0.39 0.2095165372
C  C170  1  0.24760000  0.47490000  0.36260000  0.39 0.2095165372
C  C171  1  0.97490000  0.25240000  0.86260000  0.39 0.2095165372
C  C172  1  0.75240000  0.52510000  0.36260000  0.39 0.2095165372
C  C173  1  0.47490000  0.24760000  0.63740000  0.39 0.2095165372
C  C174  1  0.52510000  0.75240000  0.63740000  0.39 0.2095165372
C  C175  1  0.74760000  0.02510000  0.13740000  0.39 0.2095165372
C  C176  1  0.25240000  0.97490000  0.13740000  0.39 0.2095165372
C  C177  1  0.97490000  0.25240000  0.13740000  0.39 0.2095165372
C  C178  1  0.75240000  0.52510000  0.63740000  0.39 0.2095165372
C  C179  1  0.02510000  0.74760000  0.13740000  0.39 0.2095165372
C  C180  1  0.24760000  0.47490000  0.63740000  0.39 0.2095165372
C  C181  1  0.52510000  0.75240000  0.36260000  0.39 0.2095165372
C  C182  1  0.47490000  0.24760000  0.36260000  0.39 0.2095165372
C  C183  1  0.25240000  0.97490000  0.86260000  0.39 0.2095165372
C  C184  1  0.74760000  0.02510000  0.86260000  0.39 0.2095165372
C  C185  1  0.11730000  0.75270000  0.00000000  0.61 0.0430660809
C  C186  1  0.25270000  0.38270000  0.50000000  0.61 0.0430660809
C  C187  1  0.88270000  0.24730000  0.00000000  0.61 0.0430660809
C  C188  1  0.74730000  0.61730000  0.50000000  0.61 0.0430660809
C  C189  1  0.38270000  0.25270000  0.50000000  0.61 0.0430660809
C  C190  1  0.61730000  0.74730000  0.50000000  0.61 0.0430660809
C  C191  1  0.75270000  0.11730000  0.00000000  0.61 0.0430660809
C  C192  1  0.24730000  0.88270000  0.00000000  0.61 0.0430660809
C  C193  1  0.09550000  0.75440000  0.93420000  0.61 -0.0920424615
C  C194  1  0.25440000  0.40450000  0.43420000  0.61 -0.0920424615
C  C195  1  0.90450000  0.24560000  0.93420000  0.61 -0.0920424615
C  C196  1  0.74560000  0.59550000  0.43420000  0.61 -0.0920424615
C  C197  1  0.40450000  0.25440000  0.56580000  0.61 -0.0920424615
C  C198  1  0.59550000  0.74560000  0.56580000  0.61 -0.0920424615
C  C199  1  0.75440000  0.09550000  0.06580000  0.61 -0.0920424615
C  C200  1  0.24560000  0.90450000  0.06580000  0.61 -0.0920424615
C  C201  1  0.90450000  0.24560000  0.06580000  0.61 -0.0920424615
C  C202  1  0.74560000  0.59550000  0.56580000  0.61 -0.0920424615
C  C203  1  0.09550000  0.75440000  0.06580000  0.61 -0.0920424615
C  C204  1  0.25440000  0.40450000  0.56580000  0.61 -0.0920424615
C  C205  1  0.59550000  0.74560000  0.43420000  0.61 -0.0920424615
C  C206  1  0.40450000  0.25440000  0.43420000  0.61 -0.0920424615
C  C207  1  0.24560000  0.90450000  0.93420000  0.61 -0.0920424615
C  C208  1  0.75440000  0.09550000  0.93420000  0.61 -0.0920424615
C  C209  1  0.95924000  0.78240000  0.74550000  0.61 -0.0305408867
C  C210  1  0.28240000  0.54076000  0.24550000  0.61 -0.0305408867
C  C211  1  0.04076000  0.21760000  0.74550000  0.61 -0.0305408867
C  C212  1  0.71760000  0.45924000  0.24550000  0.61 -0.0305408867
C  C213  1  0.54076000  0.28240000  0.75450000  0.61 -0.0305408867
C  C214  1  0.45924000  0.71760000  0.75450000  0.61 -0.0305408867
C  C215  1  0.78240000  0.95924000  0.25450000  0.61 -0.0305408867
C  C216  1  0.21760000  0.04076000  0.25450000  0.61 -0.0305408867
C  C217  1  0.04076000  0.21760000  0.25450000  0.61 -0.0305408867
C  C218  1  0.71760000  0.45924000  0.75450000  0.61 -0.0305408867
C  C219  1  0.95924000  0.78240000  0.25450000  0.61 -0.0305408867
C  C220  1  0.28240000  0.54076000  0.75450000  0.61 -0.0305408867
C  C221  1  0.45924000  0.71760000  0.24550000  0.61 -0.0305408867
C  C222  1  0.54076000  0.28240000  0.24550000  0.61 -0.0305408867
C  C223  1  0.21760000  0.04076000  0.74550000  0.61 -0.0305408867
C  C224  1  0.78240000  0.95924000  0.74550000  0.61 -0.0305408867
C  C225  1  0.91460000  0.72670000  0.80370000  0.61 -0.0595939345
C  C226  1  0.22670000  0.58540000  0.30370000  0.61 -0.0595939345
C  C227  1  0.08540000  0.27330000  0.80370000  0.61 -0.0595939345
C  C228  1  0.77330000  0.41460000  0.30370000  0.61 -0.0595939345
C  C229  1  0.58540000  0.22670000  0.69630000  0.61 -0.0595939345
C  C230  1  0.41460000  0.77330000  0.69630000  0.61 -0.0595939345
C  C231  1  0.72670000  0.91460000  0.19630000  0.61 -0.0595939345
C  C232  1  0.27330000  0.08540000  0.19630000  0.61 -0.0595939345
C  C233  1  0.08540000  0.27330000  0.19630000  0.61 -0.0595939345
C  C234  1  0.77330000  0.41460000  0.69630000  0.61 -0.0595939345
C  C235  1  0.91460000  0.72670000  0.19630000  0.61 -0.0595939345
C  C236  1  0.22670000  0.58540000  0.69630000  0.61 -0.0595939345
C  C237  1  0.41460000  0.77330000  0.30370000  0.61 -0.0595939345
C  C238  1  0.58540000  0.22670000  0.30370000  0.61 -0.0595939345
C  C239  1  0.27330000  0.08540000  0.80370000  0.61 -0.0595939345
C  C240  1  0.72670000  0.91460000  0.80370000  0.61 -0.0595939345
C  C241  1  0.88300000  0.73110000  0.74890000  0.61 -0.0203956045
C  C242  1  0.23110000  0.61700000  0.24890000  0.61 -0.0203956045
C  C243  1  0.11700000  0.26890000  0.74890000  0.61 -0.0203956045
C  C244  1  0.76890000  0.38300000  0.24890000  0.61 -0.0203956045
C  C245  1  0.61700000  0.23110000  0.75110000  0.61 -0.0203956045
C  C246  1  0.38300000  0.76890000  0.75110000  0.61 -0.0203956045
C  C247  1  0.73110000  0.88300000  0.25110000  0.61 -0.0203956045
C  C248  1  0.26890000  0.11700000  0.25110000  0.61 -0.0203956045
C  C249  1  0.11700000  0.26890000  0.25110000  0.61 -0.0203956045
C  C250  1  0.76890000  0.38300000  0.75110000  0.61 -0.0203956045
C  C251  1  0.88300000  0.73110000  0.25110000  0.61 -0.0203956045
C  C252  1  0.23110000  0.61700000  0.75110000  0.61 -0.0203956045
C  C253  1  0.38300000  0.76890000  0.24890000  0.61 -0.0203956045
C  C254  1  0.61700000  0.23110000  0.24890000  0.61 -0.0203956045
C  C255  1  0.26890000  0.11700000  0.74890000  0.61 -0.0203956045
C  C256  1  0.73110000  0.88300000  0.74890000  0.61 -0.0203956045
C  C257  1  0.92770000  0.78680000  0.69070000  0.61 -0.0305408867
C  C258  1  0.28680000  0.57230000  0.19070000  0.61 -0.0305408867
C  C259  1  0.07230000  0.21320000  0.69070000  0.61 -0.0305408867
C  C260  1  0.71320000  0.42770000  0.19070000  0.61 -0.0305408867
C  C261  1  0.57230000  0.28680000  0.80930000  0.61 -0.0305408867
C  C262  1  0.42770000  0.71320000  0.80930000  0.61 -0.0305408867
C  C263  1  0.78680000  0.92770000  0.30930000  0.61 -0.0305408867
C  C264  1  0.21320000  0.07230000  0.30930000  0.61 -0.0305408867
C  C265  1  0.07230000  0.21320000  0.30930000  0.61 -0.0305408867
C  C266  1  0.71320000  0.42770000  0.80930000  0.61 -0.0305408867
C  C267  1  0.92770000  0.78680000  0.30930000  0.61 -0.0305408867
C  C268  1  0.28680000  0.57230000  0.80930000  0.61 -0.0305408867
C  C269  1  0.42770000  0.71320000  0.19070000  0.61 -0.0305408867
C  C270  1  0.57230000  0.28680000  0.19070000  0.61 -0.0305408867
C  C271  1  0.21320000  0.07230000  0.69070000  0.61 -0.0305408867
C  C272  1  0.78680000  0.92770000  0.69070000  0.61 -0.0305408867
C  C273  1  0.02510000  0.74870000  0.00000000  0.61 -0.0203956045
C  C274  1  0.24870000  0.47490000  0.50000000  0.61 -0.0203956045
C  C275  1  0.97490000  0.25130000  0.00000000  0.61 -0.0117266835
C  C276  1  0.75130000  0.52510000  0.50000000  0.61 -0.0117266835
C  C277  1  0.47490000  0.24870000  0.50000000  0.61 -0.0203956045
C  C278  1  0.52510000  0.75130000  0.50000000  0.61 -0.0203956045
C  C279  1  0.74870000  0.02510000  0.00000000  0.61 -0.0203956045
C  C280  1  0.25130000  0.97490000  0.00000000  0.61 -0.0117266835
C  C281  1  0.05000000  0.75500000  0.93230000  0.61 -0.1140602819
C  C282  1  0.25500000  0.45000000  0.43230000  0.61 -0.1201448328
C  C283  1  0.95000000  0.24500000  0.93230000  0.61 -0.1201448328
C  C284  1  0.74500000  0.55000000  0.43230000  0.61 -0.1201448328
C  C285  1  0.45000000  0.25500000  0.56770000  0.61 -0.1140602819
C  C286  1  0.55000000  0.74500000  0.56770000  0.61 -0.1201448328
C  C287  1  0.75500000  0.05000000  0.06770000  0.61 -0.1201448328
C  C288  1  0.24500000  0.95000000  0.06770000  0.61 -0.1201448328
C  C289  1  0.95000000  0.24500000  0.06770000  0.61 -0.1201448328
C  C290  1  0.74500000  0.55000000  0.56770000  0.61 -0.1201448328
C  C291  1  0.05000000  0.75500000  0.06770000  0.61 -0.1201448328
C  C292  1  0.25500000  0.45000000  0.56770000  0.61 -0.1140602819
C  C293  1  0.55000000  0.74500000  0.43230000  0.61 -0.1201448328
C  C294  1  0.45000000  0.25500000  0.43230000  0.61 -0.1201448328
C  C295  1  0.24500000  0.95000000  0.93230000  0.61 -0.1201448328
C  C296  1  0.75500000  0.05000000  0.93230000  0.61 -0.1140602819
C  C297  1  0.02730000  0.76520000  0.86100000  0.61 0.2279623112
C  C298  1  0.26520000  0.47270000  0.36100000  0.61 0.2279623112
C  C299  1  0.97270000  0.23480000  0.86100000  0.61 0.2279623112
C  C300  1  0.73480000  0.52730000  0.36100000  0.61 0.2279623112
C  C301  1  0.47270000  0.26520000  0.63900000  0.61 0.2279623112
C  C302  1  0.52730000  0.73480000  0.63900000  0.61 0.2279623112
C  C303  1  0.76520000  0.02730000  0.13900000  0.61 0.2279623112
C  C304  1  0.23480000  0.97270000  0.13900000  0.61 0.2279623112
C  C305  1  0.97270000  0.23480000  0.13900000  0.61 0.2279623112
C  C306  1  0.73480000  0.52730000  0.63900000  0.61 0.2279623112
C  C307  1  0.02730000  0.76520000  0.13900000  0.61 0.2279623112
C  C308  1  0.26520000  0.47270000  0.63900000  0.61 0.2279623112
C  C309  1  0.52730000  0.73480000  0.36100000  0.61 0.2279623112
C  C310  1  0.47270000  0.26520000  0.36100000  0.61 0.2279623112
C  C311  1  0.23480000  0.97270000  0.86100000  0.61 0.2279623112
C  C312  1  0.76520000  0.02730000  0.86100000  0.61 0.2279623112
N  N1  1  0.98250000  0.73680000  0.85900000  0.39 -0.0715143317
N  N2  1  0.23680000  0.51750000  0.35900000  0.39 -0.0715143317
N  N3  1  0.01750000  0.26320000  0.85900000  0.39 -0.0715143317
N  N4  1  0.76320000  0.48250000  0.35900000  0.39 -0.0715143317
N  N5  1  0.51750000  0.23680000  0.64100000  0.39 -0.0715143317
N  N6  1  0.48250000  0.76320000  0.64100000  0.39 -0.0715143317
N  N7  1  0.73680000  0.98250000  0.14100000  0.39 -0.0715143317
N  N8  1  0.26320000  0.01750000  0.14100000  0.39 -0.0715143317
N  N9  1  0.01750000  0.26320000  0.14100000  0.39 -0.0715143317
N  N10  1  0.76320000  0.48250000  0.64100000  0.39 -0.0715143317
N  N11  1  0.98250000  0.73680000  0.14100000  0.39 -0.0715143317
N  N12  1  0.23680000  0.51750000  0.64100000  0.39 -0.0715143317
N  N13  1  0.48250000  0.76320000  0.35900000  0.39 -0.0715143317
N  N14  1  0.51750000  0.23680000  0.35900000  0.39 -0.0715143317
N  N15  1  0.26320000  0.01750000  0.85900000  0.39 -0.0715143317
N  N16  1  0.73680000  0.98250000  0.85900000  0.39 -0.0715143317
N  N17  1  0.98400000  0.75530000  0.86140000  0.61 -0.096053587
N  N18  1  0.25530000  0.51600000  0.36140000  0.61 -0.096053587
N  N19  1  0.01600000  0.24470000  0.86140000  0.61 -0.096053587
N  N20  1  0.74470000  0.48400000  0.36140000  0.61 -0.096053587
N  N21  1  0.51600000  0.25530000  0.63860000  0.61 -0.096053587
N  N22  1  0.48400000  0.74470000  0.63860000  0.61 -0.096053587
N  N23  1  0.75530000  0.98400000  0.13860000  0.61 -0.096053587
N  N24  1  0.24470000  0.01600000  0.13860000  0.61 -0.096053587
N  N25  1  0.01600000  0.24470000  0.13860000  0.61 -0.096053587
N  N26  1  0.74470000  0.48400000  0.63860000  0.61 -0.096053587
N  N27  1  0.98400000  0.75530000  0.13860000  0.61 -0.096053587
N  N28  1  0.25530000  0.51600000  0.63860000  0.61 -0.096053587
N  N29  1  0.48400000  0.74470000  0.36140000  0.61 -0.096053587
N  N30  1  0.51600000  0.25530000  0.36140000  0.61 -0.096053587
N  N31  1  0.24470000  0.01600000  0.86140000  0.61 -0.096053587
N  N32  1  0.75530000  0.98400000  0.86140000  0.61 -0.096053587
O  O1  1  0.27724000  0.72276000  0.00000000  1.0 -1.0200628519
O  O2  1  0.22276000  0.22276000  0.50000000  1.0 -1.0200628519
O  O3  1  0.72276000  0.27724000  0.00000000  1.0 -1.0200628519
O  O4  1  0.77724000  0.77724000  0.50000000  1.0 -1.0200628519
O  O5  1  0.18525000  0.74372000  0.06153000  1.0 -0.5195884326
O  O6  1  0.24372000  0.31475000  0.56153000  1.0 -0.5195884326
O  O7  1  0.81475000  0.25628000  0.06153000  1.0 -0.5195884326
O  O8  1  0.75628000  0.68525000  0.56153000  1.0 -0.5195884326
O  O9  1  0.31475000  0.24372000  0.43847000  1.0 -0.5195884326
O  O10  1  0.68525000  0.75628000  0.43847000  1.0 -0.5195884326
O  O11  1  0.74372000  0.18525000  0.93847000  1.0 -0.5195884326
O  O12  1  0.25628000  0.81475000  0.93847000  1.0 -0.5195884326
O  O13  1  0.81475000  0.25628000  0.93847000  1.0 -0.5146591842
O  O14  1  0.75628000  0.68525000  0.43847000  1.0 -0.5195884326
O  O15  1  0.18525000  0.74372000  0.93847000  1.0 -0.5195884326
O  O16  1  0.24372000  0.31475000  0.43847000  1.0 -0.5195884326
O  O17  1  0.68525000  0.75628000  0.56153000  1.0 -0.5195884326
O  O18  1  0.31475000  0.24372000  0.56153000  1.0 -0.5195884326
O  O19  1  0.25628000  0.81475000  0.06153000  1.0 -0.5195884326
O  O20  1  0.74372000  0.18525000  0.06153000  1.0 -0.5195884326
O  O21  1  0.24874000  0.68192000  0.14622000  1.0 -0.5703755349
O  O22  1  0.18192000  0.25126000  0.64622000  1.0 -0.5703755349
O  O23  1  0.75126000  0.31808000  0.14622000  1.0 -0.5703755349
O  O24  1  0.81808000  0.74874000  0.64622000  1.0 -0.5703755349
O  O25  1  0.25126000  0.18192000  0.35378000  1.0 -0.5703755349
O  O26  1  0.74874000  0.81808000  0.35378000  1.0 -0.5703755349
O  O27  1  0.68192000  0.24874000  0.85378000  1.0 -0.5703755349
O  O28  1  0.31808000  0.75126000  0.85378000  1.0 -0.5703755349
O  O29  1  0.75126000  0.31808000  0.85378000  1.0 -0.5703755349
O  O30  1  0.81808000  0.74874000  0.35378000  1.0 -0.5703755349
O  O31  1  0.24874000  0.68192000  0.85378000  1.0 -0.5703755349
O  O32  1  0.18192000  0.25126000  0.35378000  1.0 -0.5703755349
O  O33  1  0.74874000  0.81808000  0.64622000  1.0 -0.5703755349
O  O34  1  0.25126000  0.18192000  0.64622000  1.0 -0.5703755349
O  O35  1  0.31808000  0.75126000  0.14622000  1.0 -0.5703755349
O  O36  1  0.68192000  0.24874000  0.14622000  1.0 -0.5703755349
O  O37  1  0.29247000  0.63642000  0.91535000  1.0 -0.5195884326
O  O38  1  0.13642000  0.20753000  0.41535000  1.0 -0.5195884326
O  O39  1  0.70753000  0.36358000  0.91535000  1.0 -0.5195884326
O  O40  1  0.86358000  0.79247000  0.41535000  1.0 -0.5195884326
O  O41  1  0.20753000  0.13642000  0.58465000  1.0 -0.5195884326
O  O42  1  0.79247000  0.86358000  0.58465000  1.0 -0.5195884326
O  O43  1  0.63642000  0.29247000  0.08465000  1.0 -0.5195884326
O  O44  1  0.36358000  0.70753000  0.08465000  1.0 -0.5195884326
O  O45  1  0.70753000  0.36358000  0.08465000  1.0 -0.5195884326
O  O46  1  0.86358000  0.79247000  0.58465000  1.0 -0.5195884326
O  O47  1  0.29247000  0.63642000  0.08465000  1.0 -0.5195884326
O  O48  1  0.13642000  0.20753000  0.58465000  1.0 -0.5195884326
O  O49  1  0.79247000  0.86358000  0.41535000  1.0 -0.5195884326
O  O50  1  0.20753000  0.13642000  0.41535000  1.0 -0.5195884326
O  O51  1  0.36358000  0.70753000  0.91535000  1.0 -0.5195884326
O  O52  1  0.63642000  0.29247000  0.91535000  1.0 -0.5195884326
O  O53  1  0.04620000  0.78430000  0.81030000  0.61 -0.1486089734
O  O54  1  0.28430000  0.45380000  0.31030000  0.61 -0.1486089734
O  O55  1  0.95380000  0.21570000  0.81030000  0.61 -0.1486089734
O  O56  1  0.71570000  0.54620000  0.31030000  0.61 -0.1486089734
O  O57  1  0.45380000  0.28430000  0.68970000  0.61 -0.1486089734
O  O58  1  0.54620000  0.71570000  0.68970000  0.61 -0.1486089734
O  O59  1  0.78430000  0.04620000  0.18970000  0.61 -0.1486089734
O  O60  1  0.21570000  0.95380000  0.18970000  0.61 -0.1486089734
O  O61  1  0.95380000  0.21570000  0.18970000  0.61 -0.1486089734
O  O62  1  0.71570000  0.54620000  0.68970000  0.61 -0.1486089734
O  O63  1  0.04620000  0.78430000  0.18970000  0.61 -0.1486089734
O  O64  1  0.28430000  0.45380000  0.68970000  0.61 -0.1486089734
O  O65  1  0.54620000  0.71570000  0.31030000  0.61 -0.1486089734
O  O66  1  0.45380000  0.28430000  0.31030000  0.61 -0.1486089734
O  O67  1  0.21570000  0.95380000  0.81030000  0.61 -0.1486089734
O  O68  1  0.78430000  0.04620000  0.81030000  0.61 -0.1486089734
O  O69  1  0.04620000  0.75020000  0.80520000  0.39 -0.1610815704
O  O70  1  0.25020000  0.45380000  0.30520000  0.39 -0.1610815704
O  O71  1  0.95380000  0.24980000  0.80520000  0.39 -0.1610815704
O  O72  1  0.74980000  0.54620000  0.30520000  0.39 -0.1610815704
O  O73  1  0.45380000  0.25020000  0.69480000  0.39 -0.1610815704
O  O74  1  0.54620000  0.74980000  0.69480000  0.39 -0.1610815704
O  O75  1  0.75020000  0.04620000  0.19480000  0.39 -0.1610815704
O  O76  1  0.24980000  0.95380000  0.19480000  0.39 -0.1610815704
O  O77  1  0.95380000  0.24980000  0.19480000  0.39 -0.1610815704
O  O78  1  0.74980000  0.54620000  0.69480000  0.39 -0.1610815704
O  O79  1  0.04620000  0.75020000  0.19480000  0.39 -0.1610815704
O  O80  1  0.25020000  0.45380000  0.69480000  0.39 -0.1610815704
O  O81  1  0.54620000  0.74980000  0.30520000  0.39 -0.1610815704
O  O82  1  0.45380000  0.25020000  0.30520000  0.39 -0.1610815704
O  O83  1  0.24980000  0.95380000  0.80520000  0.39 -0.1610815704
O  O84  1  0.75020000  0.04620000  0.80520000  0.39 -0.1610815704
