# DDEC6 charges by PACMAN v1.1 (https://github.com/mtap-research/PACMAN-charge/)
data_cm303749m_si_002_FSR_pacman
_symmetry_space_group_name_H-M   'P 1'
_cell_length_a   11.65330000
_cell_length_b   15.46480000
_cell_length_c   15.46480000
_cell_angle_alpha   90.00000000
_cell_angle_beta   90.20500000
_cell_angle_gamma   90.00000000
_symmetry_Int_Tables_number   1
_chemical_formula_structural   ZnH13C22(NO2)2
_chemical_formula_sum   'Zn2 H26 C44 N4 O8'
_cell_volume   2786.98584398
_cell_formula_units_Z   2
loop_
 _symmetry_equiv_pos_site_id
 _symmetry_equiv_pos_as_xyz
  1  'x, y, z'
loop_
 _atom_site_type_symbol
 _atom_site_label
 _atom_site_symmetry_multiplicity
 _atom_site_fract_x
 _atom_site_fract_y
 _atom_site_fract_z
 _atom_site_occupancy
 _atom_site_charge
Zn  Zn1  1  0.51089000  0.50000000  0.59645000  1.0 0.8882235534
Zn  Zn2  1  0.48911000  0.50000000  0.40355000  1.0 0.8882235534
H  H1  1  0.07801000  0.79387000  0.38370000  1.0 0.1023388432
H  H2  1  0.92199000  0.79387000  0.61630000  1.0 0.1023388432
H  H3  1  0.92199000  0.20613000  0.61630000  1.0 0.1023388432
H  H4  1  0.07801000  0.20613000  0.38370000  1.0 0.1023388432
H  H5  1  0.32433000  0.73120000  0.63841000  1.0 0.1075565427
H  H6  1  0.67567000  0.73120000  0.36159000  1.0 0.1075565427
H  H7  1  0.67567000  0.26880000  0.36159000  1.0 0.1075565427
H  H8  1  0.32433000  0.26880000  0.63841000  1.0 0.1075565427
H  H9  1  0.20226000  0.66570000  0.38308000  1.0 0.1023388432
H  H10  1  0.79774000  0.66570000  0.61692000  1.0 0.1023388432
H  H11  1  0.79774000  0.33430000  0.61692000  1.0 0.1023388432
H  H12  1  0.20226000  0.33430000  0.38308000  1.0 0.1023388432
H  H13  1  0.20163000  0.86054000  0.63782000  1.0 0.1023388432
H  H14  1  0.79837000  0.86054000  0.36218000  1.0 0.1023388432
H  H15  1  0.79837000  0.13946000  0.36218000  1.0 0.1023388432
H  H16  1  0.20163000  0.13946000  0.63782000  1.0 0.1023388432
H  H17  1  0.70492000  0.50000000  0.70959000  1.0 0.1023388432
H  H18  1  0.29508000  0.50000000  0.29041000  1.0 0.1023388432
H  H19  1  0.34224000  0.50000000  0.72380000  1.0 0.1075565427
H  H20  1  0.65776000  0.50000000  0.27620000  1.0 0.1075565427
H  H21  1  0.34947000  0.50000000  0.88210000  1.0 0.1219779275
H  H22  1  0.65053000  0.50000000  0.11790000  1.0 0.1219779275
H  H23  1  0.72039000  0.50000000  0.86943000  1.0 0.1277278013
H  H24  1  0.27961000  0.50000000  0.13057000  1.0 0.1277278013
H  H25  1  0.20963000  0.00000000  0.52724000  1.0 0.1075565427
H  H26  1  0.79037000  0.00000000  0.47276000  1.0 0.1075565427
C  C1  1  0.27350000  0.68751000  0.51084000  1.0 -0.0564870887
C  C2  1  0.72650000  0.68751000  0.48916000  1.0 -0.0564870887
C  C3  1  0.72650000  0.31249000  0.48916000  1.0 -0.0564870887
C  C4  1  0.27350000  0.31249000  0.51084000  1.0 -0.0564870887
C  C5  1  0.06014000  0.91962000  0.50812000  1.0 0.0251801203
C  C6  1  0.93986000  0.91962000  0.49188000  1.0 0.0251801203
C  C7  1  0.93986000  0.08038000  0.49188000  1.0 0.0248882699
C  C8  1  0.06014000  0.08038000  0.50812000  1.0 0.0251801203
C  C9  1  0.13041000  0.78029000  0.44006000  1.0 -0.1436819971
C  C10  1  0.86959000  0.78029000  0.55994000  1.0 -0.1436819971
C  C11  1  0.86959000  0.21971000  0.55994000  1.0 -0.1436819971
C  C12  1  0.13041000  0.21971000  0.44006000  1.0 -0.1436819971
C  C13  1  0.27006000  0.74343000  0.58276000  1.0 -0.091666158
C  C14  1  0.72994000  0.74343000  0.41724000  1.0 -0.091666158
C  C15  1  0.72994000  0.25657000  0.41724000  1.0 -0.091666158
C  C16  1  0.27006000  0.25657000  0.58276000  1.0 -0.091666158
C  C17  1  0.20198000  0.70690000  0.43970000  1.0 -0.091666158
C  C18  1  0.79802000  0.70690000  0.56030000  1.0 -0.091666158
C  C19  1  0.79802000  0.29310000  0.56030000  1.0 -0.091666158
C  C20  1  0.20198000  0.29310000  0.43970000  1.0 -0.091666158
C  C21  1  0.12947000  0.83741000  0.51092000  1.0 0.0837669581
C  C22  1  0.87053000  0.83741000  0.48908000  1.0 0.0837669581
C  C23  1  0.87053000  0.16259000  0.48908000  1.0 0.0837669581
C  C24  1  0.12947000  0.16259000  0.51092000  1.0 0.0837669581
C  C25  1  0.35643000  0.61312000  0.50742000  1.0 0.5970556981
C  C26  1  0.64357000  0.61312000  0.49258000  1.0 0.5970556981
C  C27  1  0.64357000  0.38688000  0.49258000  1.0 0.5970556981
C  C28  1  0.35643000  0.38688000  0.50742000  1.0 0.5970556981
C  C29  1  0.20009000  0.81781000  0.58236000  1.0 -0.1533832454
C  C30  1  0.79991000  0.81781000  0.41764000  1.0 -0.1533832454
C  C31  1  0.79991000  0.18219000  0.41764000  1.0 -0.1533832454
C  C32  1  0.20009000  0.18219000  0.58236000  1.0 -0.1533832454
C  C33  1  0.62843000  0.50000000  0.74903000  1.0 0.1023388432
C  C34  1  0.37157000  0.50000000  0.25097000  1.0 0.1023388432
C  C35  1  0.42415000  0.50000000  0.75693000  1.0 0.1023388432
C  C36  1  0.57585000  0.50000000  0.24307000  1.0 0.1023388432
C  C37  1  0.42874000  0.50000000  0.84579000  1.0 -0.2019242921
C  C38  1  0.57126000  0.50000000  0.15421000  1.0 -0.2019242921
C  C39  1  0.53646000  0.50000000  0.88644000  1.0 0.2008728779
C  C40  1  0.46354000  0.50000000  0.11356000  1.0 0.2008728779
C  C41  1  0.63706000  0.50000000  0.83820000  1.0 -0.2019242921
C  C42  1  0.36294000  0.50000000  0.16180000  1.0 -0.2019242921
C  C43  1  0.11761000  0.00000000  0.51676000  1.0 -0.1907036953
C  C44  1  0.88239000  0.00000000  0.48324000  1.0 -0.1907036953
N  N1  1  0.52307000  0.50000000  0.71147000  1.0 -0.2019242921
N  N2  1  0.47693000  0.50000000  0.28853000  1.0 -0.2019242921
N  N3  1  0.54488000  0.50000000  0.97715000  1.0 -0.1277037278
N  N4  1  0.45512000  0.50000000  0.02285000  1.0 -0.1277037278
O  O1  1  0.38462000  0.58153000  0.43490000  1.0 -0.5231289618
O  O2  1  0.61538000  0.58153000  0.56510000  1.0 -0.5231289618
O  O3  1  0.61538000  0.41847000  0.56510000  1.0 -0.5231289618
O  O4  1  0.38462000  0.41847000  0.43490000  1.0 -0.5231289618
O  O5  1  0.40178000  0.58359000  0.57619000  1.0 -0.5288650148
O  O6  1  0.59822000  0.58359000  0.42381000  1.0 -0.5288650148
O  O7  1  0.59822000  0.41641000  0.42381000  1.0 -0.5288650148
O  O8  1  0.40178000  0.41641000  0.57619000  1.0 -0.5288650148
