# DDEC6 charges by PACMAN v1.1 (https://github.com/mtap-research/PACMAN-charge/)
data_ja7b04542_si_002_ASR_pacman
_symmetry_space_group_name_H-M   'P 1'
_cell_length_a   24.38680000
_cell_length_b   13.26120000
_cell_length_c   24.97100000
_cell_angle_alpha   90.00000000
_cell_angle_beta   90.32700000
_cell_angle_gamma   90.00000000
_symmetry_Int_Tables_number   1
_chemical_formula_structural   Ca7H59(CO)36
_chemical_formula_sum   'Ca28 H236 C144 O144'
_cell_volume   8075.44573501
_cell_formula_units_Z   4
loop_
 _symmetry_equiv_pos_site_id
 _symmetry_equiv_pos_as_xyz
  1  'x, y, z'
loop_
 _atom_site_type_symbol
 _atom_site_label
 _atom_site_symmetry_multiplicity
 _atom_site_fract_x
 _atom_site_fract_y
 _atom_site_fract_z
 _atom_site_occupancy
 _atom_site_charge
Ca  Ca1  1  0.47643000  0.46842000  0.92691000  1.0 1.3483279765
Ca  Ca2  1  0.52027000  0.19709000  0.98437000  1.0 1.3714130044
Ca  Ca3  1  0.56876000  0.51041000  0.81043000  1.0 1.3483279765
Ca  Ca4  1  0.33754000  0.44816000  0.87337000  1.0 1.3358124912
Ca  Ca5  1  0.02502000  0.96293000  0.08689000  1.0 1.3483279765
Ca  Ca6  1  0.59039000  0.71646000  0.48326000  1.0 1.3483279765
Ca  Ca7  1  0.15685000  0.96566000  0.14784000  1.0 1.2326273143
Ca  Ca8  1  0.07603000  0.44410000  0.80532000  1.0 1.2938152373
Ca  Ca9  1  0.49514000  0.47004000  0.48806000  1.0 1.3714130044
Ca  Ca10  1  0.34144000  0.22472000  0.64003000  1.0 1.253333968
Ca  Ca11  1  0.69057000  0.68736000  0.59208000  1.0 1.3358124912
Ca  Ca12  1  0.00551000  0.71969000  0.99179000  1.0 1.3809147298
Ca  Ca13  1  0.70285000  0.56087000  0.73379000  1.0 1.133003515
Ca  Ca14  1  0.22480000  0.36970000  0.77032000  1.0 1.3112174094
Ca  Ca15  1  0.52357000  0.96842000  0.07309000  1.0 1.3483279765
Ca  Ca16  1  0.47973000  0.69709000  0.01563000  1.0 1.3714130044
Ca  Ca17  1  0.43124000  0.01041000  0.18957000  1.0 1.3483279765
Ca  Ca18  1  0.66246000  0.94816000  0.12663000  1.0 1.3358124912
Ca  Ca19  1  0.97498000  0.46293000  0.91311000  1.0 1.3483279765
Ca  Ca20  1  0.40961000  0.21646000  0.51674000  1.0 1.3483279765
Ca  Ca21  1  0.84315000  0.46566000  0.85216000  1.0 1.2326273143
Ca  Ca22  1  0.92397000  0.94410000  0.19468000  1.0 1.2938152373
Ca  Ca23  1  0.50486000  0.97004000  0.51194000  1.0 1.3714130044
Ca  Ca24  1  0.65856000  0.72472000  0.35997000  1.0 1.253333968
Ca  Ca25  1  0.30943000  0.18736000  0.40792000  1.0 1.3342856586
Ca  Ca26  1  0.99449000  0.21969000  0.00821000  1.0 1.3809147298
Ca  Ca27  1  0.29715000  0.06087000  0.26621000  1.0 1.133003515
Ca  Ca28  1  0.77520000  0.86970000  0.22968000  1.0 1.3112174094
H  H1  1  0.60900000  0.31400000  0.75420000  1.0 0.3619244665
H  H2  1  0.29060000  0.25860000  0.88440000  1.0 0.3619244665
H  H3  1  0.44520000  0.25700000  0.69950000  1.0 0.3684230467
H  H4  1  0.37080000  0.77810000  0.05240000  1.0 0.3497610311
H  H5  1  0.85010000  0.50220000  0.76800000  1.0 0.2988448113
H  H6  1  0.61510000  0.72000000  0.80600000  1.0 0.3066636742
H  H7  1  0.31410000  0.63870000  0.80840000  1.0 0.3619244665
H  H8  1  0.78200000  0.51430000  0.94480000  1.0 0.3684230467
H  H9  1  0.19900000  0.75400000  0.16600000  1.0 0.3497610311
H  H10  1  0.17000000  0.16300000  0.19660000  1.0 0.3302315047
H  H11  1  0.39460000  0.01520000  0.94420000  1.0 0.0983791262
H  H12  1  0.39430000  0.82140000  0.92200000  1.0 0.3497610311
H  H13  1  0.33360000  0.16550000  0.93250000  1.0 0.0888277191
H  H14  1  0.62450000  0.25930000  0.83870000  1.0 0.0812152792
H  H15  1  0.94360000  0.77960000  0.22020000  1.0 0.3302315047
H  H16  1  0.31400000  0.44200000  0.67000000  1.0 0.3619244665
H  H17  1  0.71140000  0.57740000  0.91480000  1.0 0.0888277191
H  H18  1  0.39660000  0.70060000  0.80530000  1.0 0.0888277191
H  H19  1  0.57820000  0.10610000  0.82470000  1.0 0.1496082133
H  H20  1  0.60830000  0.14240000  0.77120000  1.0 0.1401747124
H  H21  1  0.54340000  0.15640000  0.77710000  1.0 0.1401747124
H  H22  1  0.41940000  0.34450000  0.76490000  1.0 0.0888277191
H  H23  1  0.30650000  0.69440000  0.00850000  1.0 0.0812152792
H  H24  1  0.22040000  0.19700000  0.64800000  1.0 0.3619244665
H  H25  1  0.13600000  0.63500000  0.78000000  1.0 0.3497610311
H  H26  1  0.52690000  0.78620000  0.83110000  1.0 0.0888277191
H  H27  1  0.73500000  0.47400000  0.59800000  1.0 0.3684230467
H  H28  1  0.68140000  0.55350000  0.35540000  1.0 0.3431550086
H  H29  1  0.95650000  0.90450000  0.91170000  1.0 0.1598047246
H  H30  1  0.97880000  0.01660000  0.90220000  1.0 0.1598047246
H  H31  1  0.91960000  0.99930000  0.92810000  1.0 0.1598047246
H  H32  1  0.46370000  0.02520000  0.87870000  1.0 0.1496082133
H  H33  1  0.40970000  0.97280000  0.85490000  1.0 0.1496082133
H  H34  1  0.46160000  0.90540000  0.87120000  1.0 0.1304036165
H  H35  1  0.39990000  0.22920000  0.83510000  1.0 0.1496082133
H  H36  1  0.44860000  0.18600000  0.79910000  1.0 0.1401747124
H  H37  1  0.38780000  0.14220000  0.79220000  1.0 0.1598047246
H  H38  1  0.54980000  0.65200000  0.62580000  1.0 0.1682569305
H  H39  1  0.52130000  0.64910000  0.68340000  1.0 0.1682569305
H  H40  1  0.52640000  0.54800000  0.64880000  1.0 0.1761656225
H  H41  1  0.20450000  0.62810000  0.96530000  1.0 0.3497610311
H  H42  1  0.13440000  0.66990000  0.12780000  1.0 0.1110151846
H  H43  1  0.31010000  0.54300000  0.06330000  1.0 0.1496082133
H  H44  1  0.32500000  0.63850000  0.09970000  1.0 0.1205636544
H  H45  1  0.37260000  0.56610000  0.07850000  1.0 0.1496082133
H  H46  1  0.05360000  0.74400000  0.79670000  1.0 0.0983791262
H  H47  1  0.14210000  0.54700000  0.91750000  1.0 0.0812152792
H  H48  1  0.64160000  0.45980000  0.92440000  1.0 0.1496082133
H  H49  1  0.68490000  0.45340000  0.97270000  1.0 0.1496082133
H  H50  1  0.68610000  0.37110000  0.92590000  1.0 0.1304036165
H  H51  1  0.14590000  0.28310000  0.13110000  1.0 0.0812152792
H  H52  1  0.89530000  0.66390000  0.15000000  1.0 0.0983791262
H  H53  1  0.33140000  0.19980000  0.02960000  1.0 0.1401747124
H  H54  1  0.27130000  0.21710000  0.00530000  1.0 0.1401747124
H  H55  1  0.30980000  0.31180000  0.01830000  1.0 0.1401747124
H  H56  1  0.57180000  0.86850000  0.89990000  1.0 0.1598047246
H  H57  1  0.60650000  0.87260000  0.84570000  1.0 0.1304036165
H  H58  1  0.62380000  0.79630000  0.89250000  1.0 0.1304036165
H  H59  1  0.15870000  0.45270000  0.99680000  1.0 0.1304036165
H  H60  1  0.20400000  0.38850000  0.96570000  1.0 0.1496082133
H  H61  1  0.14110000  0.38240000  0.94760000  1.0 0.1496082133
H  H62  1  0.66510000  0.38360000  0.57590000  1.0 0.0888277191
H  H63  1  0.90710000  0.47430000  0.70110000  1.0 0.0983791262
H  H64  1  0.36190000  0.54180000  0.62650000  1.0 0.0683883094
H  H65  1  0.05460000  0.29030000  0.17130000  1.0 0.1496082133
H  H66  1  0.09810000  0.26340000  0.21740000  1.0 0.1401747124
H  H67  1  0.06100000  0.17640000  0.19160000  1.0 0.1401747124
H  H68  1  0.14970000  0.17000000  0.76100000  1.0 0.3302315047
H  H69  1  0.24460000  0.07520000  0.74030000  1.0 0.0888277191
H  H70  1  0.29720000  0.36270000  0.33050000  1.0 0.3497610311
H  H71  1  0.41750000  0.65860000  0.71610000  1.0 0.1496082133
H  H72  1  0.35340000  0.68160000  0.72220000  1.0 0.1304036165
H  H73  1  0.37450000  0.56760000  0.71820000  1.0 0.1304036165
H  H74  1  0.33140000  0.54750000  0.53460000  1.0 0.1401747124
H  H75  1  0.27870000  0.52740000  0.57100000  1.0 0.1401747124
H  H76  1  0.30660000  0.43620000  0.53930000  1.0 0.1401747124
H  H77  1  0.63340000  0.41530000  0.35820000  1.0 0.0812152792
H  H78  1  0.19230000  0.25690000  0.56810000  1.0 0.0888277191
H  H79  1  0.55180000  0.41930000  0.30770000  1.0 0.1401747124
H  H80  1  0.60270000  0.43910000  0.26900000  1.0 0.1401747124
H  H81  1  0.56540000  0.53140000  0.28820000  1.0 0.1401747124
H  H82  1  0.67230000  0.37180000  0.47630000  1.0 0.1401747124
H  H83  1  0.73310000  0.38030000  0.50040000  1.0 0.1401747124
H  H84  1  0.70420000  0.47730000  0.47460000  1.0 0.1304036165
H  H85  1  0.94430000  0.30330000  0.69820000  1.0 0.1304036165
H  H86  1  0.87920000  0.29700000  0.69030000  1.0 0.1401747124
H  H87  1  0.90610000  0.27080000  0.74720000  1.0 0.1304036165
H  H88  1  0.59460000  0.15460000  0.46830000  1.0 0.1598047246
H  H89  1  0.60190000  0.26570000  0.49240000  1.0 0.1598047246
H  H90  1  0.58310000  0.25110000  0.43140000  1.0 0.1598047246
H  H91  1  0.33470000  0.48570000  0.37630000  1.0 0.0888277191
H  H92  1  0.19190000  0.95230000  0.78670000  1.0 0.1496082133
H  H93  1  0.15470000  0.00470000  0.74170000  1.0 0.1304036165
H  H94  1  0.14850000  0.03720000  0.80300000  1.0 0.1205636544
H  H95  1  0.98250000  0.58100000  0.15840000  1.0 0.1401747124
H  H96  1  0.95560000  0.59220000  0.21640000  1.0 0.1401747124
H  H97  1  0.00330000  0.66740000  0.19840000  1.0 0.1401747124
H  H98  1  0.11690000  0.82210000  0.85670000  1.0 0.1496082133
H  H99  1  0.15010000  0.78370000  0.80540000  1.0 0.1110151846
H  H100  1  0.15190000  0.72020000  0.85990000  1.0 0.1304036165
H  H101  1  0.17850000  0.62750000  0.05010000  1.0 0.1401747124
H  H102  1  0.21800000  0.62670000  0.10150000  1.0 0.1401747124
H  H103  1  0.22070000  0.71810000  0.05980000  1.0 0.1401747124
H  H104  1  0.42720000  0.47450000  0.33550000  1.0 0.1496082133
H  H105  1  0.38240000  0.43900000  0.29240000  1.0 0.1304036165
H  H106  1  0.41790000  0.35690000  0.32430000  1.0 0.1401747124
H  H107  1  0.75800000  0.90300000  0.82860000  1.0 0.1682569305
H  H108  1  0.75250000  0.80020000  0.86180000  1.0 0.1598047246
H  H109  1  0.70030000  0.87170000  0.85390000  1.0 0.1496082133
H  H110  1  0.17560000  0.09030000  0.53650000  1.0 0.1598047246
H  H111  1  0.16510000  0.10040000  0.59950000  1.0 0.1401747124
H  H112  1  0.22020000  0.04880000  0.57830000  1.0 0.1304036165
H  H113  1  0.11090000  0.33840000  0.61250000  1.0 0.1401747124
H  H114  1  0.08240000  0.43980000  0.63300000  1.0 0.1598047246
H  H115  1  0.06430000  0.33333333  0.65730000  1.0 0.1401747124
H  H116  1  0.39100000  0.81400000  0.24580000  1.0 0.3619244665
H  H117  1  0.70940000  0.75860000  0.11560000  1.0 0.3619244665
H  H118  1  0.55480000  0.75700000  0.30050000  1.0 0.3684230467
H  H119  1  0.62920000  0.27810000  0.94760000  1.0 0.3497610311
H  H120  1  0.14990000  0.00220000  0.23200000  1.0 0.2988448113
H  H121  1  0.38490000  0.22000000  0.19400000  1.0 0.3066636742
H  H122  1  0.68590000  0.13870000  0.19160000  1.0 0.3619244665
H  H123  1  0.21800000  0.01430000  0.05520000  1.0 0.3684230467
H  H124  1  0.80100000  0.25400000  0.83400000  1.0 0.3497610311
H  H125  1  0.83000000  0.66300000  0.80340000  1.0 0.3302315047
H  H126  1  0.60540000  0.51520000  0.05580000  1.0 0.0983791262
H  H127  1  0.60570000  0.32140000  0.07800000  1.0 0.3497610311
H  H128  1  0.66640000  0.66550000  0.06750000  1.0 0.0888277191
H  H129  1  0.37550000  0.75930000  0.16130000  1.0 0.0812152792
H  H130  1  0.05640000  0.27960000  0.77980000  1.0 0.3302315047
H  H131  1  0.68600000  0.94200000  0.33000000  1.0 0.3619244665
H  H132  1  0.28860000  0.07740000  0.08520000  1.0 0.0888277191
H  H133  1  0.60340000  0.20060000  0.19470000  1.0 0.0888277191
H  H134  1  0.42180000  0.60610000  0.17530000  1.0 0.1496082133
H  H135  1  0.39170000  0.64240000  0.22880000  1.0 0.1401747124
H  H136  1  0.45660000  0.65640000  0.22290000  1.0 0.1401747124
H  H137  1  0.58060000  0.84450000  0.23510000  1.0 0.0888277191
H  H138  1  0.69350000  0.19440000  0.99150000  1.0 0.0812152792
H  H139  1  0.77960000  0.69700000  0.35200000  1.0 0.3619244665
H  H140  1  0.86400000  0.13500000  0.22000000  1.0 0.3497610311
H  H141  1  0.47310000  0.28620000  0.16890000  1.0 0.0888277191
H  H142  1  0.26500000  0.97400000  0.40200000  1.0 0.3684230467
H  H143  1  0.31860000  0.05350000  0.64460000  1.0 0.3431550086
H  H144  1  0.04350000  0.40450000  0.08830000  1.0 0.1598047246
H  H145  1  0.02120000  0.51660000  0.09780000  1.0 0.1598047246
H  H146  1  0.08040000  0.49930000  0.07190000  1.0 0.1598047246
H  H147  1  0.53630000  0.52520000  0.12130000  1.0 0.1496082133
H  H148  1  0.59030000  0.47280000  0.14510000  1.0 0.1496082133
H  H149  1  0.53840000  0.40540000  0.12880000  1.0 0.1304036165
H  H150  1  0.60010000  0.72920000  0.16490000  1.0 0.1496082133
H  H151  1  0.55140000  0.68600000  0.20090000  1.0 0.1401747124
H  H152  1  0.61220000  0.64220000  0.20780000  1.0 0.1598047246
H  H153  1  0.45020000  0.15200000  0.37420000  1.0 0.1682569305
H  H154  1  0.47870000  0.14910000  0.31660000  1.0 0.1682569305
H  H155  1  0.47360000  0.04800000  0.35120000  1.0 0.1761656225
H  H156  1  0.79550000  0.12810000  0.03470000  1.0 0.3497610311
H  H157  1  0.86560000  0.16990000  0.87220000  1.0 0.1110151846
H  H158  1  0.68990000  0.04300000  0.93670000  1.0 0.1496082133
H  H159  1  0.67500000  0.13850000  0.90030000  1.0 0.1205636544
H  H160  1  0.62740000  0.06610000  0.92150000  1.0 0.1496082133
H  H161  1  0.94640000  0.24400000  0.20330000  1.0 0.0983791262
H  H162  1  0.85790000  0.04700000  0.08250000  1.0 0.0812152792
H  H163  1  0.35840000  0.95980000  0.07560000  1.0 0.1496082133
H  H164  1  0.31510000  0.95340000  0.02730000  1.0 0.1496082133
H  H165  1  0.31390000  0.87110000  0.07410000  1.0 0.1304036165
H  H166  1  0.85410000  0.78310000  0.86890000  1.0 0.0812152792
H  H167  1  0.10470000  0.16390000  0.85000000  1.0 0.0983791262
H  H168  1  0.66860000  0.69980000  0.97040000  1.0 0.1401747124
H  H169  1  0.72870000  0.71710000  0.99470000  1.0 0.1401747124
H  H170  1  0.69020000  0.81180000  0.98170000  1.0 0.1401747124
H  H171  1  0.42820000  0.36850000  0.10010000  1.0 0.1598047246
H  H172  1  0.39350000  0.37260000  0.15430000  1.0 0.1304036165
H  H173  1  0.37620000  0.29630000  0.10750000  1.0 0.1304036165
H  H174  1  0.84130000  0.95270000  0.00320000  1.0 0.1304036165
H  H175  1  0.79600000  0.88850000  0.03430000  1.0 0.1496082133
H  H176  1  0.85890000  0.88240000  0.05240000  1.0 0.1496082133
H  H177  1  0.33490000  0.88360000  0.42410000  1.0 0.0888277191
H  H178  1  0.09290000  0.97430000  0.29890000  1.0 0.0983791262
H  H179  1  0.63810000  0.04180000  0.37350000  1.0 0.0683883094
H  H180  1  0.94540000  0.79030000  0.82870000  1.0 0.1496082133
H  H181  1  0.90190000  0.76340000  0.78260000  1.0 0.1401747124
H  H182  1  0.93900000  0.67640000  0.80840000  1.0 0.1401747124
H  H183  1  0.85030000  0.67000000  0.23900000  1.0 0.3302315047
H  H184  1  0.75540000  0.57520000  0.25970000  1.0 0.0888277191
H  H185  1  0.70280000  0.86270000  0.66950000  1.0 0.3497610311
H  H186  1  0.58250000  0.15860000  0.28390000  1.0 0.1496082133
H  H187  1  0.64660000  0.18160000  0.27780000  1.0 0.1304036165
H  H188  1  0.62550000  0.06760000  0.28180000  1.0 0.1304036165
H  H189  1  0.66860000  0.04750000  0.46540000  1.0 0.1401747124
H  H190  1  0.72130000  0.02740000  0.42900000  1.0 0.1401747124
H  H191  1  0.69340000  0.93620000  0.46070000  1.0 0.1401747124
H  H192  1  0.36660000  0.91530000  0.64180000  1.0 0.0812152792
H  H193  1  0.80770000  0.75690000  0.43190000  1.0 0.0888277191
H  H194  1  0.44820000  0.91930000  0.69230000  1.0 0.1401747124
H  H195  1  0.39730000  0.93910000  0.73100000  1.0 0.1401747124
H  H196  1  0.43460000  0.03140000  0.71180000  1.0 0.1401747124
H  H197  1  0.32770000  0.87180000  0.52370000  1.0 0.1401747124
H  H198  1  0.26690000  0.88030000  0.49960000  1.0 0.1401747124
H  H199  1  0.29580000  0.97730000  0.52540000  1.0 0.1304036165
H  H200  1  0.05570000  0.80330000  0.30180000  1.0 0.1304036165
H  H201  1  0.12080000  0.79700000  0.30970000  1.0 0.1401747124
H  H202  1  0.09390000  0.77080000  0.25280000  1.0 0.1304036165
H  H203  1  0.40540000  0.65460000  0.53170000  1.0 0.1598047246
H  H204  1  0.39810000  0.76570000  0.50760000  1.0 0.1598047246
H  H205  1  0.41690000  0.75110000  0.56860000  1.0 0.1598047246
H  H206  1  0.66530000  0.98570000  0.62370000  1.0 0.0888277191
H  H207  1  0.80810000  0.45230000  0.21330000  1.0 0.1496082133
H  H208  1  0.84530000  0.50470000  0.25830000  1.0 0.1304036165
H  H209  1  0.85150000  0.53720000  0.19700000  1.0 0.1205636544
H  H210  1  0.01750000  0.08100000  0.84160000  1.0 0.1401747124
H  H211  1  0.04440000  0.09220000  0.78360000  1.0 0.1401747124
H  H212  1  0.99670000  0.16740000  0.80160000  1.0 0.1401747124
H  H213  1  0.88310000  0.32210000  0.14330000  1.0 0.1496082133
H  H214  1  0.84990000  0.28370000  0.19460000  1.0 0.1110151846
H  H215  1  0.84810000  0.22020000  0.14010000  1.0 0.1304036165
H  H216  1  0.82150000  0.12750000  0.94990000  1.0 0.1401747124
H  H217  1  0.78200000  0.12670000  0.89850000  1.0 0.1304036165
H  H218  1  0.77930000  0.21810000  0.94020000  1.0 0.1401747124
H  H219  1  0.57280000  0.97450000  0.66450000  1.0 0.1496082133
H  H220  1  0.61760000  0.93900000  0.70760000  1.0 0.1304036165
H  H221  1  0.58210000  0.85690000  0.67570000  1.0 0.1401747124
H  H222  1  0.24200000  0.40300000  0.17140000  1.0 0.1682569305
H  H223  1  0.24750000  0.30020000  0.13820000  1.0 0.1598047246
H  H224  1  0.29970000  0.37170000  0.14610000  1.0 0.1496082133
H  H225  1  0.82440000  0.59030000  0.46350000  1.0 0.1598047246
H  H226  1  0.83490000  0.60040000  0.40050000  1.0 0.1401747124
H  H227  1  0.77980000  0.54880000  0.42170000  1.0 0.1304036165
H  H228  1  0.88910000  0.83840000  0.38750000  1.0 0.1401747124
H  H229  1  0.91760000  0.93980000  0.36700000  1.0 0.1598047246
H  H230  1  0.93570000  0.83333000  0.34270000  1.0 0.1401747124
H  H231  1  0.87450000  0.74060000  0.68310000  0.5 0.0888277191
H  H232  1  0.82330000  0.81140000  0.66880000  0.5 0.1110151846
H  H233  1  0.84860000  0.73880000  0.62410000  0.5 0.1205636544
H  H234  1  0.88430000  0.65240000  0.66000000  0.5 0.0888277191
H  H235  1  0.84960000  0.71710000  0.61770000  0.5 0.1110151846
H  H236  1  0.84670000  0.59660000  0.61650000  0.5 0.0983791262
H  H237  1  0.12550000  0.24060000  0.31690000  0.5 0.0888277191
H  H238  1  0.17670000  0.31140000  0.33120000  0.5 0.1110151846
H  H239  1  0.15140000  0.23880000  0.37590000  0.5 0.1205636544
H  H240  1  0.11570000  0.15240000  0.34000000  0.5 0.0812152792
H  H241  1  0.15040000  0.21710000  0.38230000  0.5 0.1110151846
H  H242  1  0.15330000  0.09660000  0.38350000  0.5 0.0983791262
C  C1  1  0.46230000  0.95260000  0.97750000  1.0 0.5896932304
C  C2  1  0.41760000  0.95440000  0.93690000  1.0 0.0683883094
C  C3  1  0.39260000  0.27520000  0.94920000  1.0 0.5896932304
C  C4  1  0.11210000  0.77200000  0.07390000  1.0 0.5795820654
C  C5  1  0.54570000  0.28910000  0.86260000  1.0 0.5896932304
C  C6  1  0.98300000  0.97300000  0.98160000  1.0 0.7095486939
C  C7  1  0.33390000  0.23680000  0.94560000  1.0 0.0983791262
C  C8  1  0.58770000  0.25990000  0.82080000  1.0 0.0640155383
C  C9  1  0.43580000  0.56260000  0.80940000  1.0 0.5795820654
C  C10  1  0.36090000  0.59370000  0.97270000  1.0 0.5686319987
C  C11  1  0.53070000  0.68390000  0.89220000  1.0 0.5995936215
C  C12  1  0.62180000  0.49930000  0.54060000  1.0 0.5995936215
C  C13  1  0.95580000  0.75410000  0.11820000  1.0 0.5795820654
C  C14  1  0.71010000  0.50040000  0.84280000  1.0 0.5572989107
C  C15  1  0.71780000  0.50590000  0.90380000  1.0 0.0888277191
C  C16  1  0.38890000  0.63090000  0.79190000  1.0 0.0812152792
C  C17  1  0.19520000  0.47030000  0.87170000  1.0 0.5896932304
C  C18  1  0.51990000  0.22350000  0.48520000  1.0 0.7095486939
C  C19  1  0.57860000  0.15720000  0.79630000  1.0 -0.4913756538
C  C20  1  0.39730000  0.28250000  0.75730000  1.0 0.0683883094
C  C21  1  0.34270000  0.66350000  0.01780000  1.0 0.0812152792
C  C22  1  0.40400000  0.42190000  0.58540000  1.0 0.5795820654
C  C23  1  0.33830000  0.30760000  0.75800000  1.0 0.5572989107
C  C24  1  0.55710000  0.75060000  0.85070000  1.0 0.0640155383
C  C25  1  0.05400000  0.65700000  0.86940000  1.0 0.5896932304
C  C26  1  0.95720000  0.97340000  0.92590000  1.0 -0.64934793
C  C27  1  0.59850000  0.59040000  0.68370000  1.0 0.7258182585
C  C28  1  0.09990000  0.16790000  0.09200000  1.0 0.5896932304
C  C29  1  0.94960000  0.44680000  0.77270000  1.0 0.5686319987
C  C30  1  0.44010000  0.96540000  0.88040000  1.0 -0.4913756538
C  C31  1  0.40950000  0.20280000  0.79970000  1.0 -0.5008910067
C  C32  1  0.54440000  0.61170000  0.65830000  1.0 -0.64934793
C  C33  1  0.15450000  0.72410000  0.10820000  1.0 0.0683883094
C  C34  1  0.33710000  0.59640000  0.06970000  1.0 -0.5073184152
C  C35  1  0.08000000  0.70380000  0.81880000  1.0 0.0812152792
C  C36  1  0.58210000  0.52980000  0.39060000  1.0 0.5795820654
C  C37  1  0.17860000  0.51460000  0.92330000  1.0 0.0539358974
C  C38  1  0.67940000  0.44220000  0.93430000  1.0 -0.5008910067
C  C39  1  0.38240000  0.39320000  0.42390000  1.0 0.5896932304
C  C40  1  0.12560000  0.22020000  0.14090000  1.0 0.0888277191
C  C41  1  0.92830000  0.70150000  0.16300000  1.0 0.0888277191
C  C42  1  0.30920000  0.24190000  0.00560000  1.0 -0.4913756538
C  C43  1  0.59280000  0.82850000  0.87420000  1.0 -0.5216951615
C  C44  1  0.16980000  0.42670000  0.96180000  1.0 -0.4796792355
C  C45  1  0.67280000  0.44530000  0.55410000  1.0 0.0437333759
C  C46  1  0.90340000  0.42880000  0.73280000  1.0 0.0888277191
C  C47  1  0.71780000  0.78600000  0.78190000  1.0 0.5293545545
C  C48  1  0.35160000  0.47790000  0.60770000  1.0 0.0983791262
C  C49  1  0.26760000  0.22530000  0.52660000  1.0 0.5686319987
C  C50  1  0.08060000  0.23940000  0.18440000  1.0 -0.5073184152
C  C51  1  0.21700000  0.09420000  0.76800000  1.0 0.0888277191
C  C52  1  0.38310000  0.63500000  0.73180000  1.0 -0.5008910067
C  C53  1  0.31360000  0.49920000  0.55860000  1.0 -0.468584761
C  C54  1  0.61740000  0.48080000  0.34600000  1.0 0.0888277191
C  C55  1  0.24470000  0.14170000  0.82060000  1.0 0.5572989107
C  C56  1  0.22120000  0.20370000  0.57150000  1.0 0.0888277191
C  C57  1  0.58130000  0.46640000  0.29870000  1.0 -0.4796792355
C  C58  1  0.69820000  0.41570000  0.49550000  1.0 -0.4796792355
C  C59  1  0.14130000  0.38340000  0.68980000  1.0 0.6739447534
C  C60  1  0.90880000  0.31390000  0.71550000  1.0 -0.4386924684
C  C61  1  0.58040000  0.22370000  0.46770000  1.0 -0.6408922255
C  C62  1  0.35390000  0.41930000  0.37320000  1.0 0.0683883094
C  C63  1  0.17440000  0.01540000  0.77550000  1.0 -0.4610297561
C  C64  1  0.97130000  0.62900000  0.18610000  1.0 -0.5073184152
C  C65  1  0.12890000  0.76240000  0.83670000  1.0 -0.4796792355
C  C66  1  0.19640000  0.66950000  0.07730000  1.0 -0.5216951615
C  C67  1  0.39990000  0.42270000  0.32680000  1.0 -0.4796792355
C  C68  1  0.73370000  0.84630000  0.83710000  1.0 -0.600529778
C  C69  1  0.19300000  0.10200000  0.57150000  1.0 -0.4913756538
C  C70  1  0.09520000  0.37300000  0.64360000  1.0 -0.600529778
C  C71  1  0.79970000  0.65860000  0.68000000  1.0 0.494359535
C  C72  1  0.53770000  0.45260000  0.02250000  1.0 0.5896932304
C  C73  1  0.58240000  0.45440000  0.06310000  1.0 0.0683883094
C  C74  1  0.60740000  0.77520000  0.05080000  1.0 0.5896932304
C  C75  1  0.88790000  0.27200000  0.92610000  1.0 0.5795820654
C  C76  1  0.45430000  0.78910000  0.13740000  1.0 0.5896932304
C  C77  1  0.01700000  0.47300000  0.01840000  1.0 0.7095486939
C  C78  1  0.66610000  0.73680000  0.05440000  1.0 0.0983791262
C  C79  1  0.41230000  0.75990000  0.17920000  1.0 0.0640155383
C  C80  1  0.56420000  0.06260000  0.19060000  1.0 0.5795820654
C  C81  1  0.63910000  0.09370000  0.02730000  1.0 0.5686319987
C  C82  1  0.46930000  0.18390000  0.10780000  1.0 0.5995936215
C  C83  1  0.37820000  0.99930000  0.45940000  1.0 0.5995936215
C  C84  1  0.04420000  0.25410000  0.88180000  1.0 0.5795820654
C  C85  1  0.28990000  0.00040000  0.15720000  1.0 0.5572989107
C  C86  1  0.28220000  0.00590000  0.09620000  1.0 0.0888277191
C  C87  1  0.61110000  0.13090000  0.20810000  1.0 0.0812152792
C  C88  1  0.80480000  0.97030000  0.12830000  1.0 0.5896932304
C  C89  1  0.48010000  0.72350000  0.51480000  1.0 0.7095486939
C  C90  1  0.42140000  0.65720000  0.20370000  1.0 -0.4913756538
C  C91  1  0.60270000  0.78250000  0.24270000  1.0 0.0683883094
C  C92  1  0.65730000  0.16350000  0.98220000  1.0 0.0812152792
C  C93  1  0.59600000  0.92190000  0.41460000  1.0 0.5795820654
C  C94  1  0.66170000  0.80760000  0.24200000  1.0 0.5572989107
C  C95  1  0.44290000  0.25060000  0.14930000  1.0 0.0640155383
C  C96  1  0.94600000  0.15700000  0.13060000  1.0 0.5896932304
C  C97  1  0.04280000  0.47340000  0.07410000  1.0 -0.64934793
C  C98  1  0.40150000  0.09040000  0.31630000  1.0 0.7258182585
C  C99  1  0.90010000  0.66790000  0.90800000  1.0 0.5896932304
C  C100  1  0.05040000  0.94680000  0.22730000  1.0 0.5686319987
C  C101  1  0.55990000  0.46540000  0.11960000  1.0 -0.4913756538
C  C102  1  0.59050000  0.70280000  0.20030000  1.0 -0.5008910067
C  C103  1  0.45560000  0.11170000  0.34170000  1.0 -0.64934793
C  C104  1  0.84550000  0.22410000  0.89180000  1.0 0.0683883094
C  C105  1  0.66290000  0.09640000  0.93030000  1.0 -0.5073184152
C  C106  1  0.92000000  0.20380000  0.18120000  1.0 0.0812152792
C  C107  1  0.41790000  0.02980000  0.60940000  1.0 0.5795820654
C  C108  1  0.82140000  0.01460000  0.07670000  1.0 0.0539358974
C  C109  1  0.32060000  0.94220000  0.06570000  1.0 -0.5073184152
C  C110  1  0.61760000  0.89320000  0.57610000  1.0 0.5896932304
C  C111  1  0.87440000  0.72020000  0.85910000  1.0 0.0888277191
C  C112  1  0.07170000  0.20150000  0.83700000  1.0 0.0888277191
C  C113  1  0.69080000  0.74190000  0.99440000  1.0 -0.4913756538
C  C114  1  0.40720000  0.32850000  0.12580000  1.0 -0.5216951615
C  C115  1  0.83020000  0.92670000  0.03820000  1.0 -0.4796792355
C  C116  1  0.32720000  0.94530000  0.44590000  1.0 0.0437333759
C  C117  1  0.09660000  0.92880000  0.26720000  1.0 0.0983791262
C  C118  1  0.28220000  0.28600000  0.21810000  1.0 0.5293545545
C  C119  1  0.64840000  0.97790000  0.39230000  1.0 0.0983791262
C  C120  1  0.73240000  0.72530000  0.47340000  1.0 0.5686319987
C  C121  1  0.91940000  0.73940000  0.81560000  1.0 -0.5073184152
C  C122  1  0.78300000  0.59420000  0.23200000  1.0 0.0888277191
C  C123  1  0.61690000  0.13500000  0.26820000  1.0 -0.5008910067
C  C124  1  0.68640000  0.99920000  0.44140000  1.0 -0.468584761
C  C125  1  0.38260000  0.98080000  0.65400000  1.0 0.0888277191
C  C126  1  0.75530000  0.64170000  0.17940000  1.0 0.5572989107
C  C127  1  0.77880000  0.70370000  0.42850000  1.0 0.0888277191
C  C128  1  0.41870000  0.96640000  0.70130000  1.0 -0.4796792355
C  C129  1  0.30180000  0.91570000  0.50450000  1.0 -0.4796792355
C  C130  1  0.85870000  0.88340000  0.31020000  1.0 0.6739447534
C  C131  1  0.09120000  0.81390000  0.28450000  1.0 -0.4386924684
C  C132  1  0.41960000  0.72370000  0.53230000  1.0 -0.6408922255
C  C133  1  0.64610000  0.91930000  0.62680000  1.0 0.0683883094
C  C134  1  0.82560000  0.51540000  0.22450000  1.0 -0.4610297561
C  C135  1  0.02870000  0.12900000  0.81390000  1.0 -0.5008910067
C  C136  1  0.87110000  0.26240000  0.16330000  1.0 -0.4796792355
C  C137  1  0.80360000  0.16950000  0.92270000  1.0 -0.5216951615
C  C138  1  0.60010000  0.92270000  0.67320000  1.0 -0.4796792355
C  C139  1  0.26630000  0.34630000  0.16290000  1.0 -0.600529778
C  C140  1  0.80700000  0.60200000  0.42850000  1.0 -0.4913756538
C  C141  1  0.90480000  0.87300000  0.35640000  1.0 -0.600529778
C  C142  1  0.20030000  0.15860000  0.32000000  1.0 0.494359535
C  C143  1  0.84040000  0.74570000  0.66230000  0.5 -0.2932322651
C  C144  1  0.84990000  0.65590000  0.63970000  0.5 -0.2974181354
C  C145  1  0.15960000  0.24570000  0.33770000  0.5 -0.2932322651
C  C146  1  0.15010000  0.15590000  0.36030000  0.5 -0.2974181354
O  O1  1  0.40174000  0.35820000  0.92680000  1.0 -0.6583883941
O  O2  1  0.42592000  0.50020000  0.84730000  1.0 -0.6707232773
O  O3  1  0.46768000  0.87540000  0.00943000  1.0 -0.6900007307
O  O4  1  0.53823000  0.58980000  0.89080000  1.0 -0.6583883941
O  O5  1  0.53480000  0.38180000  0.86648000  1.0 -0.64934793
O  O6  1  0.09982000  0.07510000  0.09021000  1.0 -0.6205866516
O  O7  1  0.58851000  0.33780000  0.78022000  1.0 -0.5216951615
O  O8  1  0.49107000  0.02920000  0.98374000  1.0 -0.6298723518
O  O9  1  0.93789000  0.45580000  0.82233000  1.0 -0.64934793
O  O10  1  0.52709000  0.22090000  0.89261000  1.0 -0.600529778
O  O11  1  0.41239000  0.58940000  0.96548000  1.0 -0.6707232773
O  O12  1  0.30202000  0.29690000  0.91150000  1.0 -0.5216951615
O  O13  1  0.32611000  0.54690000  0.94940000  1.0 -0.5510901987
O  O14  1  0.41150000  0.24350000  0.70560000  1.0 -0.5216951615
O  O15  1  0.75207000  0.48930000  0.81385000  1.0 -0.6298723518
O  O16  1  0.32180000  0.36650000  0.79360000  1.0 -0.6583883941
O  O17  1  0.40480000  0.32880000  0.58807000  1.0 -0.6298723518
O  O18  1  0.42609000  0.22410000  0.97431000  1.0 -0.579315104
O  O19  1  0.98930000  0.04670000  0.00870000  1.0 -0.6205866516
O  O20  1  0.38195000  0.74070000  0.02770000  1.0 -0.5216951615
O  O21  1  0.66382000  0.51300000  0.82408000  1.0 -0.6298723518
O  O22  1  0.24505000  0.47440000  0.85773000  1.0 -0.6408922255
O  O23  1  0.04100000  0.56310000  0.86870000  1.0 -0.6707232773
O  O24  1  0.59470000  0.62110000  0.40480000  1.0 -0.7012817542
O  O25  1  0.16103000  0.42460000  0.84380000  1.0 -0.6298723518
O  O26  1  0.96310000  0.85150000  0.12280000  1.0 -0.7012817542
O  O27  1  0.50020000  0.72660000  0.92650000  1.0 -0.6298723518
O  O28  1  0.47981000  0.56640000  0.78550000  1.0 -0.5684760221
O  O29  1  0.10440000  0.86530000  0.08400000  1.0 -0.64934793
O  O30  1  0.08720000  0.72500000  0.04010000  1.0 -0.5684760221
O  O31  1  0.50070000  0.14130000  0.50410000  1.0 -0.6707232773
O  O32  1  0.49380000  0.29730000  0.48780000  1.0 -0.600529778
O  O33  1  0.62470000  0.59670000  0.53980000  1.0 -0.6900007307
O  O34  1  0.59970000  0.53970000  0.72570000  1.0 -0.6803039789
O  O35  1  0.00130000  0.89050000  0.99880000  1.0 -0.64934793
O  O36  1  0.85280000  0.44230000  0.75720000  1.0 -0.4796792355
O  O37  1  0.58480000  0.68860000  0.81240000  1.0 -0.5560982108
O  O38  1  0.43800000  0.47720000  0.56410000  1.0 -0.5908659378
O  O39  1  0.58190000  0.45190000  0.52990000  1.0 -0.5374041776
O  O40  1  0.30500000  0.26860000  0.72560000  1.0 -0.5908659378
O  O41  1  0.07620000  0.22520000  0.06030000  1.0 -0.600529778
O  O42  1  0.96610000  0.71140000  0.07640000  1.0 -0.5510901987
O  O43  1  0.33910000  0.59680000  0.81490000  1.0 -0.5008910067
O  O44  1  0.77260000  0.48180000  0.91730000  1.0 -0.4913756538
O  O45  1  0.04260000  0.71330000  0.90640000  1.0 -0.5684760221
O  O46  1  0.31490000  0.21520000  0.54690000  1.0 -0.6408922255
O  O47  1  0.64200000  0.62170000  0.66150000  1.0 -0.7012817542
O  O48  1  0.17410000  0.78570000  0.14760000  1.0 -0.468584761
O  O49  1  0.13200000  0.42310000  0.73210000  1.0 -0.6408922255
O  O50  1  0.37160000  0.31100000  0.44470000  1.0 -0.6408922255
O  O51  1  0.41320000  0.45670000  0.44220000  1.0 -0.579315104
O  O52  1  0.16090000  0.14450000  0.16480000  1.0 -0.5684760221
O  O53  1  0.54670000  0.47730000  0.40990000  1.0 -0.5684760221
O  O54  1  0.99610000  0.44130000  0.75610000  1.0 -0.5684760221
O  O55  1  0.38260000  0.86780000  0.94170000  1.0 -0.468584761
O  O56  1  0.91520000  0.76420000  0.20290000  1.0 -0.4796792355
O  O57  1  0.32670000  0.40740000  0.64360000  1.0 -0.5216951615
O  O58  1  0.24510000  0.21060000  0.62540000  1.0 -0.5374041776
O  O59  1  0.10400000  0.61820000  0.79000000  1.0 -0.5216951615
O  O60  1  0.71290000  0.51050000  0.58070000  1.0 -0.5273097336
O  O61  1  0.65810000  0.54810000  0.33060000  1.0 -0.468584761
O  O62  1  0.25410000  0.21250000  0.48340000  1.0 -0.5273097336
O  O63  1  0.75540000  0.66310000  0.65400000  1.0 -0.5374041776
O  O64  1  0.21750000  0.59600000  0.93920000  1.0 -0.468584761
O  O65  1  0.18770000  0.34420000  0.68020000  1.0 -0.6298723518
O  O66  1  0.23250000  0.22920000  0.82830000  1.0 -0.5684760221
O  O67  1  0.18250000  0.18320000  0.75120000  1.0 -0.5216951615
O  O68  1  0.31640000  0.34140000  0.35610000  1.0 -0.5510901987
O  O69  1  0.27640000  0.07460000  0.83790000  1.0 -0.5908659378
O  O70  1  0.73560000  0.86730000  0.74250000  1.0 -0.579315104
O  O71  1  0.59826000  0.85820000  0.07320000  1.0 -0.6583883941
O  O72  1  0.57408000  0.00020000  0.15270000  1.0 -0.6707232773
O  O73  1  0.53232000  0.37540000  0.99057000  1.0 -0.6900007307
O  O74  1  0.46177000  0.08980000  0.10920000  1.0 -0.6583883941
O  O75  1  0.46520000  0.88180000  0.13352000  1.0 -0.64934793
O  O76  1  0.90018000  0.57510000  0.90979000  1.0 -0.6298723518
O  O77  1  0.41149000  0.83780000  0.21978000  1.0 -0.5216951615
O  O78  1  0.50893000  0.52920000  0.01626000  1.0 -0.6298723518
O  O79  1  0.06211000  0.95580000  0.17767000  1.0 -0.64934793
O  O80  1  0.47291000  0.72090000  0.10739000  1.0 -0.600529778
O  O81  1  0.58761000  0.08940000  0.03452000  1.0 -0.6707232773
O  O82  1  0.69798000  0.79690000  0.08850000  1.0 -0.5216951615
O  O83  1  0.67389000  0.04690000  0.05060000  1.0 -0.5510901987
O  O84  1  0.58850000  0.74350000  0.29440000  1.0 -0.5216951615
O  O85  1  0.24793000  0.98930000  0.18615000  1.0 -0.6298723518
O  O86  1  0.67820000  0.86650000  0.20640000  1.0 -0.6583883941
O  O87  1  0.59520000  0.82880000  0.41193000  1.0 -0.6298723518
O  O88  1  0.57391000  0.72410000  0.02569000  1.0 -0.579315104
O  O89  1  0.01070000  0.54670000  0.99130000  1.0 -0.6205866516
O  O90  1  0.61805000  0.24070000  0.97230000  1.0 -0.5216951615
O  O91  1  0.33618000  0.01300000  0.17592000  1.0 -0.6298723518
O  O92  1  0.75495000  0.97440000  0.14227000  1.0 -0.6408922255
O  O93  1  0.95900000  0.06310000  0.13130000  1.0 -0.6707232773
O  O94  1  0.40530000  0.12110000  0.59520000  1.0 -0.7012817542
O  O95  1  0.83897000  0.92460000  0.15620000  1.0 -0.6298723518
O  O96  1  0.03690000  0.35150000  0.87720000  1.0 -0.7012817542
O  O97  1  0.49980000  0.22660000  0.07350000  1.0 -0.6298723518
O  O98  1  0.52019000  0.06640000  0.21450000  1.0 -0.5684760221
O  O99  1  0.89560000  0.36530000  0.91600000  1.0 -0.6408922255
O  O100  1  0.91280000  0.22500000  0.95990000  1.0 -0.5684760221
O  O101  1  0.49930000  0.64130000  0.49590000  1.0 -0.6707232773
O  O102  1  0.50620000  0.79730000  0.51220000  1.0 -0.600529778
O  O103  1  0.37530000  0.09670000  0.46020000  1.0 -0.6900007307
O  O104  1  0.40030000  0.03970000  0.27430000  1.0 -0.6803039789
O  O105  1  0.99870000  0.39050000  0.00120000  1.0 -0.64934793
O  O106  1  0.14720000  0.94230000  0.24280000  1.0 -0.4913756538
O  O107  1  0.41520000  0.18860000  0.18760000  1.0 -0.5560982108
O  O108  1  0.56200000  0.97720000  0.43590000  1.0 -0.5908659378
O  O109  1  0.41810000  0.95190000  0.47010000  1.0 -0.5374041776
O  O110  1  0.69500000  0.76860000  0.27440000  1.0 -0.5908659378
O  O111  1  0.92380000  0.72520000  0.93970000  1.0 -0.600529778
O  O112  1  0.03390000  0.21140000  0.92360000  1.0 -0.5510901987
O  O113  1  0.66090000  0.09680000  0.18510000  1.0 -0.5008910067
O  O114  1  0.22740000  0.98180000  0.08270000  1.0 -0.4913756538
O  O115  1  0.95740000  0.21330000  0.09360000  1.0 -0.5684760221
O  O116  1  0.68510000  0.71520000  0.45310000  1.0 -0.6408922255
O  O117  1  0.35800000  0.12170000  0.33850000  1.0 -0.7012817542
O  O118  1  0.82590000  0.28570000  0.85240000  1.0 -0.468584761
O  O119  1  0.86800000  0.92310000  0.26790000  1.0 -0.6408922255
O  O120  1  0.62840000  0.81100000  0.55530000  1.0 -0.6408922255
O  O121  1  0.58680000  0.95670000  0.55780000  1.0 -0.579315104
O  O122  1  0.83910000  0.64450000  0.83520000  1.0 -0.5684760221
O  O123  1  0.45330000  0.97730000  0.59010000  1.0 -0.5684760221
O  O124  1  0.00390000  0.94130000  0.24390000  1.0 -0.5684760221
O  O125  1  0.61740000  0.36780000  0.05830000  1.0 -0.468584761
O  O126  1  0.08480000  0.26420000  0.79710000  1.0 -0.4796792355
O  O127  1  0.67330000  0.90740000  0.35640000  1.0 -0.5216951615
O  O128  1  0.75490000  0.71060000  0.37460000  1.0 -0.5374041776
O  O129  1  0.89600000  0.11820000  0.21000000  1.0 -0.5216951615
O  O130  1  0.28710000  0.01050000  0.41930000  1.0 -0.5273097336
O  O131  1  0.34190000  0.04810000  0.66940000  1.0 -0.468584761
O  O132  1  0.74590000  0.71250000  0.51660000  1.0 -0.5273097336
O  O133  1  0.24460000  0.16310000  0.34600000  1.0 -0.5374041776
O  O134  1  0.78250000  0.09600000  0.06080000  1.0 -0.468584761
O  O135  1  0.81230000  0.84420000  0.31980000  1.0 -0.6298723518
O  O136  1  0.76750000  0.72920000  0.17170000  1.0 -0.5684760221
O  O137  1  0.81750000  0.68320000  0.24880000  1.0 -0.5216951615
O  O138  1  0.68360000  0.84140000  0.64390000  1.0 -0.5510901987
O  O139  1  0.72360000  0.57460000  0.16210000  1.0 -0.5908659378
O  O140  1  0.26440000  0.36730000  0.25750000  1.0 -0.579315104
O  O141  1  0.67190000  0.76020000  0.75890000  0.5 -0.1402152806
O  O142  1  0.68950000  0.71440000  0.77680000  0.5 -0.0681072317
O  O143  1  0.79290000  0.56350000  0.69860000  0.5 -0.2182377383
O  O144  1  0.80420000  0.63500000  0.73090000  0.5 -0.3163940042
O  O145  1  0.32810000  0.26020000  0.24110000  0.5 -0.1402152806
O  O146  1  0.31050000  0.21440000  0.22320000  0.5 -0.0681072317
O  O147  1  0.20710000  0.06350000  0.30140000  0.5 -0.2182377383
O  O148  1  0.19580000  0.13500000  0.26910000  0.5 -0.3163940042
